MODEL        1
REMARK 921   NORMALIZED FREE ENERGY PREDICTED BY IDOCK:   -7.54 KCAL/MOL
REMARK 922        TOTAL FREE ENERGY PREDICTED BY IDOCK:  -14.69 KCAL/MOL
REMARK 923 INTER-LIGAND FREE ENERGY PREDICTED BY IDOCK:  -12.39 KCAL/MOL
REMARK 924 INTRA-LIGAND FREE ENERGY PREDICTED BY IDOCK:   -2.31 KCAL/MOL
REMARK 927      BINDING AFFINITY PREDICTED BY RF-SCORE:    0.00 PKD
ROOT
HETATM    1  C   UNL     1     -12.493  16.014  73.216  1.00  0.00    -0.645 C  
HETATM    2  C   UNL     1     -13.556  15.555  72.228  1.00  0.00    -0.618 C  
ENDROOT
BRANCH   2   3
HETATM    3  C   UNL     1     -13.065  14.447  71.367  1.00  0.00    -0.416 C  
HETATM    4  C   UNL     1     -12.381  14.456  70.214  1.00  0.00    -0.410 C  
HETATM    5  C   UNL     1     -12.110  13.077  69.704  1.00  0.00    -0.241 C  
HETATM    6  C   UNL     1     -11.859  15.638  69.477  1.00  0.00    -0.387 C  
HETATM    7  N   UNL     1     -12.647  12.255  70.753  1.00  0.00    -0.268 N  
HETATM    8  O   UNL     1     -13.927  12.643  72.682  1.00  0.00    -0.398 OA 
HETATM    9  C   UNL     1     -13.285  13.027  71.717  1.00  0.00    -0.392 C  
BRANCH   7  10
HETATM   10  C   UNL     1     -12.326  10.911  70.828  1.00  0.00    -0.390 C  
HETATM   11  O   UNL     1     -13.177  10.027  70.766  1.00  0.00    -0.348 OA 
BRANCH  10  12
HETATM   12  N   UNL     1     -10.986  10.641  70.933  1.00  0.00    -0.151 N  
HETATM   13  H   UNL     1     -10.431  11.186  71.594  1.00  0.00     0.000 HD 
BRANCH  12  14
HETATM   14  C   UNL     1     -10.320   9.620  70.151  1.00  0.00    -0.266 C  
BRANCH  14  15
HETATM   15  C   UNL     1      -9.285  10.191  69.166  1.00  0.00    -0.204 C  
BRANCH  15  16
HETATM   16  C   UNL     1      -9.883  10.962  68.001  1.00  0.00    -0.185 A  
HETATM   17  C   UNL     1      -9.507  12.285  67.725  1.00  0.00    -0.197 A  
HETATM   18  C   UNL     1     -10.105  13.001  66.687  1.00  0.00    -0.251 A  
HETATM   19  C   UNL     1     -11.043  12.386  65.858  1.00  0.00    -0.313 A  
HETATM   20  C   UNL     1     -11.400  11.054  66.085  1.00  0.00     0.172 A  
HETATM   21  C   UNL     1     -10.816  10.347  67.147  1.00  0.00    -0.301 A  
BRANCH  19  22
HETATM   22  S   UNL     1     -11.896  13.357  64.630  1.00  0.00    -0.413 S  
HETATM   23  O   UNL     1     -11.931  12.573  63.412  1.00  0.00    -0.497 OA 
HETATM   24  O   UNL     1     -13.123  13.863  65.205  1.00  0.00    -0.777 OA 
BRANCH  22  25
HETATM   25  N   UNL     1     -10.868  14.634  64.293  1.00  0.00    -0.521 N  
HETATM   26  H   UNL     1      -9.986  14.432  63.823  1.00  0.00     0.000 HD 
BRANCH  25  27
HETATM   27  C   UNL     1     -11.151  15.946  64.618  1.00  0.00    -0.354 C  
HETATM   28  O   UNL     1     -11.706  16.711  63.845  1.00  0.00    -1.153 OA 
BRANCH  27  29
HETATM   29  N   UNL     1     -10.764  16.327  65.881  1.00  0.00    -0.273 N  
HETATM   30  H   UNL     1     -11.166  15.884  66.706  1.00  0.00     0.000 HD 
BRANCH  29  31
HETATM   31  C   UNL     1      -9.761  17.382  66.012  1.00  0.00    -0.152 C  
HETATM   32  C   UNL     1     -10.347  18.710  66.506  1.00  0.00    -0.462 C  
HETATM   33  C   UNL     1     -10.471  18.834  68.023  1.00  0.00    -0.410 C  
HETATM   34  C   UNL     1      -9.205  18.412  68.777  1.00  0.00    -0.277 C  
HETATM   35  C   UNL     1      -8.790  17.002  68.343  1.00  0.00    -0.247 C  
HETATM   36  C   UNL     1      -8.062  19.420  68.606  1.00  0.00    -0.402 C  
HETATM   37  C   UNL     1      -8.558  16.901  66.837  1.00  0.00    -0.241 C  
ENDBRANCH  29  31
ENDBRANCH  27  29
ENDBRANCH  25  27
ENDBRANCH  22  25
ENDBRANCH  19  22
ENDBRANCH  15  16
ENDBRANCH  14  15
ENDBRANCH  12  14
ENDBRANCH  10  12
ENDBRANCH   7  10
ENDBRANCH   2   3
TORSDOF 11
ENDMDL
MODEL        2
REMARK 921   NORMALIZED FREE ENERGY PREDICTED BY IDOCK:   -7.36 KCAL/MOL
REMARK 922        TOTAL FREE ENERGY PREDICTED BY IDOCK:  -14.40 KCAL/MOL
REMARK 923 INTER-LIGAND FREE ENERGY PREDICTED BY IDOCK:  -12.29 KCAL/MOL
REMARK 924 INTRA-LIGAND FREE ENERGY PREDICTED BY IDOCK:   -2.12 KCAL/MOL
REMARK 927      BINDING AFFINITY PREDICTED BY RF-SCORE:    0.00 PKD
ROOT
HETATM    1  C   UNL     1     -10.820  19.131  67.079  1.00  0.00    -0.479 C  
HETATM    2  C   UNL     1      -9.939  18.303  66.156  1.00  0.00    -0.313 C  
ENDROOT
BRANCH   2   3
HETATM    3  C   UNL     1     -10.324  16.867  66.170  1.00  0.00    -0.327 C  
HETATM    4  C   UNL     1     -10.075  15.890  67.055  1.00  0.00    -0.268 C  
HETATM    5  C   UNL     1     -10.669  14.583  66.639  1.00  0.00    -0.305 C  
HETATM    6  C   UNL     1      -9.352  16.001  68.350  1.00  0.00    -0.207 C  
HETATM    7  N   UNL     1     -11.376  14.939  65.439  1.00  0.00    -0.349 N  
HETATM    8  O   UNL     1     -11.497  16.853  64.085  1.00  0.00    -1.174 OA 
HETATM    9  C   UNL     1     -11.134  16.263  65.091  1.00  0.00    -0.212 C  
BRANCH   7  10
HETATM   10  C   UNL     1     -12.322  14.086  64.901  1.00  0.00    -0.427 C  
HETATM   11  O   UNL     1     -13.402  13.872  65.448  1.00  0.00    -0.710 OA 
BRANCH  10  12
HETATM   12  N   UNL     1     -11.983  13.532  63.693  1.00  0.00    -0.719 N  
HETATM   13  H   UNL     1     -11.824  14.155  62.901  1.00  0.00     0.000 HD 
BRANCH  12  14
HETATM   14  C   UNL     1     -11.839  12.105  63.490  1.00  0.00    -0.505 C  
BRANCH  14  15
HETATM   15  C   UNL     1     -10.429  11.586  63.821  1.00  0.00    -0.459 C  
BRANCH  15  16
HETATM   16  C   UNL     1     -10.330  10.822  65.130  1.00  0.00    -0.341 A  
HETATM   17  C   UNL     1      -9.485   9.711  65.271  1.00  0.00    -0.342 A  
HETATM   18  C   UNL     1      -9.446   8.984  66.461  1.00  0.00    -0.266 A  
HETATM   19  C   UNL     1     -10.200   9.394  67.561  1.00  0.00    -0.231 A  
HETATM   20  C   UNL     1     -11.014  10.525  67.459  1.00  0.00    -0.365 A  
HETATM   21  C   UNL     1     -11.071  11.237  66.251  1.00  0.00    -0.229 A  
BRANCH  19  22
HETATM   22  S   UNL     1     -10.243   8.373  69.022  1.00  0.00    -0.208 S  
HETATM   23  O   UNL     1     -10.528   7.019  68.590  1.00  0.00    -0.190 OA 
HETATM   24  O   UNL     1      -9.068   8.650  69.819  1.00  0.00    -0.146 OA 
BRANCH  22  25
HETATM   25  N   UNL     1     -11.610   8.859  69.853  1.00  0.00    -0.438 N  
HETATM   26  H   UNL     1     -12.522   8.680  69.431  1.00  0.00     0.000 HD 
BRANCH  25  27
HETATM   27  C   UNL     1     -11.571   9.490  71.081  1.00  0.00    -0.367 C  
HETATM   28  O   UNL     1     -11.655   8.883  72.137  1.00  0.00    -0.363 OA 
BRANCH  27  29
HETATM   29  N   UNL     1     -11.427  10.857  71.026  1.00  0.00    -0.210 N  
HETATM   30  H   UNL     1     -10.522  11.293  71.202  1.00  0.00     0.000 HD 
BRANCH  29  31
HETATM   31  C   UNL     1     -12.600  11.668  70.708  1.00  0.00    -0.273 C  
HETATM   32  C   UNL     1     -13.352  12.152  71.954  1.00  0.00    -0.421 C  
HETATM   33  C   UNL     1     -12.807  13.436  72.577  1.00  0.00    -0.186 C  
HETATM   34  C   UNL     1     -12.548  14.548  71.554  1.00  0.00    -0.419 C  
HETATM   35  C   UNL     1     -11.647  14.021  70.433  1.00  0.00    -0.206 C  
HETATM   36  C   UNL     1     -13.847  15.151  71.007  1.00  0.00    -0.423 C  
HETATM   37  C   UNL     1     -12.242  12.800  69.734  1.00  0.00    -0.213 C  
ENDBRANCH  29  31
ENDBRANCH  27  29
ENDBRANCH  25  27
ENDBRANCH  22  25
ENDBRANCH  19  22
ENDBRANCH  15  16
ENDBRANCH  14  15
ENDBRANCH  12  14
ENDBRANCH  10  12
ENDBRANCH   7  10
ENDBRANCH   2   3
TORSDOF 11
ENDMDL
MODEL        3
REMARK 921   NORMALIZED FREE ENERGY PREDICTED BY IDOCK:   -7.24 KCAL/MOL
REMARK 922        TOTAL FREE ENERGY PREDICTED BY IDOCK:  -14.20 KCAL/MOL
REMARK 923 INTER-LIGAND FREE ENERGY PREDICTED BY IDOCK:  -11.32 KCAL/MOL
REMARK 924 INTRA-LIGAND FREE ENERGY PREDICTED BY IDOCK:   -2.89 KCAL/MOL
REMARK 927      BINDING AFFINITY PREDICTED BY RF-SCORE:    0.00 PKD
ROOT
HETATM    1  C   UNL     1      -9.266   8.603  65.724  1.00  0.00    -0.245 C  
HETATM    2  C   UNL     1     -10.334   9.032  66.719  1.00  0.00    -0.310 C  
ENDROOT
BRANCH   2   3
HETATM    3  C   UNL     1      -9.855   8.924  68.122  1.00  0.00    -0.193 C  
HETATM    4  C   UNL     1      -9.045   9.711  68.846  1.00  0.00    -0.144 C  
HETATM    5  C   UNL     1      -8.840   9.191  70.232  1.00  0.00    -0.213 C  
HETATM    6  C   UNL     1      -8.418  10.995  68.431  1.00  0.00    -0.144 C  
HETATM    7  N   UNL     1      -9.706   8.044  70.257  1.00  0.00    -0.175 N  
HETATM    8  O   UNL     1     -10.963   6.873  68.658  1.00  0.00    -0.206 OA 
HETATM    9  C   UNL     1     -10.266   7.812  69.006  1.00  0.00    -0.208 C  
BRANCH   7  10
HETATM   10  C   UNL     1     -10.054   7.452  71.458  1.00  0.00    -0.185 C  
HETATM   11  O   UNL     1      -9.855   6.261  71.687  1.00  0.00    -0.165 OA 
BRANCH  10  12
HETATM   12  N   UNL     1     -10.600   8.302  72.386  1.00  0.00    -0.317 N  
HETATM   13  H   UNL     1      -9.972   8.895  72.929  1.00  0.00     0.000 HD 
BRANCH  12  14
HETATM   14  C   UNL     1     -12.024   8.397  72.631  1.00  0.00    -0.277 C  
BRANCH  14  15
HETATM   15  C   UNL     1     -12.818   8.880  71.405  1.00  0.00    -0.335 C  
BRANCH  15  16
HETATM   16  C   UNL     1     -12.765  10.381  71.172  1.00  0.00    -0.514 A  
HETATM   17  C   UNL     1     -12.107  10.930  70.061  1.00  0.00    -0.433 A  
HETATM   18  C   UNL     1     -12.017  12.312  69.889  1.00  0.00    -0.377 A  
HETATM   19  C   UNL     1     -12.643  13.175  70.789  1.00  0.00    -0.260 A  
HETATM   20  C   UNL     1     -13.344  12.649  71.878  1.00  0.00    -0.485 A  
HETATM   21  C   UNL     1     -13.409  11.260  72.062  1.00  0.00    -0.386 A  
BRANCH  19  22
HETATM   22  S   UNL     1     -12.398  14.933  70.630  1.00  0.00    -0.374 S  
HETATM   23  O   UNL     1     -13.553  15.582  71.217  1.00  0.00    -0.505 OA 
HETATM   24  O   UNL     1     -11.067  15.262  71.091  1.00  0.00    -0.340 OA 
BRANCH  22  25
HETATM   25  N   UNL     1     -12.515  15.243  68.990  1.00  0.00    -0.577 N  
HETATM   26  H   UNL     1     -13.423  15.126  68.540  1.00  0.00     0.000 HD 
BRANCH  25  27
HETATM   27  C   UNL     1     -11.447  15.649  68.214  1.00  0.00    -0.350 C  
HETATM   28  O   UNL     1     -10.950  16.760  68.307  1.00  0.00    -0.361 OA 
BRANCH  27  29
HETATM   29  N   UNL     1     -10.982  14.705  67.329  1.00  0.00    -0.308 N  
HETATM   30  H   UNL     1      -9.988  14.637  67.113  1.00  0.00     0.000 HD 
BRANCH  29  31
HETATM   31  C   UNL     1     -11.947  13.803  66.704  1.00  0.00    -0.431 C  
HETATM   32  C   UNL     1     -12.682  14.436  65.517  1.00  0.00    -0.308 C  
HETATM   33  C   UNL     1     -11.945  14.346  64.181  1.00  0.00    -0.373 C  
HETATM   34  C   UNL     1     -11.398  12.946  63.880  1.00  0.00    -0.489 C  
HETATM   35  C   UNL     1     -10.535  12.464  65.051  1.00  0.00    -0.324 C  
HETATM   36  C   UNL     1     -12.509  11.946  63.540  1.00  0.00    -0.609 C  
HETATM   37  C   UNL     1     -11.302  12.449  66.371  1.00  0.00    -0.392 C  
ENDBRANCH  29  31
ENDBRANCH  27  29
ENDBRANCH  25  27
ENDBRANCH  22  25
ENDBRANCH  19  22
ENDBRANCH  15  16
ENDBRANCH  14  15
ENDBRANCH  12  14
ENDBRANCH  10  12
ENDBRANCH   7  10
ENDBRANCH   2   3
TORSDOF 11
ENDMDL
MODEL        4
REMARK 921   NORMALIZED FREE ENERGY PREDICTED BY IDOCK:   -7.15 KCAL/MOL
REMARK 922        TOTAL FREE ENERGY PREDICTED BY IDOCK:  -14.06 KCAL/MOL
REMARK 923 INTER-LIGAND FREE ENERGY PREDICTED BY IDOCK:  -11.83 KCAL/MOL
REMARK 924 INTRA-LIGAND FREE ENERGY PREDICTED BY IDOCK:   -2.23 KCAL/MOL
REMARK 927      BINDING AFFINITY PREDICTED BY RF-SCORE:    0.00 PKD
ROOT
HETATM    1  C   UNL     1     -13.973   8.392  71.396  1.00  0.00    -0.333 C  
HETATM    2  C   UNL     1     -13.055   9.264  72.240  1.00  0.00    -0.517 C  
ENDROOT
BRANCH   2   3
HETATM    3  C   UNL     1     -11.625   9.062  71.886  1.00  0.00    -0.441 C  
HETATM    4  C   UNL     1     -10.693   8.243  72.395  1.00  0.00    -0.411 C  
HETATM    5  C   UNL     1      -9.372   8.395  71.713  1.00  0.00    -0.226 C  
HETATM    6  C   UNL     1     -10.863   7.231  73.473  1.00  0.00    -0.290 C  
HETATM    7  N   UNL     1      -9.673   9.345  70.677  1.00  0.00    -0.267 N  
HETATM    8  O   UNL     1     -11.516  10.696  70.143  1.00  0.00    -0.281 OA 
HETATM    9  C   UNL     1     -10.975   9.816  70.794  1.00  0.00    -0.336 C  
BRANCH   7  10
HETATM   10  C   UNL     1      -8.802   9.530  69.618  1.00  0.00    -0.187 C  
HETATM   11  O   UNL     1      -8.178  10.576  69.454  1.00  0.00    -0.158 OA 
BRANCH  10  12
HETATM   12  N   UNL     1      -8.657   8.445  68.791  1.00  0.00    -0.134 N  
HETATM   13  H   UNL     1      -7.867   7.818  68.947  1.00  0.00     0.000 HD 
BRANCH  12  14
HETATM   14  C   UNL     1      -9.572   8.148  67.708  1.00  0.00    -0.151 C  
BRANCH  14  15
HETATM   15  C   UNL     1      -9.104   8.705  66.352  1.00  0.00    -0.218 C  
BRANCH  15  16
HETATM   16  C   UNL     1      -9.902   9.897  65.852  1.00  0.00    -0.342 A  
HETATM   17  C   UNL     1      -9.965  10.219  64.488  1.00  0.00    -0.359 A  
HETATM   18  C   UNL     1     -10.654  11.349  64.047  1.00  0.00    -0.444 A  
HETATM   19  C   UNL     1     -11.354  12.145  64.954  1.00  0.00    -0.326 A  
HETATM   20  C   UNL     1     -11.344  11.818  66.313  1.00  0.00    -0.350 A  
HETATM   21  C   UNL     1     -10.627  10.695  66.755  1.00  0.00    -0.297 A  
BRANCH  19  22
HETATM   22  S   UNL     1     -12.109  13.659  64.390  1.00  0.00    -0.420 S  
HETATM   23  O   UNL     1     -12.499  13.454  63.010  1.00  0.00    -0.667 OA 
HETATM   24  O   UNL     1     -13.086  14.084  65.368  1.00  0.00    -0.763 OA 
BRANCH  22  25
HETATM   25  N   UNL     1     -10.861  14.770  64.327  1.00  0.00    -0.508 N  
HETATM   26  H   UNL     1     -10.160  14.670  63.592  1.00  0.00     0.000 HD 
BRANCH  25  27
HETATM   27  C   UNL     1     -10.728  15.818  65.217  1.00  0.00    -0.428 C  
HETATM   28  O   UNL     1     -10.864  16.986  64.886  1.00  0.00    -0.717 OA 
BRANCH  27  29
HETATM   29  N   UNL     1     -10.433  15.448  66.508  1.00  0.00    -0.288 N  
HETATM   30  H   UNL     1      -9.646  14.832  66.708  1.00  0.00     0.000 HD 
BRANCH  29  31
HETATM   31  C   UNL     1     -11.276  15.958  67.587  1.00  0.00    -0.219 C  
HETATM   32  C   UNL     1     -12.034  14.853  68.333  1.00  0.00    -0.255 C  
HETATM   33  C   UNL     1     -11.249  14.177  69.455  1.00  0.00    -0.298 C  
HETATM   34  C   UNL     1     -10.546  15.168  70.390  1.00  0.00    -0.166 C  
HETATM   35  C   UNL     1      -9.677  16.127  69.571  1.00  0.00    -0.179 C  
HETATM   36  C   UNL     1     -11.534  15.921  71.290  1.00  0.00    -0.489 C  
HETATM   37  C   UNL     1     -10.481  16.886  68.518  1.00  0.00    -0.361 C  
ENDBRANCH  29  31
ENDBRANCH  27  29
ENDBRANCH  25  27
ENDBRANCH  22  25
ENDBRANCH  19  22
ENDBRANCH  15  16
ENDBRANCH  14  15
ENDBRANCH  12  14
ENDBRANCH  10  12
ENDBRANCH   7  10
ENDBRANCH   2   3
TORSDOF 11
ENDMDL
MODEL        5
REMARK 921   NORMALIZED FREE ENERGY PREDICTED BY IDOCK:   -7.13 KCAL/MOL
REMARK 922        TOTAL FREE ENERGY PREDICTED BY IDOCK:  -14.02 KCAL/MOL
REMARK 923 INTER-LIGAND FREE ENERGY PREDICTED BY IDOCK:  -12.03 KCAL/MOL
REMARK 924 INTRA-LIGAND FREE ENERGY PREDICTED BY IDOCK:   -1.99 KCAL/MOL
REMARK 927      BINDING AFFINITY PREDICTED BY RF-SCORE:    0.00 PKD
ROOT
HETATM    1  C   UNL     1     -13.677   7.506  71.519  1.00  0.00    -0.460 C  
HETATM    2  C   UNL     1     -12.981   8.624  72.280  1.00  0.00    -0.430 C  
ENDROOT
BRANCH   2   3
HETATM    3  C   UNL     1     -11.522   8.660  71.993  1.00  0.00    -0.437 C  
HETATM    4  C   UNL     1     -10.485   8.058  72.594  1.00  0.00    -0.408 C  
HETATM    5  C   UNL     1      -9.180   8.399  71.950  1.00  0.00    -0.238 C  
HETATM    6  C   UNL     1     -10.525   7.105  73.736  1.00  0.00    -0.371 C  
HETATM    7  N   UNL     1      -9.594   9.209  70.837  1.00  0.00    -0.262 N  
HETATM    8  O   UNL     1     -11.620  10.169  70.140  1.00  0.00    -0.258 OA 
HETATM    9  C   UNL     1     -10.963   9.445  70.873  1.00  0.00    -0.320 C  
BRANCH   7  10
HETATM   10  C   UNL     1      -8.720   9.478  69.799  1.00  0.00    -0.194 C  
HETATM   11  O   UNL     1      -8.062  10.514  69.744  1.00  0.00    -0.116 OA 
BRANCH  10  12
HETATM   12  N   UNL     1      -8.613   8.483  68.861  1.00  0.00    -0.127 N  
HETATM   13  H   UNL     1      -7.781   7.892  68.872  1.00  0.00     0.000 HD 
BRANCH  12  14
HETATM   14  C   UNL     1      -9.624   8.233  67.854  1.00  0.00    -0.152 C  
BRANCH  14  15
HETATM   15  C   UNL     1      -9.202   8.691  66.447  1.00  0.00    -0.245 C  
BRANCH  15  16
HETATM   16  C   UNL     1      -9.877   9.967  65.971  1.00  0.00    -0.321 A  
HETATM   17  C   UNL     1     -10.574  10.803  66.856  1.00  0.00    -0.312 A  
HETATM   18  C   UNL     1     -11.237  11.942  66.397  1.00  0.00    -0.387 A  
HETATM   19  C   UNL     1     -11.160  12.308  65.053  1.00  0.00    -0.316 A  
HETATM   20  C   UNL     1     -10.432  11.515  64.161  1.00  0.00    -0.408 A  
HETATM   21  C   UNL     1      -9.790  10.356  64.622  1.00  0.00    -0.405 A  
BRANCH  19  22
HETATM   22  S   UNL     1     -12.128  13.684  64.463  1.00  0.00    -0.419 S  
HETATM   23  O   UNL     1     -12.591  13.343  63.133  1.00  0.00    -0.710 OA 
HETATM   24  O   UNL     1     -13.075  14.061  65.489  1.00  0.00    -0.713 OA 
BRANCH  22  25
HETATM   25  N   UNL     1     -11.028  14.923  64.234  1.00  0.00    -0.569 N  
HETATM   26  H   UNL     1     -10.347  14.832  63.479  1.00  0.00     0.000 HD 
BRANCH  25  27
HETATM   27  C   UNL     1     -10.993  16.064  65.012  1.00  0.00    -0.380 C  
HETATM   28  O   UNL     1     -11.060  17.187  64.538  1.00  0.00    -1.105 OA 
BRANCH  27  29
HETATM   29  N   UNL     1     -10.879  15.840  66.364  1.00  0.00    -0.273 N  
HETATM   30  H   UNL     1     -11.666  16.012  66.989  1.00  0.00     0.000 HD 
BRANCH  29  31
HETATM   31  C   UNL     1      -9.604  15.350  66.883  1.00  0.00    -0.226 C  
HETATM   32  C   UNL     1      -8.398  16.139  66.360  1.00  0.00    -0.357 C  
HETATM   33  C   UNL     1      -8.070  17.408  67.144  1.00  0.00    -0.229 C  
HETATM   34  C   UNL     1      -8.045  17.198  68.662  1.00  0.00    -0.264 C  
HETATM   35  C   UNL     1      -9.361  16.560  69.118  1.00  0.00    -0.207 C  
HETATM   36  C   UNL     1      -6.828  16.384  69.118  1.00  0.00    -0.210 C  
HETATM   37  C   UNL     1      -9.639  15.234  68.414  1.00  0.00    -0.206 C  
ENDBRANCH  29  31
ENDBRANCH  27  29
ENDBRANCH  25  27
ENDBRANCH  22  25
ENDBRANCH  19  22
ENDBRANCH  15  16
ENDBRANCH  14  15
ENDBRANCH  12  14
ENDBRANCH  10  12
ENDBRANCH   7  10
ENDBRANCH   2   3
TORSDOF 11
ENDMDL
MODEL        6
REMARK 921   NORMALIZED FREE ENERGY PREDICTED BY IDOCK:   -7.07 KCAL/MOL
REMARK 922        TOTAL FREE ENERGY PREDICTED BY IDOCK:  -13.92 KCAL/MOL
REMARK 923 INTER-LIGAND FREE ENERGY PREDICTED BY IDOCK:  -11.61 KCAL/MOL
REMARK 924 INTRA-LIGAND FREE ENERGY PREDICTED BY IDOCK:   -2.32 KCAL/MOL
REMARK 927      BINDING AFFINITY PREDICTED BY RF-SCORE:    0.00 PKD
ROOT
HETATM    1  C   UNL     1     -13.022  10.591  70.850  1.00  0.00    -0.455 C  
HETATM    2  C   UNL     1     -12.346   9.734  71.909  1.00  0.00    -0.417 C  
ENDROOT
BRANCH   2   3
HETATM    3  C   UNL     1     -11.806   8.473  71.334  1.00  0.00    -0.345 C  
HETATM    4  C   UNL     1     -12.364   7.265  71.164  1.00  0.00    -0.381 C  
HETATM    5  C   UNL     1     -11.422   6.288  70.539  1.00  0.00    -0.338 C  
HETATM    6  C   UNL     1     -13.761   6.858  71.477  1.00  0.00    -0.274 C  
HETATM    7  N   UNL     1     -10.266   7.103  70.282  1.00  0.00    -0.196 N  
HETATM    8  O   UNL     1      -9.609   9.284  70.847  1.00  0.00    -0.257 OA 
HETATM    9  C   UNL     1     -10.429   8.380  70.804  1.00  0.00    -0.197 C  
BRANCH   7  10
HETATM   10  C   UNL     1      -9.273   6.663  69.426  1.00  0.00    -0.142 C  
HETATM   11  O   UNL     1      -9.131   5.478  69.135  1.00  0.00    -0.107 OA 
BRANCH  10  12
HETATM   12  N   UNL     1      -8.486   7.654  68.896  1.00  0.00    -0.129 N  
HETATM   13  H   UNL     1      -7.961   8.252  69.534  1.00  0.00     0.000 HD 
BRANCH  12  14
HETATM   14  C   UNL     1      -8.366   7.891  67.471  1.00  0.00    -0.124 C  
BRANCH  14  15
HETATM   15  C   UNL     1      -9.726   8.030  66.765  1.00  0.00    -0.305 C  
BRANCH  15  16
HETATM   16  C   UNL     1     -10.211   9.462  66.610  1.00  0.00    -0.319 A  
HETATM   17  C   UNL     1      -9.945  10.206  65.451  1.00  0.00    -0.377 A  
HETATM   18  C   UNL     1     -10.348  11.538  65.344  1.00  0.00    -0.322 A  
HETATM   19  C   UNL     1     -11.086  12.134  66.367  1.00  0.00    -0.314 A  
HETATM   20  C   UNL     1     -11.403  11.398  67.511  1.00  0.00    -0.362 A  
HETATM   21  C   UNL     1     -10.972  10.067  67.626  1.00  0.00    -0.297 A  
BRANCH  19  22
HETATM   22  S   UNL     1     -11.467  13.873  66.272  1.00  0.00    -0.352 S  
HETATM   23  O   UNL     1     -10.605  14.446  65.257  1.00  0.00    -0.332 OA 
HETATM   24  O   UNL     1     -12.902  14.031  66.181  1.00  0.00    -0.394 OA 
BRANCH  22  25
HETATM   25  N   UNL     1     -10.924  14.518  67.716  1.00  0.00    -0.268 N  
HETATM   26  H   UNL     1      -9.998  14.248  68.048  1.00  0.00     0.000 HD 
BRANCH  25  27
HETATM   27  C   UNL     1     -11.662  15.397  68.483  1.00  0.00    -0.338 C  
HETATM   28  O   UNL     1     -11.472  16.604  68.470  1.00  0.00    -0.266 OA 
BRANCH  27  29
HETATM   29  N   UNL     1     -12.632  14.813  69.263  1.00  0.00    -0.562 N  
HETATM   30  H   UNL     1     -13.592  14.731  68.929  1.00  0.00     0.000 HD 
BRANCH  29  31
HETATM   31  C   UNL     1     -12.254  14.311  70.583  1.00  0.00    -0.357 C  
HETATM   32  C   UNL     1     -11.265  15.227  71.314  1.00  0.00    -0.375 C  
HETATM   33  C   UNL     1     -11.904  16.378  72.089  1.00  0.00    -0.499 C  
HETATM   34  C   UNL     1     -13.087  15.943  72.961  1.00  0.00    -0.639 C  
HETATM   35  C   UNL     1     -14.107  15.182  72.109  1.00  0.00    -0.654 C  
HETATM   36  C   UNL     1     -12.642  15.129  74.182  1.00  0.00    -0.585 C  
HETATM   37  C   UNL     1     -13.496  13.965  71.419  1.00  0.00    -0.328 C  
ENDBRANCH  29  31
ENDBRANCH  27  29
ENDBRANCH  25  27
ENDBRANCH  22  25
ENDBRANCH  19  22
ENDBRANCH  15  16
ENDBRANCH  14  15
ENDBRANCH  12  14
ENDBRANCH  10  12
ENDBRANCH   7  10
ENDBRANCH   2   3
TORSDOF 11
ENDMDL
MODEL        7
REMARK 921   NORMALIZED FREE ENERGY PREDICTED BY IDOCK:   -7.06 KCAL/MOL
REMARK 922        TOTAL FREE ENERGY PREDICTED BY IDOCK:  -13.91 KCAL/MOL
REMARK 923 INTER-LIGAND FREE ENERGY PREDICTED BY IDOCK:  -12.55 KCAL/MOL
REMARK 924 INTRA-LIGAND FREE ENERGY PREDICTED BY IDOCK:   -1.36 KCAL/MOL
REMARK 927      BINDING AFFINITY PREDICTED BY RF-SCORE:    0.00 PKD
ROOT
HETATM    1  C   UNL     1     -12.643  11.159  70.683  1.00  0.00    -0.408 C  
HETATM    2  C   UNL     1     -12.644  10.124  71.798  1.00  0.00    -0.500 C  
ENDROOT
BRANCH   2   3
HETATM    3  C   UNL     1     -12.117   8.814  71.332  1.00  0.00    -0.361 C  
HETATM    4  C   UNL     1     -12.704   7.614  71.211  1.00  0.00    -0.306 C  
HETATM    5  C   UNL     1     -11.764   6.572  70.697  1.00  0.00    -0.374 C  
HETATM    6  C   UNL     1     -14.126   7.268  71.477  1.00  0.00    -0.515 C  
HETATM    7  N   UNL     1     -10.572   7.335  70.448  1.00  0.00    -0.221 N  
HETATM    8  O   UNL     1      -9.874   9.528  70.906  1.00  0.00    -0.275 OA 
HETATM    9  C   UNL     1     -10.719   8.648  70.879  1.00  0.00    -0.219 C  
BRANCH   7  10
HETATM   10  C   UNL     1      -9.552   6.813  69.673  1.00  0.00    -0.148 C  
HETATM   11  O   UNL     1      -8.464   6.491  70.145  1.00  0.00    -0.132 OA 
BRANCH  10  12
HETATM   12  N   UNL     1      -9.862   6.643  68.347  1.00  0.00    -0.136 N  
HETATM   13  H   UNL     1      -9.641   5.749  67.908  1.00  0.00     0.000 HD 
BRANCH  12  14
HETATM   14  C   UNL     1     -10.487   7.672  67.542  1.00  0.00    -0.266 C  
BRANCH  14  15
HETATM   15  C   UNL     1      -9.578   8.892  67.310  1.00  0.00    -0.212 C  
BRANCH  15  16
HETATM   16  C   UNL     1     -10.263  10.067  66.631  1.00  0.00    -0.288 A  
HETATM   17  C   UNL     1     -10.197  10.253  65.242  1.00  0.00    -0.308 A  
HETATM   18  C   UNL     1     -10.781  11.367  64.637  1.00  0.00    -0.378 A  
HETATM   19  C   UNL     1     -11.504  12.283  65.401  1.00  0.00    -0.354 A  
HETATM   20  C   UNL     1     -11.622  12.094  66.781  1.00  0.00    -0.412 A  
HETATM   21  C   UNL     1     -11.010  10.987  67.388  1.00  0.00    -0.349 A  
BRANCH  19  22
HETATM   22  S   UNL     1     -12.121  13.769  64.632  1.00  0.00    -0.427 S  
HETATM   23  O   UNL     1     -12.334  13.469  63.230  1.00  0.00    -0.709 OA 
HETATM   24  O   UNL     1     -13.203  14.295  65.436  1.00  0.00    -0.688 OA 
BRANCH  22  25
HETATM   25  N   UNL     1     -10.836  14.838  64.656  1.00  0.00    -0.608 N  
HETATM   26  H   UNL     1      -9.899  14.472  64.485  1.00  0.00     0.000 HD 
BRANCH  25  27
HETATM   27  C   UNL     1     -10.974  16.191  64.895  1.00  0.00    -0.349 C  
HETATM   28  O   UNL     1     -11.461  16.958  64.079  1.00  0.00    -1.130 OA 
BRANCH  27  29
HETATM   29  N   UNL     1     -10.525  16.612  66.125  1.00  0.00    -0.311 N  
HETATM   30  H   UNL     1     -10.731  16.075  66.967  1.00  0.00     0.000 HD 
BRANCH  29  31
HETATM   31  C   UNL     1      -9.747  17.846  66.196  1.00  0.00    -0.216 C  
HETATM   32  C   UNL     1     -10.230  18.800  67.296  1.00  0.00    -0.438 C  
HETATM   33  C   UNL     1      -9.658  18.524  68.685  1.00  0.00    -0.382 C  
HETATM   34  C   UNL     1      -8.140  18.313  68.689  1.00  0.00    -0.304 C  
HETATM   35  C   UNL     1      -7.766  17.221  67.681  1.00  0.00    -0.194 C  
HETATM   36  C   UNL     1      -7.370  19.615  68.432  1.00  0.00    -0.354 C  
HETATM   37  C   UNL     1      -8.242  17.547  66.267  1.00  0.00    -0.275 C  
ENDBRANCH  29  31
ENDBRANCH  27  29
ENDBRANCH  25  27
ENDBRANCH  22  25
ENDBRANCH  19  22
ENDBRANCH  15  16
ENDBRANCH  14  15
ENDBRANCH  12  14
ENDBRANCH  10  12
ENDBRANCH   7  10
ENDBRANCH   2   3
TORSDOF 11
ENDMDL
MODEL        8
REMARK 921   NORMALIZED FREE ENERGY PREDICTED BY IDOCK:   -7.02 KCAL/MOL
REMARK 922        TOTAL FREE ENERGY PREDICTED BY IDOCK:  -13.85 KCAL/MOL
REMARK 923 INTER-LIGAND FREE ENERGY PREDICTED BY IDOCK:  -11.82 KCAL/MOL
REMARK 924 INTRA-LIGAND FREE ENERGY PREDICTED BY IDOCK:   -2.02 KCAL/MOL
REMARK 927      BINDING AFFINITY PREDICTED BY RF-SCORE:    0.00 PKD
ROOT
HETATM    1  C   UNL     1     -10.186   4.993  66.887  1.00  0.00    -0.270 C  
HETATM    2  C   UNL     1     -11.033   6.226  67.162  1.00  0.00    -0.453 C  
ENDROOT
BRANCH   2   3
HETATM    3  C   UNL     1     -10.397   7.117  68.169  1.00  0.00    -0.234 C  
HETATM    4  C   UNL     1      -9.433   8.042  68.052  1.00  0.00    -0.157 C  
HETATM    5  C   UNL     1      -9.110   8.692  69.359  1.00  0.00    -0.149 C  
HETATM    6  C   UNL     1      -8.744   8.483  66.810  1.00  0.00    -0.133 C  
HETATM    7  N   UNL     1     -10.071   8.091  70.243  1.00  0.00    -0.191 N  
HETATM    8  O   UNL     1     -11.619   6.336  70.072  1.00  0.00    -0.425 OA 
HETATM    9  C   UNL     1     -10.799   7.102  69.592  1.00  0.00    -0.234 C  
BRANCH   7  10
HETATM   10  C   UNL     1     -10.323   8.642  71.486  1.00  0.00    -0.271 C  
HETATM   11  O   UNL     1      -9.431   8.856  72.305  1.00  0.00    -0.327 OA 
BRANCH  10  12
HETATM   12  N   UNL     1     -11.634   8.968  71.720  1.00  0.00    -0.352 N  
HETATM   13  H   UNL     1     -12.086   8.596  72.556  1.00  0.00     0.000 HD 
BRANCH  12  14
HETATM   14  C   UNL     1     -12.408   9.815  70.835  1.00  0.00    -0.290 C  
BRANCH  14  15
HETATM   15  C   UNL     1     -11.928  11.277  70.825  1.00  0.00    -0.383 C  
BRANCH  15  16
HETATM   16  C   UNL     1     -11.772  11.878  69.438  1.00  0.00    -0.401 A  
HETATM   17  C   UNL     1     -11.949  13.251  69.209  1.00  0.00    -0.354 A  
HETATM   18  C   UNL     1     -11.859  13.782  67.921  1.00  0.00    -0.413 A  
HETATM   19  C   UNL     1     -11.521  12.962  66.844  1.00  0.00    -0.341 A  
HETATM   20  C   UNL     1     -11.294  11.599  67.056  1.00  0.00    -0.373 A  
HETATM   21  C   UNL     1     -11.413  11.065  68.349  1.00  0.00    -0.378 A  
BRANCH  19  22
HETATM   22  S   UNL     1     -11.549  13.632  65.192  1.00  0.00    -0.334 S  
HETATM   23  O   UNL     1     -10.950  12.642  64.319  1.00  0.00    -0.319 OA 
HETATM   24  O   UNL     1     -12.876  14.137  64.917  1.00  0.00    -0.687 OA 
BRANCH  22  25
HETATM   25  N   UNL     1     -10.461  14.902  65.218  1.00  0.00    -0.374 N  
HETATM   26  H   UNL     1      -9.466  14.684  65.282  1.00  0.00     0.000 HD 
BRANCH  25  27
HETATM   27  C   UNL     1     -10.837  16.229  65.157  1.00  0.00    -0.318 C  
HETATM   28  O   UNL     1     -11.208  16.762  64.122  1.00  0.00    -1.155 OA 
BRANCH  27  29
HETATM   29  N   UNL     1     -10.767  16.907  66.351  1.00  0.00    -0.160 N  
HETATM   30  H   UNL     1     -11.605  17.301  66.777  1.00  0.00     0.000 HD 
BRANCH  29  31
HETATM   31  C   UNL     1      -9.463  17.049  66.994  1.00  0.00    -0.250 C  
HETATM   32  C   UNL     1      -8.510  17.972  66.224  1.00  0.00    -0.214 C  
HETATM   33  C   UNL     1      -8.667  19.460  66.531  1.00  0.00    -0.374 C  
HETATM   34  C   UNL     1      -8.733  19.771  68.030  1.00  0.00    -0.353 C  
HETATM   35  C   UNL     1      -9.830  18.926  68.687  1.00  0.00    -0.463 C  
HETATM   36  C   UNL     1      -7.378  19.586  68.724  1.00  0.00    -0.393 C  
HETATM   37  C   UNL     1      -9.616  17.429  68.475  1.00  0.00    -0.298 C  
ENDBRANCH  29  31
ENDBRANCH  27  29
ENDBRANCH  25  27
ENDBRANCH  22  25
ENDBRANCH  19  22
ENDBRANCH  15  16
ENDBRANCH  14  15
ENDBRANCH  12  14
ENDBRANCH  10  12
ENDBRANCH   7  10
ENDBRANCH   2   3
TORSDOF 11
ENDMDL
MODEL        9
REMARK 921   NORMALIZED FREE ENERGY PREDICTED BY IDOCK:   -6.99 KCAL/MOL
REMARK 922        TOTAL FREE ENERGY PREDICTED BY IDOCK:  -13.79 KCAL/MOL
REMARK 923 INTER-LIGAND FREE ENERGY PREDICTED BY IDOCK:  -11.54 KCAL/MOL
REMARK 924 INTRA-LIGAND FREE ENERGY PREDICTED BY IDOCK:   -2.25 KCAL/MOL
REMARK 927      BINDING AFFINITY PREDICTED BY RF-SCORE:    0.00 PKD
ROOT
HETATM    1  C   UNL     1     -10.352   3.710  72.635  1.00  0.00    -0.224 C  
HETATM    2  C   UNL     1     -11.153   4.663  73.509  1.00  0.00    -0.412 C  
ENDROOT
BRANCH   2   3
HETATM    3  C   UNL     1     -10.873   6.085  73.175  1.00  0.00    -0.287 C  
HETATM    4  C   UNL     1      -9.867   6.897  73.530  1.00  0.00    -0.272 C  
HETATM    5  C   UNL     1     -10.011   8.266  72.947  1.00  0.00    -0.226 C  
HETATM    6  C   UNL     1      -8.676   6.561  74.355  1.00  0.00    -0.166 C  
HETATM    7  N   UNL     1     -11.186   8.126  72.130  1.00  0.00    -0.303 N  
HETATM    8  O   UNL     1     -12.816   6.464  71.832  1.00  0.00    -0.243 OA 
HETATM    9  C   UNL     1     -11.764   6.873  72.297  1.00  0.00    -0.257 C  
BRANCH   7  10
HETATM   10  C   UNL     1     -11.492   9.074  71.171  1.00  0.00    -0.308 C  
HETATM   11  O   UNL     1     -11.788  10.231  71.459  1.00  0.00    -0.336 OA 
BRANCH  10  12
HETATM   12  N   UNL     1     -11.400   8.635  69.874  1.00  0.00    -0.452 N  
HETATM   13  H   UNL     1     -12.260   8.391  69.382  1.00  0.00     0.000 HD 
BRANCH  12  14
HETATM   14  C   UNL     1     -10.140   8.503  69.171  1.00  0.00    -0.203 C  
BRANCH  14  15
HETATM   15  C   UNL     1      -9.416   9.845  68.970  1.00  0.00    -0.185 C  
BRANCH  15  16
HETATM   16  C   UNL     1     -10.097  10.789  67.994  1.00  0.00    -0.198 A  
HETATM   17  C   UNL     1     -10.972  11.794  68.432  1.00  0.00    -0.274 A  
HETATM   18  C   UNL     1     -11.635  12.618  67.521  1.00  0.00    -0.418 A  
HETATM   19  C   UNL     1     -11.385  12.498  66.154  1.00  0.00    -0.343 A  
HETATM   20  C   UNL     1     -10.482  11.534  65.696  1.00  0.00    -0.317 A  
HETATM   21  C   UNL     1      -9.839  10.690  66.615  1.00  0.00    -0.245 A  
BRANCH  19  22
HETATM   22  S   UNL     1     -12.346  13.461  65.001  1.00  0.00    -0.438 S  
HETATM   23  O   UNL     1     -12.718  12.580  63.912  1.00  0.00    -0.679 OA 
HETATM   24  O   UNL     1     -13.363  14.184  65.732  1.00  0.00    -0.503 OA 
BRANCH  22  25
HETATM   25  N   UNL     1     -11.263  14.545  64.330  1.00  0.00    -0.613 N  
HETATM   26  H   UNL     1     -10.667  14.223  63.567  1.00  0.00     0.000 HD 
BRANCH  25  27
HETATM   27  C   UNL     1     -11.132  15.853  64.754  1.00  0.00    -0.384 C  
HETATM   28  O   UNL     1     -11.436  16.806  64.053  1.00  0.00    -1.198 OA 
BRANCH  27  29
HETATM   29  N   UNL     1     -10.638  16.003  66.028  1.00  0.00    -0.328 N  
HETATM   30  H   UNL     1     -11.261  15.993  66.834  1.00  0.00     0.000 HD 
BRANCH  29  31
HETATM   31  C   UNL     1      -9.197  16.177  66.198  1.00  0.00    -0.347 C  
HETATM   32  C   UNL     1      -8.827  17.500  66.879  1.00  0.00    -0.267 C  
HETATM   33  C   UNL     1      -8.862  17.471  68.406  1.00  0.00    -0.276 C  
HETATM   34  C   UNL     1      -8.147  16.258  69.010  1.00  0.00    -0.236 C  
HETATM   35  C   UNL     1      -8.702  14.969  68.393  1.00  0.00    -0.175 C  
HETATM   36  C   UNL     1      -6.623  16.349  68.867  1.00  0.00    -0.165 C  
HETATM   37  C   UNL     1      -8.568  14.948  66.872  1.00  0.00    -0.269 C  
ENDBRANCH  29  31
ENDBRANCH  27  29
ENDBRANCH  25  27
ENDBRANCH  22  25
ENDBRANCH  19  22
ENDBRANCH  15  16
ENDBRANCH  14  15
ENDBRANCH  12  14
ENDBRANCH  10  12
ENDBRANCH   7  10
ENDBRANCH   2   3
TORSDOF 11
ENDMDL
MODEL       10
REMARK 921   NORMALIZED FREE ENERGY PREDICTED BY IDOCK:   -6.99 KCAL/MOL
REMARK 922        TOTAL FREE ENERGY PREDICTED BY IDOCK:  -13.79 KCAL/MOL
REMARK 923 INTER-LIGAND FREE ENERGY PREDICTED BY IDOCK:  -11.92 KCAL/MOL
REMARK 924 INTRA-LIGAND FREE ENERGY PREDICTED BY IDOCK:   -1.87 KCAL/MOL
REMARK 927      BINDING AFFINITY PREDICTED BY RF-SCORE:    0.00 PKD
ROOT
HETATM    1  C   UNL     1     -10.088   3.492  73.053  1.00  0.00    -0.219 C  
HETATM    2  C   UNL     1      -9.339   4.701  72.513  1.00  0.00    -0.157 C  
ENDROOT
BRANCH   2   3
HETATM    3  C   UNL     1     -10.212   5.554  71.663  1.00  0.00    -0.265 C  
HETATM    4  C   UNL     1     -10.487   5.511  70.351  1.00  0.00    -0.356 C  
HETATM    5  C   UNL     1     -11.430   6.592  69.934  1.00  0.00    -0.354 C  
HETATM    6  C   UNL     1     -10.006   4.516  69.354  1.00  0.00    -0.212 C  
HETATM    7  N   UNL     1     -11.744   7.221  71.187  1.00  0.00    -0.290 N  
HETATM    8  O   UNL     1     -10.934   7.050  73.384  1.00  0.00    -0.304 OA 
HETATM    9  C   UNL     1     -10.987   6.682  72.221  1.00  0.00    -0.246 C  
BRANCH   7  10
HETATM   10  C   UNL     1     -12.827   8.075  71.294  1.00  0.00    -0.199 C  
HETATM   11  O   UNL     1     -13.844   7.775  71.915  1.00  0.00    -0.338 OA 
BRANCH  10  12
HETATM   12  N   UNL     1     -12.663   9.296  70.690  1.00  0.00    -0.495 N  
HETATM   13  H   UNL     1     -13.348   9.589  69.993  1.00  0.00     0.000 HD 
BRANCH  12  14
HETATM   14  C   UNL     1     -11.563  10.189  70.995  1.00  0.00    -0.376 C  
BRANCH  14  15
HETATM   15  C   UNL     1     -10.509  10.252  69.876  1.00  0.00    -0.304 C  
BRANCH  15  16
HETATM   16  C   UNL     1     -10.927  11.063  68.661  1.00  0.00    -0.271 A  
HETATM   17  C   UNL     1     -11.619  12.276  68.790  1.00  0.00    -0.380 A  
HETATM   18  C   UNL     1     -12.047  12.983  67.666  1.00  0.00    -0.262 A  
HETATM   19  C   UNL     1     -11.734  12.525  66.386  1.00  0.00    -0.397 A  
HETATM   20  C   UNL     1     -11.006  11.342  66.233  1.00  0.00    -0.303 A  
HETATM   21  C   UNL     1     -10.601  10.621  67.367  1.00  0.00    -0.304 A  
BRANCH  19  22
HETATM   22  S   UNL     1     -12.410  13.365  64.966  1.00  0.00    -0.438 S  
HETATM   23  O   UNL     1     -12.576  12.375  63.921  1.00  0.00    -0.614 OA 
HETATM   24  O   UNL     1     -13.535  14.169  65.392  1.00  0.00    -0.648 OA 
BRANCH  22  25
HETATM   25  N   UNL     1     -11.182  14.364  64.425  1.00  0.00    -0.606 N  
HETATM   26  H   UNL     1     -10.437  13.952  63.863  1.00  0.00     0.000 HD 
BRANCH  25  27
HETATM   27  C   UNL     1     -11.124  15.716  64.699  1.00  0.00    -0.373 C  
HETATM   28  O   UNL     1     -11.491  16.566  63.902  1.00  0.00    -1.145 OA 
BRANCH  27  29
HETATM   29  N   UNL     1     -10.623  16.036  65.939  1.00  0.00    -0.335 N  
HETATM   30  H   UNL     1     -11.248  16.229  66.720  1.00  0.00     0.000 HD 
BRANCH  29  31
HETATM   31  C   UNL     1      -9.173  16.091  66.110  1.00  0.00    -0.352 C  
HETATM   32  C   UNL     1      -8.682  17.436  66.659  1.00  0.00    -0.286 C  
HETATM   33  C   UNL     1      -8.726  17.564  68.181  1.00  0.00    -0.262 C  
HETATM   34  C   UNL     1      -8.130  16.356  68.913  1.00  0.00    -0.236 C  
HETATM   35  C   UNL     1      -8.801  15.070  68.420  1.00  0.00    -0.178 C  
HETATM   36  C   UNL     1      -6.603  16.290  68.781  1.00  0.00    -0.136 C  
HETATM   37  C   UNL     1      -8.664  14.883  66.911  1.00  0.00    -0.276 C  
ENDBRANCH  29  31
ENDBRANCH  27  29
ENDBRANCH  25  27
ENDBRANCH  22  25
ENDBRANCH  19  22
ENDBRANCH  15  16
ENDBRANCH  14  15
ENDBRANCH  12  14
ENDBRANCH  10  12
ENDBRANCH   7  10
ENDBRANCH   2   3
TORSDOF 11
ENDMDL
MODEL       11
REMARK 921   NORMALIZED FREE ENERGY PREDICTED BY IDOCK:   -6.94 KCAL/MOL
REMARK 922        TOTAL FREE ENERGY PREDICTED BY IDOCK:  -13.72 KCAL/MOL
REMARK 923 INTER-LIGAND FREE ENERGY PREDICTED BY IDOCK:  -12.69 KCAL/MOL
REMARK 924 INTRA-LIGAND FREE ENERGY PREDICTED BY IDOCK:   -1.03 KCAL/MOL
REMARK 927      BINDING AFFINITY PREDICTED BY RF-SCORE:    0.00 PKD
ROOT
HETATM    1  C   UNL     1     -14.363   7.614  71.511  1.00  0.00    -0.589 C  
HETATM    2  C   UNL     1     -13.614   8.646  72.341  1.00  0.00    -0.392 C  
ENDROOT
BRANCH   2   3
HETATM    3  C   UNL     1     -12.469   9.228  71.591  1.00  0.00    -0.448 C  
HETATM    4  C   UNL     1     -12.247  10.469  71.132  1.00  0.00    -0.496 C  
HETATM    5  C   UNL     1     -10.938  10.585  70.421  1.00  0.00    -0.178 C  
HETATM    6  C   UNL     1     -13.111  11.668  71.304  1.00  0.00    -0.254 C  
HETATM    7  N   UNL     1     -10.378   9.273  70.600  1.00  0.00    -0.241 N  
HETATM    8  O   UNL     1     -11.168   7.226  71.433  1.00  0.00    -0.242 OA 
HETATM    9  C   UNL     1     -11.285   8.423  71.222  1.00  0.00    -0.259 C  
BRANCH   7  10
HETATM   10  C   UNL     1      -9.035   9.044  70.363  1.00  0.00    -0.205 C  
HETATM   11  O   UNL     1      -8.170   9.264  71.208  1.00  0.00    -0.324 OA 
BRANCH  10  12
HETATM   12  N   UNL     1      -8.747   8.515  69.131  1.00  0.00    -0.133 N  
HETATM   13  H   UNL     1      -7.767   8.419  68.860  1.00  0.00     0.000 HD 
BRANCH  12  14
HETATM   14  C   UNL     1      -9.767   8.086  68.195  1.00  0.00    -0.160 C  
BRANCH  14  15
HETATM   15  C   UNL     1      -9.412   8.396  66.730  1.00  0.00    -0.255 C  
BRANCH  15  16
HETATM   16  C   UNL     1     -10.003   9.692  66.201  1.00  0.00    -0.346 A  
HETATM   17  C   UNL     1     -10.730  10.560  67.028  1.00  0.00    -0.310 A  
HETATM   18  C   UNL     1     -11.316  11.720  66.516  1.00  0.00    -0.370 A  
HETATM   19  C   UNL     1     -11.128  12.071  65.179  1.00  0.00    -0.318 A  
HETATM   20  C   UNL     1     -10.368  11.244  64.346  1.00  0.00    -0.388 A  
HETATM   21  C   UNL     1      -9.804  10.066  64.860  1.00  0.00    -0.352 A  
BRANCH  19  22
HETATM   22  S   UNL     1     -11.999  13.477  64.513  1.00  0.00    -0.428 S  
HETATM   23  O   UNL     1     -12.348  13.155  63.144  1.00  0.00    -0.677 OA 
HETATM   24  O   UNL     1     -13.025  13.877  65.451  1.00  0.00    -0.722 OA 
BRANCH  22  25
HETATM   25  N   UNL     1     -10.848  14.685  64.394  1.00  0.00    -0.600 N  
HETATM   26  H   UNL     1      -9.927  14.441  64.029  1.00  0.00     0.000 HD 
BRANCH  25  27
HETATM   27  C   UNL     1     -11.079  15.996  64.763  1.00  0.00    -0.365 C  
HETATM   28  O   UNL     1     -11.689  16.782  64.055  1.00  0.00    -1.120 OA 
BRANCH  27  29
HETATM   29  N   UNL     1     -10.572  16.350  65.991  1.00  0.00    -0.302 N  
HETATM   30  H   UNL     1     -10.715  15.754  66.806  1.00  0.00     0.000 HD 
BRANCH  29  31
HETATM   31  C   UNL     1      -9.823  17.600  66.100  1.00  0.00    -0.242 C  
HETATM   32  C   UNL     1     -10.497  18.626  67.019  1.00  0.00    -0.453 C  
HETATM   33  C   UNL     1     -10.178  18.469  68.504  1.00  0.00    -0.389 C  
HETATM   34  C   UNL     1      -8.683  18.287  68.791  1.00  0.00    -0.238 C  
HETATM   35  C   UNL     1      -8.132  17.127  67.954  1.00  0.00    -0.201 C  
HETATM   36  C   UNL     1      -7.886  19.578  68.571  1.00  0.00    -0.382 C  
HETATM   37  C   UNL     1      -8.353  17.334  66.458  1.00  0.00    -0.312 C  
ENDBRANCH  29  31
ENDBRANCH  27  29
ENDBRANCH  25  27
ENDBRANCH  22  25
ENDBRANCH  19  22
ENDBRANCH  15  16
ENDBRANCH  14  15
ENDBRANCH  12  14
ENDBRANCH  10  12
ENDBRANCH   7  10
ENDBRANCH   2   3
TORSDOF 11
ENDMDL
MODEL       12
REMARK 921   NORMALIZED FREE ENERGY PREDICTED BY IDOCK:   -6.94 KCAL/MOL
REMARK 922        TOTAL FREE ENERGY PREDICTED BY IDOCK:  -13.70 KCAL/MOL
REMARK 923 INTER-LIGAND FREE ENERGY PREDICTED BY IDOCK:  -12.21 KCAL/MOL
REMARK 924 INTRA-LIGAND FREE ENERGY PREDICTED BY IDOCK:   -1.50 KCAL/MOL
REMARK 927      BINDING AFFINITY PREDICTED BY RF-SCORE:    0.00 PKD
ROOT
HETATM    1  C   UNL     1      -7.839   6.001  70.346  1.00  0.00    -0.106 C  
HETATM    2  C   UNL     1      -9.046   5.135  70.677  1.00  0.00    -0.178 C  
ENDROOT
BRANCH   2   3
HETATM    3  C   UNL     1     -10.101   5.909  71.384  1.00  0.00    -0.245 C  
HETATM    4  C   UNL     1     -10.226   6.268  72.670  1.00  0.00    -0.203 C  
HETATM    5  C   UNL     1     -11.476   7.048  72.922  1.00  0.00    -0.123 C  
HETATM    6  C   UNL     1      -9.268   6.017  73.780  1.00  0.00    -0.128 C  
HETATM    7  N   UNL     1     -12.024   7.177  71.600  1.00  0.00    -0.300 N  
HETATM    8  O   UNL     1     -11.521   6.272  69.494  1.00  0.00    -0.428 OA 
HETATM    9  C   UNL     1     -11.278   6.455  70.676  1.00  0.00    -0.339 C  
BRANCH   7  10
HETATM   10  C   UNL     1     -13.022   8.099  71.340  1.00  0.00    -0.242 C  
HETATM   11  O   UNL     1     -14.164   7.975  71.778  1.00  0.00    -0.404 OA 
BRANCH  10  12
HETATM   12  N   UNL     1     -12.631   9.180  70.592  1.00  0.00    -0.484 N  
HETATM   13  H   UNL     1     -13.129   9.376  69.723  1.00  0.00     0.000 HD 
BRANCH  12  14
HETATM   14  C   UNL     1     -11.544  10.058  70.977  1.00  0.00    -0.393 C  
BRANCH  14  15
HETATM   15  C   UNL     1     -10.410  10.107  69.939  1.00  0.00    -0.308 C  
BRANCH  15  16
HETATM   16  C   UNL     1     -10.746  10.880  68.675  1.00  0.00    -0.238 A  
HETATM   17  C   UNL     1     -11.381  12.129  68.725  1.00  0.00    -0.339 A  
HETATM   18  C   UNL     1     -11.736  12.804  67.556  1.00  0.00    -0.422 A  
HETATM   19  C   UNL     1     -11.401  12.274  66.310  1.00  0.00    -0.345 A  
HETATM   20  C   UNL     1     -10.727  11.052  66.236  1.00  0.00    -0.273 A  
HETATM   21  C   UNL     1     -10.396  10.365  67.414  1.00  0.00    -0.275 A  
BRANCH  19  22
HETATM   22  S   UNL     1     -11.986  13.079  64.830  1.00  0.00    -0.425 S  
HETATM   23  O   UNL     1     -11.843  12.132  63.742  1.00  0.00    -0.421 OA 
HETATM   24  O   UNL     1     -13.271  13.682  65.105  1.00  0.00    -0.739 OA 
BRANCH  22  25
HETATM   25  N   UNL     1     -10.862  14.276  64.513  1.00  0.00    -0.603 N  
HETATM   26  H   UNL     1      -9.961  14.002  64.121  1.00  0.00     0.000 HD 
BRANCH  25  27
HETATM   27  C   UNL     1     -11.089  15.617  64.753  1.00  0.00    -0.412 C  
HETATM   28  O   UNL     1     -11.512  16.378  63.896  1.00  0.00    -1.063 OA 
BRANCH  27  29
HETATM   29  N   UNL     1     -10.807  16.033  66.033  1.00  0.00    -0.245 N  
HETATM   30  H   UNL     1     -11.344  15.684  66.825  1.00  0.00     0.000 HD 
BRANCH  29  31
HETATM   31  C   UNL     1      -9.719  16.988  66.229  1.00  0.00    -0.283 C  
HETATM   32  C   UNL     1     -10.172  18.449  66.116  1.00  0.00    -0.408 C  
HETATM   33  C   UNL     1     -10.742  19.047  67.401  1.00  0.00    -0.559 C  
HETATM   34  C   UNL     1      -9.878  18.774  68.637  1.00  0.00    -0.441 C  
HETATM   35  C   UNL     1      -9.617  17.270  68.765  1.00  0.00    -0.269 C  
HETATM   36  C   UNL     1      -8.573  19.580  68.626  1.00  0.00    -0.365 C  
HETATM   37  C   UNL     1      -8.947  16.688  67.523  1.00  0.00    -0.204 C  
ENDBRANCH  29  31
ENDBRANCH  27  29
ENDBRANCH  25  27
ENDBRANCH  22  25
ENDBRANCH  19  22
ENDBRANCH  15  16
ENDBRANCH  14  15
ENDBRANCH  12  14
ENDBRANCH  10  12
ENDBRANCH   7  10
ENDBRANCH   2   3
TORSDOF 11
ENDMDL
MODEL       13
REMARK 921   NORMALIZED FREE ENERGY PREDICTED BY IDOCK:   -6.91 KCAL/MOL
REMARK 922        TOTAL FREE ENERGY PREDICTED BY IDOCK:  -13.66 KCAL/MOL
REMARK 923 INTER-LIGAND FREE ENERGY PREDICTED BY IDOCK:  -12.71 KCAL/MOL
REMARK 924 INTRA-LIGAND FREE ENERGY PREDICTED BY IDOCK:   -0.95 KCAL/MOL
REMARK 927      BINDING AFFINITY PREDICTED BY RF-SCORE:    0.00 PKD
ROOT
HETATM    1  C   UNL     1      -9.011   7.623  73.902  1.00  0.00    -0.321 C  
HETATM    2  C   UNL     1     -10.371   6.944  73.835  1.00  0.00    -0.398 C  
ENDROOT
BRANCH   2   3
HETATM    3  C   UNL     1     -10.895   6.897  72.444  1.00  0.00    -0.267 C  
HETATM    4  C   UNL     1     -11.839   7.622  71.826  1.00  0.00    -0.324 C  
HETATM    5  C   UNL     1     -12.032   7.207  70.403  1.00  0.00    -0.145 C  
HETATM    6  C   UNL     1     -12.619   8.760  72.383  1.00  0.00    -0.430 C  
HETATM    7  N   UNL     1     -11.017   6.202  70.240  1.00  0.00    -0.320 N  
HETATM    8  O   UNL     1      -9.537   5.083  71.676  1.00  0.00    -0.147 OA 
HETATM    9  C   UNL     1     -10.374   5.941  71.444  1.00  0.00    -0.218 C  
BRANCH   7  10
HETATM   10  C   UNL     1     -10.645   5.778  68.977  1.00  0.00    -0.281 C  
HETATM   11  O   UNL     1      -9.852   4.856  68.799  1.00  0.00    -0.159 OA 
BRANCH  10  12
HETATM   12  N   UNL     1     -11.260   6.435  67.941  1.00  0.00    -0.573 N  
HETATM   13  H   UNL     1     -12.273   6.358  67.850  1.00  0.00     0.000 HD 
BRANCH  12  14
HETATM   14  C   UNL     1     -10.537   7.232  66.971  1.00  0.00    -0.344 C  
BRANCH  14  15
HETATM   15  C   UNL     1     -10.019   8.562  67.546  1.00  0.00    -0.258 C  
BRANCH  15  16
HETATM   16  C   UNL     1     -10.522   9.800  66.822  1.00  0.00    -0.259 A  
HETATM   17  C   UNL     1     -11.245  10.799  67.491  1.00  0.00    -0.346 A  
HETATM   18  C   UNL     1     -11.750  11.903  66.803  1.00  0.00    -0.281 A  
HETATM   19  C   UNL     1     -11.483  12.067  65.443  1.00  0.00    -0.305 A  
HETATM   20  C   UNL     1     -10.725  11.107  64.766  1.00  0.00    -0.334 A  
HETATM   21  C   UNL     1     -10.243   9.985  65.457  1.00  0.00    -0.248 A  
BRANCH  19  22
HETATM   22  S   UNL     1     -12.253  13.408  64.556  1.00  0.00    -0.388 S  
HETATM   23  O   UNL     1     -12.561  12.920  63.226  1.00  0.00    -0.685 OA 
HETATM   24  O   UNL     1     -13.296  13.976  65.382  1.00  0.00    -0.721 OA 
BRANCH  22  25
HETATM   25  N   UNL     1     -11.039  14.536  64.332  1.00  0.00    -0.621 N  
HETATM   26  H   UNL     1     -10.151  14.220  63.942  1.00  0.00     0.000 HD 
BRANCH  25  27
HETATM   27  C   UNL     1     -11.175  15.874  64.647  1.00  0.00    -0.351 C  
HETATM   28  O   UNL     1     -11.613  16.696  63.858  1.00  0.00    -1.204 OA 
BRANCH  27  29
HETATM   29  N   UNL     1     -10.783  16.212  65.921  1.00  0.00    -0.292 N  
HETATM   30  H   UNL     1     -11.237  15.797  66.734  1.00  0.00     0.000 HD 
BRANCH  29  31
HETATM   31  C   UNL     1      -9.700  17.180  66.082  1.00  0.00    -0.242 C  
HETATM   32  C   UNL     1     -10.199  18.623  66.223  1.00  0.00    -0.462 C  
HETATM   33  C   UNL     1     -10.588  19.034  67.642  1.00  0.00    -0.526 C  
HETATM   34  C   UNL     1      -9.546  18.647  68.697  1.00  0.00    -0.407 C  
HETATM   35  C   UNL     1      -9.235  17.150  68.592  1.00  0.00    -0.263 C  
HETATM   36  C   UNL     1      -8.276  19.501  68.603  1.00  0.00    -0.369 C  
HETATM   37  C   UNL     1      -8.740  16.754  67.203  1.00  0.00    -0.218 C  
ENDBRANCH  29  31
ENDBRANCH  27  29
ENDBRANCH  25  27
ENDBRANCH  22  25
ENDBRANCH  19  22
ENDBRANCH  15  16
ENDBRANCH  14  15
ENDBRANCH  12  14
ENDBRANCH  10  12
ENDBRANCH   7  10
ENDBRANCH   2   3
TORSDOF 11
ENDMDL
MODEL       14
REMARK 921   NORMALIZED FREE ENERGY PREDICTED BY IDOCK:   -6.89 KCAL/MOL
REMARK 922        TOTAL FREE ENERGY PREDICTED BY IDOCK:  -13.64 KCAL/MOL
REMARK 923 INTER-LIGAND FREE ENERGY PREDICTED BY IDOCK:  -10.82 KCAL/MOL
REMARK 924 INTRA-LIGAND FREE ENERGY PREDICTED BY IDOCK:   -2.81 KCAL/MOL
REMARK 927      BINDING AFFINITY PREDICTED BY RF-SCORE:    0.00 PKD
ROOT
HETATM    1  C   UNL     1      -9.692   9.030  71.049  1.00  0.00    -0.348 C  
HETATM    2  C   UNL     1     -10.977   9.138  70.241  1.00  0.00    -0.279 C  
ENDROOT
BRANCH   2   3
HETATM    3  C   UNL     1     -11.838  10.250  70.725  1.00  0.00    -0.459 C  
HETATM    4  C   UNL     1     -12.797  10.286  71.662  1.00  0.00    -0.568 C  
HETATM    5  C   UNL     1     -13.403  11.645  71.802  1.00  0.00    -0.237 C  
HETATM    6  C   UNL     1     -13.242   9.176  72.548  1.00  0.00    -0.464 C  
HETATM    7  N   UNL     1     -12.614  12.424  70.888  1.00  0.00    -0.310 N  
HETATM    8  O   UNL     1     -10.989  11.943  69.264  1.00  0.00    -0.220 OA 
HETATM    9  C   UNL     1     -11.729  11.619  70.180  1.00  0.00    -0.296 C  
BRANCH   7  10
HETATM   10  C   UNL     1     -12.639  13.806  70.939  1.00  0.00    -0.356 C  
HETATM   11  O   UNL     1     -13.680  14.440  71.098  1.00  0.00    -0.345 OA 
BRANCH  10  12
HETATM   12  N   UNL     1     -11.413  14.412  70.841  1.00  0.00    -0.518 N  
HETATM   13  H   UNL     1     -10.599  13.925  71.219  1.00  0.00     0.000 HD 
BRANCH  12  14
HETATM   14  C   UNL     1     -11.217  15.709  70.225  1.00  0.00    -0.344 C  
BRANCH  14  15
HETATM   15  C   UNL     1     -10.124  15.706  69.143  1.00  0.00    -0.237 C  
BRANCH  15  16
HETATM   16  C   UNL     1     -10.541  15.070  67.828  1.00  0.00    -0.264 A  
HETATM   17  C   UNL     1     -11.874  14.717  67.573  1.00  0.00    -0.375 A  
HETATM   18  C   UNL     1     -12.235  14.081  66.383  1.00  0.00    -0.492 A  
HETATM   19  C   UNL     1     -11.280  13.846  65.394  1.00  0.00    -0.306 A  
HETATM   20  C   UNL     1      -9.954  14.232  65.607  1.00  0.00    -0.346 A  
HETATM   21  C   UNL     1      -9.591  14.846  66.815  1.00  0.00    -0.265 A  
BRANCH  19  22
HETATM   22  S   UNL     1     -11.733  12.910  63.946  1.00  0.00    -0.493 S  
HETATM   23  O   UNL     1     -12.278  11.648  64.405  1.00  0.00    -0.121 OA 
HETATM   24  O   UNL     1     -12.504  13.758  63.064  1.00  0.00    -0.712 OA 
BRANCH  22  25
HETATM   25  N   UNL     1     -10.283  12.513  63.213  1.00  0.00    -0.366 N  
HETATM   26  H   UNL     1      -9.812  13.227  62.655  1.00  0.00     0.000 HD 
BRANCH  25  27
HETATM   27  C   UNL     1      -9.688  11.272  63.322  1.00  0.00    -0.382 C  
HETATM   28  O   UNL     1      -9.654  10.473  62.399  1.00  0.00    -0.247 OA 
BRANCH  27  29
HETATM   29  N   UNL     1      -9.131  11.003  64.551  1.00  0.00    -0.329 N  
HETATM   30  H   UNL     1      -8.462  11.646  64.973  1.00  0.00     0.000 HD 
BRANCH  29  31
HETATM   31  C   UNL     1      -9.521   9.772  65.236  1.00  0.00    -0.279 C  
HETATM   32  C   UNL     1      -8.531   8.621  65.015  1.00  0.00    -0.192 C  
HETATM   33  C   UNL     1      -7.337   8.607  65.967  1.00  0.00    -0.085 C  
HETATM   34  C   UNL     1      -7.726   8.799  67.437  1.00  0.00    -0.097 C  
HETATM   35  C   UNL     1      -8.571  10.068  67.588  1.00  0.00    -0.118 C  
HETATM   36  C   UNL     1      -8.434   7.569  68.018  1.00  0.00    -0.123 C  
HETATM   37  C   UNL     1      -9.826  10.038  66.718  1.00  0.00    -0.251 C  
ENDBRANCH  29  31
ENDBRANCH  27  29
ENDBRANCH  25  27
ENDBRANCH  22  25
ENDBRANCH  19  22
ENDBRANCH  15  16
ENDBRANCH  14  15
ENDBRANCH  12  14
ENDBRANCH  10  12
ENDBRANCH   7  10
ENDBRANCH   2   3
TORSDOF 11
ENDMDL
MODEL       15
REMARK 921   NORMALIZED FREE ENERGY PREDICTED BY IDOCK:   -6.87 KCAL/MOL
REMARK 922        TOTAL FREE ENERGY PREDICTED BY IDOCK:  -13.60 KCAL/MOL
REMARK 923 INTER-LIGAND FREE ENERGY PREDICTED BY IDOCK:  -10.82 KCAL/MOL
REMARK 924 INTRA-LIGAND FREE ENERGY PREDICTED BY IDOCK:   -2.78 KCAL/MOL
REMARK 927      BINDING AFFINITY PREDICTED BY RF-SCORE:    0.00 PKD
ROOT
HETATM    1  C   UNL     1      -9.737   8.625  66.328  1.00  0.00    -0.322 C  
HETATM    2  C   UNL     1      -8.936   7.335  66.423  1.00  0.00    -0.184 C  
ENDROOT
BRANCH   2   3
HETATM    3  C   UNL     1      -8.871   6.830  67.821  1.00  0.00    -0.118 C  
HETATM    4  C   UNL     1      -7.866   6.802  68.708  1.00  0.00    -0.111 C  
HETATM    5  C   UNL     1      -8.273   6.185  70.007  1.00  0.00    -0.124 C  
HETATM    6  C   UNL     1      -6.490   7.341  68.537  1.00  0.00    -0.040 C  
HETATM    7  N   UNL     1      -9.673   5.936  69.799  1.00  0.00    -0.155 N  
HETATM    8  O   UNL     1     -11.128   6.050  67.961  1.00  0.00    -0.304 OA 
HETATM    9  C   UNL     1     -10.046   6.236  68.494  1.00  0.00    -0.157 C  
BRANCH   7  10
HETATM   10  C   UNL     1     -10.503   5.656  70.869  1.00  0.00    -0.256 C  
HETATM   11  O   UNL     1     -10.277   4.739  71.656  1.00  0.00    -0.194 OA 
BRANCH  10  12
HETATM   12  N   UNL     1     -11.573   6.503  71.009  1.00  0.00    -0.335 N  
HETATM   13  H   UNL     1     -12.281   6.517  70.274  1.00  0.00     0.000 HD 
BRANCH  12  14
HETATM   14  C   UNL     1     -11.746   7.378  72.150  1.00  0.00    -0.290 C  
BRANCH  14  15
HETATM   15  C   UNL     1     -10.681   8.486  72.228  1.00  0.00    -0.411 C  
BRANCH  15  16
HETATM   16  C   UNL     1     -10.689   9.451  71.054  1.00  0.00    -0.407 A  
HETATM   17  C   UNL     1      -9.536   9.690  70.291  1.00  0.00    -0.307 A  
HETATM   18  C   UNL     1      -9.542  10.621  69.252  1.00  0.00    -0.164 A  
HETATM   19  C   UNL     1     -10.720  11.284  68.908  1.00  0.00    -0.207 A  
HETATM   20  C   UNL     1     -11.893  11.028  69.625  1.00  0.00    -0.414 A  
HETATM   21  C   UNL     1     -11.875  10.111  70.687  1.00  0.00    -0.431 A  
BRANCH  19  22
HETATM   22  S   UNL     1     -10.673  12.569  67.673  1.00  0.00    -0.223 S  
HETATM   23  O   UNL     1      -9.428  12.420  66.947  1.00  0.00    -0.207 OA 
HETATM   24  O   UNL     1     -11.933  12.579  66.962  1.00  0.00    -0.498 OA 
BRANCH  22  25
HETATM   25  N   UNL     1     -10.505  13.994  68.533  1.00  0.00    -0.245 N  
HETATM   26  H   UNL     1      -9.600  14.197  68.960  1.00  0.00     0.000 HD 
BRANCH  25  27
HETATM   27  C   UNL     1     -11.524  14.911  68.695  1.00  0.00    -0.306 C  
HETATM   28  O   UNL     1     -11.560  15.971  68.090  1.00  0.00    -0.308 OA 
BRANCH  27  29
HETATM   29  N   UNL     1     -12.501  14.539  69.589  1.00  0.00    -0.540 N  
HETATM   30  H   UNL     1     -13.478  14.490  69.303  1.00  0.00     0.000 HD 
BRANCH  29  31
HETATM   31  C   UNL     1     -12.105  14.217  70.958  1.00  0.00    -0.344 C  
HETATM   32  C   UNL     1     -11.167  15.263  71.575  1.00  0.00    -0.369 C  
HETATM   33  C   UNL     1     -11.869  16.462  72.209  1.00  0.00    -0.531 C  
HETATM   34  C   UNL     1     -13.032  16.073  73.128  1.00  0.00    -0.627 C  
HETATM   35  C   UNL     1     -14.008  15.165  72.373  1.00  0.00    -0.616 C  
HETATM   36  C   UNL     1     -12.552  15.432  74.436  1.00  0.00    -0.579 C  
HETATM   37  C   UNL     1     -13.331  13.908  71.830  1.00  0.00    -0.496 C  
ENDBRANCH  29  31
ENDBRANCH  27  29
ENDBRANCH  25  27
ENDBRANCH  22  25
ENDBRANCH  19  22
ENDBRANCH  15  16
ENDBRANCH  14  15
ENDBRANCH  12  14
ENDBRANCH  10  12
ENDBRANCH   7  10
ENDBRANCH   2   3
TORSDOF 11
ENDMDL
MODEL       16
REMARK 921   NORMALIZED FREE ENERGY PREDICTED BY IDOCK:   -6.87 KCAL/MOL
REMARK 922        TOTAL FREE ENERGY PREDICTED BY IDOCK:  -13.60 KCAL/MOL
REMARK 923 INTER-LIGAND FREE ENERGY PREDICTED BY IDOCK:  -11.38 KCAL/MOL
REMARK 924 INTRA-LIGAND FREE ENERGY PREDICTED BY IDOCK:   -2.21 KCAL/MOL
REMARK 927      BINDING AFFINITY PREDICTED BY RF-SCORE:    0.00 PKD
ROOT
HETATM    1  C   UNL     1     -10.432   8.457  66.959  1.00  0.00    -0.375 C  
HETATM    2  C   UNL     1      -9.396   7.660  67.737  1.00  0.00    -0.153 C  
ENDROOT
BRANCH   2   3
HETATM    3  C   UNL     1      -9.670   7.679  69.199  1.00  0.00    -0.164 C  
HETATM    4  C   UNL     1      -9.270   8.517  70.166  1.00  0.00    -0.159 C  
HETATM    5  C   UNL     1      -9.800   8.130  71.508  1.00  0.00    -0.179 C  
HETATM    6  C   UNL     1      -8.441   9.744  70.018  1.00  0.00    -0.229 C  
HETATM    7  N   UNL     1     -10.638   7.006  71.190  1.00  0.00    -0.216 N  
HETATM    8  O   UNL     1     -11.025   5.708  69.273  1.00  0.00    -0.304 OA 
HETATM    9  C   UNL     1     -10.529   6.665  69.847  1.00  0.00    -0.209 C  
BRANCH   7  10
HETATM   10  C   UNL     1     -11.564   6.538  72.105  1.00  0.00    -0.308 C  
HETATM   11  O   UNL     1     -11.605   5.362  72.458  1.00  0.00    -0.249 OA 
BRANCH  10  12
HETATM   12  N   UNL     1     -12.404   7.493  72.619  1.00  0.00    -0.534 N  
HETATM   13  H   UNL     1     -12.384   7.668  73.624  1.00  0.00     0.000 HD 
BRANCH  12  14
HETATM   14  C   UNL     1     -13.318   8.266  71.801  1.00  0.00    -0.352 C  
BRANCH  14  15
HETATM   15  C   UNL     1     -13.432   9.734  72.246  1.00  0.00    -0.443 C  
BRANCH  15  16
HETATM   16  C   UNL     1     -12.887  10.740  71.246  1.00  0.00    -0.540 A  
HETATM   17  C   UNL     1     -12.854  12.113  71.528  1.00  0.00    -0.394 A  
HETATM   18  C   UNL     1     -12.404  13.032  70.578  1.00  0.00    -0.365 A  
HETATM   19  C   UNL     1     -11.913  12.590  69.350  1.00  0.00    -0.256 A  
HETATM   20  C   UNL     1     -11.892  11.222  69.064  1.00  0.00    -0.421 A  
HETATM   21  C   UNL     1     -12.371  10.305  70.012  1.00  0.00    -0.158 A  
BRANCH  19  22
HETATM   22  S   UNL     1     -11.475  13.785  68.101  1.00  0.00    -0.334 S  
HETATM   23  O   UNL     1     -10.043  13.986  68.184  1.00  0.00    -0.231 OA 
HETATM   24  O   UNL     1     -12.084  13.394  66.849  1.00  0.00    -0.388 OA 
BRANCH  22  25
HETATM   25  N   UNL     1     -12.146  15.226  68.624  1.00  0.00    -0.585 N  
HETATM   26  H   UNL     1     -13.158  15.336  68.568  1.00  0.00     0.000 HD 
BRANCH  25  27
HETATM   27  C   UNL     1     -11.401  16.275  69.127  1.00  0.00    -0.291 C  
HETATM   28  O   UNL     1     -11.191  16.420  70.321  1.00  0.00    -0.367 OA 
BRANCH  27  29
HETATM   29  N   UNL     1     -10.910  17.143  68.181  1.00  0.00    -0.363 N  
HETATM   30  H   UNL     1     -11.184  17.058  67.202  1.00  0.00     0.000 HD 
BRANCH  29  31
HETATM   31  C   UNL     1      -9.987  18.191  68.611  1.00  0.00    -0.395 C  
HETATM   32  C   UNL     1      -8.518  17.851  68.332  1.00  0.00    -0.300 C  
HETATM   33  C   UNL     1      -8.034  18.197  66.925  1.00  0.00    -0.250 C  
HETATM   34  C   UNL     1      -8.426  19.608  66.474  1.00  0.00    -0.374 C  
HETATM   35  C   UNL     1      -9.938  19.800  66.629  1.00  0.00    -0.556 C  
HETATM   36  C   UNL     1      -7.634  20.696  67.210  1.00  0.00    -0.381 C  
HETATM   37  C   UNL     1     -10.411  19.561  68.061  1.00  0.00    -0.564 C  
ENDBRANCH  29  31
ENDBRANCH  27  29
ENDBRANCH  25  27
ENDBRANCH  22  25
ENDBRANCH  19  22
ENDBRANCH  15  16
ENDBRANCH  14  15
ENDBRANCH  12  14
ENDBRANCH  10  12
ENDBRANCH   7  10
ENDBRANCH   2   3
TORSDOF 11
ENDMDL
MODEL       17
REMARK 921   NORMALIZED FREE ENERGY PREDICTED BY IDOCK:   -6.86 KCAL/MOL
REMARK 922        TOTAL FREE ENERGY PREDICTED BY IDOCK:  -13.57 KCAL/MOL
REMARK 923 INTER-LIGAND FREE ENERGY PREDICTED BY IDOCK:  -12.21 KCAL/MOL
REMARK 924 INTRA-LIGAND FREE ENERGY PREDICTED BY IDOCK:   -1.36 KCAL/MOL
REMARK 927      BINDING AFFINITY PREDICTED BY RF-SCORE:    0.00 PKD
ROOT
HETATM    1  C   UNL     1     -10.803  19.152  67.161  1.00  0.00    -0.507 C  
HETATM    2  C   UNL     1      -9.852  18.279  66.355  1.00  0.00    -0.358 C  
ENDROOT
BRANCH   2   3
HETATM    3  C   UNL     1     -10.299  16.861  66.325  1.00  0.00    -0.312 C  
HETATM    4  C   UNL     1     -10.202  15.881  67.236  1.00  0.00    -0.278 C  
HETATM    5  C   UNL     1     -10.798  14.598  66.754  1.00  0.00    -0.312 C  
HETATM    6  C   UNL     1      -9.636  15.971  68.609  1.00  0.00    -0.222 C  
HETATM    7  N   UNL     1     -11.338  14.975  65.477  1.00  0.00    -0.338 N  
HETATM    8  O   UNL     1     -11.211  16.882  64.114  1.00  0.00    -1.176 OA 
HETATM    9  C   UNL     1     -10.999  16.285  65.158  1.00  0.00    -0.274 C  
BRANCH   7  10
HETATM   10  C   UNL     1     -12.250  14.160  64.830  1.00  0.00    -0.438 C  
HETATM   11  O   UNL     1     -13.397  14.000  65.241  1.00  0.00    -0.741 OA 
BRANCH  10  12
HETATM   12  N   UNL     1     -11.790  13.579  63.677  1.00  0.00    -0.705 N  
HETATM   13  H   UNL     1     -11.381  14.179  62.960  1.00  0.00     0.000 HD 
BRANCH  12  14
HETATM   14  C   UNL     1     -11.857  12.153  63.428  1.00  0.00    -0.461 C  
BRANCH  14  15
HETATM   15  C   UNL     1     -10.550  11.417  63.771  1.00  0.00    -0.464 C  
BRANCH  15  16
HETATM   16  C   UNL     1     -10.527  10.783  65.151  1.00  0.00    -0.299 A  
HETATM   17  C   UNL     1     -11.144  11.397  66.252  1.00  0.00    -0.281 A  
HETATM   18  C   UNL     1     -11.067  10.833  67.526  1.00  0.00    -0.374 A  
HETATM   19  C   UNL     1     -10.430   9.606  67.715  1.00  0.00    -0.256 A  
HETATM   20  C   UNL     1      -9.849   8.953  66.624  1.00  0.00    -0.332 A  
HETATM   21  C   UNL     1      -9.905   9.538  65.350  1.00  0.00    -0.248 A  
BRANCH  19  22
HETATM   22  S   UNL     1     -10.221   8.974  69.368  1.00  0.00    -0.209 S  
HETATM   23  O   UNL     1     -10.573   7.569  69.337  1.00  0.00    -0.226 OA 
HETATM   24  O   UNL     1      -8.928   9.389  69.867  1.00  0.00    -0.166 OA 
BRANCH  22  25
HETATM   25  N   UNL     1     -11.428   9.702  70.269  1.00  0.00    -0.327 N  
HETATM   26  H   UNL     1     -11.967  10.453  69.837  1.00  0.00     0.000 HD 
BRANCH  25  27
HETATM   27  C   UNL     1     -11.734   9.341  71.566  1.00  0.00    -0.380 C  
HETATM   28  O   UNL     1     -12.752   9.710  72.130  1.00  0.00    -0.378 OA 
BRANCH  27  29
HETATM   29  N   UNL     1     -10.806   8.531  72.177  1.00  0.00    -0.336 N  
HETATM   30  H   UNL     1      -9.808   8.712  72.075  1.00  0.00     0.000 HD 
BRANCH  29  31
HETATM   31  C   UNL     1     -11.284   7.403  72.974  1.00  0.00    -0.297 C  
HETATM   32  C   UNL     1     -11.841   6.257  72.121  1.00  0.00    -0.365 C  
HETATM   33  C   UNL     1     -10.795   5.269  71.608  1.00  0.00    -0.181 C  
HETATM   34  C   UNL     1      -9.816   4.800  72.690  1.00  0.00    -0.193 C  
HETATM   35  C   UNL     1      -9.179   6.014  73.374  1.00  0.00    -0.131 C  
HETATM   36  C   UNL     1     -10.475   3.855  73.702  1.00  0.00    -0.263 C  
HETATM   37  C   UNL     1     -10.220   6.950  73.984  1.00  0.00    -0.384 C  
ENDBRANCH  29  31
ENDBRANCH  27  29
ENDBRANCH  25  27
ENDBRANCH  22  25
ENDBRANCH  19  22
ENDBRANCH  15  16
ENDBRANCH  14  15
ENDBRANCH  12  14
ENDBRANCH  10  12
ENDBRANCH   7  10
ENDBRANCH   2   3
TORSDOF 11
ENDMDL
MODEL       18
REMARK 921   NORMALIZED FREE ENERGY PREDICTED BY IDOCK:   -6.82 KCAL/MOL
REMARK 922        TOTAL FREE ENERGY PREDICTED BY IDOCK:  -13.51 KCAL/MOL
REMARK 923 INTER-LIGAND FREE ENERGY PREDICTED BY IDOCK:  -11.89 KCAL/MOL
REMARK 924 INTRA-LIGAND FREE ENERGY PREDICTED BY IDOCK:   -1.62 KCAL/MOL
REMARK 927      BINDING AFFINITY PREDICTED BY RF-SCORE:    0.00 PKD
ROOT
HETATM    1  C   UNL     1     -12.657  15.603  74.129  1.00  0.00    -0.763 C  
HETATM    2  C   UNL     1     -13.205  15.879  72.737  1.00  0.00    -0.590 C  
ENDROOT
BRANCH   2   3
HETATM    3  C   UNL     1     -12.815  14.817  71.772  1.00  0.00    -0.396 C  
HETATM    4  C   UNL     1     -11.995  14.840  70.711  1.00  0.00    -0.371 C  
HETATM    5  C   UNL     1     -11.915  13.513  70.027  1.00  0.00    -0.340 C  
HETATM    6  C   UNL     1     -11.176  15.981  70.222  1.00  0.00    -0.397 C  
HETATM    7  N   UNL     1     -12.726  12.684  70.877  1.00  0.00    -0.246 N  
HETATM    8  O   UNL     1     -14.155  13.065  72.699  1.00  0.00    -0.643 OA 
HETATM    9  C   UNL     1     -13.333  13.436  71.876  1.00  0.00    -0.451 C  
BRANCH   7  10
HETATM   10  C   UNL     1     -12.667  11.306  70.778  1.00  0.00    -0.269 C  
HETATM   11  O   UNL     1     -12.478  10.730  69.708  1.00  0.00    -0.309 OA 
BRANCH  10  12
HETATM   12  N   UNL     1     -12.793  10.634  71.967  1.00  0.00    -0.374 N  
HETATM   13  H   UNL     1     -12.528  11.115  72.827  1.00  0.00     0.000 HD 
BRANCH  12  14
HETATM   14  C   UNL     1     -13.283   9.274  72.059  1.00  0.00    -0.447 C  
BRANCH  14  15
HETATM   15  C   UNL     1     -12.170   8.247  72.329  1.00  0.00    -0.428 C  
BRANCH  15  16
HETATM   16  C   UNL     1     -11.322   7.904  71.116  1.00  0.00    -0.289 A  
HETATM   17  C   UNL     1     -10.118   8.572  70.849  1.00  0.00    -0.246 A  
HETATM   18  C   UNL     1      -9.377   8.287  69.701  1.00  0.00    -0.158 A  
HETATM   19  C   UNL     1      -9.790   7.278  68.830  1.00  0.00    -0.161 A  
HETATM   20  C   UNL     1     -10.962   6.567  69.100  1.00  0.00    -0.380 A  
HETATM   21  C   UNL     1     -11.718   6.877  70.242  1.00  0.00    -0.344 A  
BRANCH  19  22
HETATM   22  S   UNL     1      -8.908   7.027  67.301  1.00  0.00    -0.120 S  
HETATM   23  O   UNL     1      -7.679   7.791  67.385  1.00  0.00    -0.108 OA 
HETATM   24  O   UNL     1      -8.865   5.609  67.015  1.00  0.00    -0.112 OA 
BRANCH  22  25
HETATM   25  N   UNL     1      -9.823   7.804  66.137  1.00  0.00    -0.460 N  
HETATM   26  H   UNL     1     -10.672   7.347  65.805  1.00  0.00     0.000 HD 
BRANCH  25  27
HETATM   27  C   UNL     1      -9.490   9.033  65.601  1.00  0.00    -0.203 C  
HETATM   28  O   UNL     1      -8.508   9.199  64.894  1.00  0.00    -0.155 OA 
BRANCH  27  29
HETATM   29  N   UNL     1     -10.349  10.057  65.922  1.00  0.00    -0.187 N  
HETATM   30  H   UNL     1     -11.112   9.911  66.582  1.00  0.00     0.000 HD 
BRANCH  29  31
HETATM   31  C   UNL     1     -10.143  11.361  65.294  1.00  0.00    -0.268 C  
HETATM   32  C   UNL     1     -10.948  11.540  64.002  1.00  0.00    -0.454 C  
HETATM   33  C   UNL     1     -12.385  12.020  64.200  1.00  0.00    -0.452 C  
HETATM   34  C   UNL     1     -12.504  13.209  65.159  1.00  0.00    -0.539 C  
HETATM   35  C   UNL     1     -11.817  12.874  66.487  1.00  0.00    -0.473 C  
HETATM   36  C   UNL     1     -11.963  14.508  64.549  1.00  0.00    -0.482 C  
HETATM   37  C   UNL     1     -10.348  12.499  66.304  1.00  0.00    -0.269 C  
ENDBRANCH  29  31
ENDBRANCH  27  29
ENDBRANCH  25  27
ENDBRANCH  22  25
ENDBRANCH  19  22
ENDBRANCH  15  16
ENDBRANCH  14  15
ENDBRANCH  12  14
ENDBRANCH  10  12
ENDBRANCH   7  10
ENDBRANCH   2   3
TORSDOF 11
ENDMDL
MODEL       19
REMARK 921   NORMALIZED FREE ENERGY PREDICTED BY IDOCK:   -6.80 KCAL/MOL
REMARK 922        TOTAL FREE ENERGY PREDICTED BY IDOCK:  -13.48 KCAL/MOL
REMARK 923 INTER-LIGAND FREE ENERGY PREDICTED BY IDOCK:  -11.82 KCAL/MOL
REMARK 924 INTRA-LIGAND FREE ENERGY PREDICTED BY IDOCK:   -1.66 KCAL/MOL
REMARK 927      BINDING AFFINITY PREDICTED BY RF-SCORE:    0.00 PKD
ROOT
HETATM    1  C   UNL     1     -10.005  18.451  67.153  1.00  0.00    -0.350 C  
HETATM    2  C   UNL     1      -9.168  17.626  66.187  1.00  0.00    -0.145 C  
ENDROOT
BRANCH   2   3
HETATM    3  C   UNL     1      -9.716  16.254  66.019  1.00  0.00    -0.370 C  
HETATM    4  C   UNL     1      -9.403  15.094  66.615  1.00  0.00    -0.291 C  
HETATM    5  C   UNL     1     -10.231  13.956  66.112  1.00  0.00    -0.301 C  
HETATM    6  C   UNL     1      -8.406  14.870  67.696  1.00  0.00    -0.178 C  
HETATM    7  N   UNL     1     -11.133  14.614  65.207  1.00  0.00    -0.340 N  
HETATM    8  O   UNL     1     -11.309  16.776  64.312  1.00  0.00    -1.170 OA 
HETATM    9  C   UNL     1     -10.811  15.959  65.070  1.00  0.00    -0.426 C  
BRANCH   7  10
HETATM   10  C   UNL     1     -12.272  13.970  64.759  1.00  0.00    -0.433 C  
HETATM   11  O   UNL     1     -13.328  13.985  65.389  1.00  0.00    -0.721 OA 
BRANCH  10  12
HETATM   12  N   UNL     1     -12.147  13.351  63.541  1.00  0.00    -0.828 N  
HETATM   13  H   UNL     1     -12.165  13.927  62.699  1.00  0.00     0.000 HD 
BRANCH  12  14
HETATM   14  C   UNL     1     -11.991  11.918  63.395  1.00  0.00    -0.425 C  
BRANCH  14  15
HETATM   15  C   UNL     1     -10.523  11.483  63.239  1.00  0.00    -0.421 C  
BRANCH  15  16
HETATM   16  C   UNL     1      -9.966  10.710  64.422  1.00  0.00    -0.415 A  
HETATM   17  C   UNL     1     -10.676  10.598  65.626  1.00  0.00    -0.104 A  
HETATM   18  C   UNL     1     -10.129   9.933  66.725  1.00  0.00    -0.292 A  
HETATM   19  C   UNL     1      -8.887   9.306  66.620  1.00  0.00    -0.128 A  
HETATM   20  C   UNL     1      -8.181   9.365  65.415  1.00  0.00    -0.126 A  
HETATM   21  C   UNL     1      -8.724  10.058  64.322  1.00  0.00    -0.222 A  
BRANCH  19  22
HETATM   22  S   UNL     1      -8.145   8.586  68.072  1.00  0.00    -0.116 S  
HETATM   23  O   UNL     1      -9.071   7.592  68.578  1.00  0.00    -0.135 OA 
HETATM   24  O   UNL     1      -6.780   8.220  67.766  1.00  0.00    -0.063 OA 
BRANCH  22  25
HETATM   25  N   UNL     1      -8.154   9.806  69.217  1.00  0.00    -0.104 N  
HETATM   26  H   UNL     1      -7.673  10.678  68.997  1.00  0.00     0.000 HD 
BRANCH  25  27
HETATM   27  C   UNL     1      -8.777   9.695  70.444  1.00  0.00    -0.166 C  
HETATM   28  O   UNL     1      -8.271   9.113  71.390  1.00  0.00    -0.316 OA 
BRANCH  27  29
HETATM   29  N   UNL     1     -10.013  10.294  70.522  1.00  0.00    -0.269 N  
HETATM   30  H   UNL     1     -10.102  11.274  70.786  1.00  0.00     0.000 HD 
BRANCH  29  31
HETATM   31  C   UNL     1     -11.195   9.490  70.219  1.00  0.00    -0.261 C  
HETATM   32  C   UNL     1     -11.292   8.217  71.069  1.00  0.00    -0.299 C  
HETATM   33  C   UNL     1     -11.943   8.405  72.437  1.00  0.00    -0.451 C  
HETATM   34  C   UNL     1     -13.252   9.201  72.387  1.00  0.00    -0.512 C  
HETATM   35  C   UNL     1     -13.019  10.535  71.669  1.00  0.00    -0.581 C  
HETATM   36  C   UNL     1     -14.396   8.402  71.750  1.00  0.00    -0.558 C  
HETATM   37  C   UNL     1     -12.470  10.347  70.257  1.00  0.00    -0.296 C  
ENDBRANCH  29  31
ENDBRANCH  27  29
ENDBRANCH  25  27
ENDBRANCH  22  25
ENDBRANCH  19  22
ENDBRANCH  15  16
ENDBRANCH  14  15
ENDBRANCH  12  14
ENDBRANCH  10  12
ENDBRANCH   7  10
ENDBRANCH   2   3
TORSDOF 11
ENDMDL
MODEL       20
REMARK 921   NORMALIZED FREE ENERGY PREDICTED BY IDOCK:   -6.79 KCAL/MOL
REMARK 922        TOTAL FREE ENERGY PREDICTED BY IDOCK:  -13.47 KCAL/MOL
REMARK 923 INTER-LIGAND FREE ENERGY PREDICTED BY IDOCK:  -11.54 KCAL/MOL
REMARK 924 INTRA-LIGAND FREE ENERGY PREDICTED BY IDOCK:   -1.92 KCAL/MOL
REMARK 927      BINDING AFFINITY PREDICTED BY RF-SCORE:    0.00 PKD
ROOT
HETATM    1  C   UNL     1      -8.343   4.865  67.620  1.00  0.00    -0.105 C  
HETATM    2  C   UNL     1      -9.539   4.121  68.196  1.00  0.00    -0.195 C  
ENDROOT
BRANCH   2   3
HETATM    3  C   UNL     1      -9.989   4.716  69.483  1.00  0.00    -0.266 C  
HETATM    4  C   UNL     1      -9.710   4.395  70.755  1.00  0.00    -0.271 C  
HETATM    5  C   UNL     1     -10.409   5.285  71.730  1.00  0.00    -0.214 C  
HETATM    6  C   UNL     1      -8.786   3.335  71.242  1.00  0.00    -0.140 C  
HETATM    7  N   UNL     1     -11.066   6.227  70.866  1.00  0.00    -0.290 N  
HETATM    8  O   UNL     1     -11.406   6.403  68.550  1.00  0.00    -0.303 OA 
HETATM    9  C   UNL     1     -10.901   5.879  69.530  1.00  0.00    -0.372 C  
BRANCH   7  10
HETATM   10  C   UNL     1     -11.572   7.411  71.371  1.00  0.00    -0.275 C  
HETATM   11  O   UNL     1     -11.781   7.579  72.571  1.00  0.00    -0.300 OA 
BRANCH  10  12
HETATM   12  N   UNL     1     -11.783   8.395  70.439  1.00  0.00    -0.471 N  
HETATM   13  H   UNL     1     -12.585   8.308  69.815  1.00  0.00     0.000 HD 
BRANCH  12  14
HETATM   14  C   UNL     1     -10.920   9.551  70.299  1.00  0.00    -0.269 C  
BRANCH  14  15
HETATM   15  C   UNL     1     -10.115   9.548  68.988  1.00  0.00    -0.201 C  
BRANCH  15  16
HETATM   16  C   UNL     1     -10.611  10.532  67.942  1.00  0.00    -0.271 A  
HETATM   17  C   UNL     1     -11.381  11.651  68.293  1.00  0.00    -0.348 A  
HETATM   18  C   UNL     1     -11.879  12.516  67.317  1.00  0.00    -0.381 A  
HETATM   19  C   UNL     1     -11.559  12.319  65.973  1.00  0.00    -0.393 A  
HETATM   20  C   UNL     1     -10.755  11.237  65.605  1.00  0.00    -0.279 A  
HETATM   21  C   UNL     1     -10.280  10.354  66.587  1.00  0.00    -0.292 A  
BRANCH  19  22
HETATM   22  S   UNL     1     -12.319  13.350  64.733  1.00  0.00    -0.383 S  
HETATM   23  O   UNL     1     -12.547  12.520  63.567  1.00  0.00    -0.690 OA 
HETATM   24  O   UNL     1     -13.416  14.074  65.336  1.00  0.00    -0.679 OA 
BRANCH  22  25
HETATM   25  N   UNL     1     -11.125  14.427  64.271  1.00  0.00    -0.605 N  
HETATM   26  H   UNL     1     -10.355  14.078  63.700  1.00  0.00     0.000 HD 
BRANCH  25  27
HETATM   27  C   UNL     1     -11.127  15.763  64.621  1.00  0.00    -0.361 C  
HETATM   28  O   UNL     1     -11.533  16.639  63.875  1.00  0.00    -1.186 OA 
BRANCH  27  29
HETATM   29  N   UNL     1     -10.639  16.033  65.878  1.00  0.00    -0.335 N  
HETATM   30  H   UNL     1     -11.255  16.377  66.614  1.00  0.00     0.000 HD 
BRANCH  29  31
HETATM   31  C   UNL     1      -9.216  15.816  66.134  1.00  0.00    -0.350 C  
HETATM   32  C   UNL     1      -8.424  17.122  66.270  1.00  0.00    -0.279 C  
HETATM   33  C   UNL     1      -8.436  17.740  67.666  1.00  0.00    -0.229 C  
HETATM   34  C   UNL     1      -8.142  16.732  68.783  1.00  0.00    -0.252 C  
HETATM   35  C   UNL     1      -9.097  15.539  68.669  1.00  0.00    -0.202 C  
HETATM   36  C   UNL     1      -6.674  16.289  68.795  1.00  0.00    -0.144 C  
HETATM   37  C   UNL     1      -9.007  14.850  67.310  1.00  0.00    -0.212 C  
ENDBRANCH  29  31
ENDBRANCH  27  29
ENDBRANCH  25  27
ENDBRANCH  22  25
ENDBRANCH  19  22
ENDBRANCH  15  16
ENDBRANCH  14  15
ENDBRANCH  12  14
ENDBRANCH  10  12
ENDBRANCH   7  10
ENDBRANCH   2   3
TORSDOF 11
ENDMDL
MODEL       21
REMARK 921   NORMALIZED FREE ENERGY PREDICTED BY IDOCK:   -6.77 KCAL/MOL
REMARK 922        TOTAL FREE ENERGY PREDICTED BY IDOCK:  -13.43 KCAL/MOL
REMARK 923 INTER-LIGAND FREE ENERGY PREDICTED BY IDOCK:  -11.13 KCAL/MOL
REMARK 924 INTRA-LIGAND FREE ENERGY PREDICTED BY IDOCK:   -2.30 KCAL/MOL
REMARK 927      BINDING AFFINITY PREDICTED BY RF-SCORE:    0.00 PKD
ROOT
HETATM    1  C   UNL     1      -9.545   6.456  66.794  1.00  0.00    -0.189 C  
HETATM    2  C   UNL     1     -10.689   7.195  67.472  1.00  0.00    -0.344 C  
ENDROOT
BRANCH   2   3
HETATM    3  C   UNL     1     -10.297   7.701  68.815  1.00  0.00    -0.218 C  
HETATM    4  C   UNL     1      -9.537   8.742  69.184  1.00  0.00    -0.162 C  
HETATM    5  C   UNL     1      -9.417   8.859  70.669  1.00  0.00    -0.214 C  
HETATM    6  C   UNL     1      -8.889   9.750  68.302  1.00  0.00    -0.119 C  
HETATM    7  N   UNL     1     -10.279   7.804  71.127  1.00  0.00    -0.195 N  
HETATM    8  O   UNL     1     -11.431   6.034  70.103  1.00  0.00    -0.356 OA 
HETATM    9  C   UNL     1     -10.759   7.053  70.061  1.00  0.00    -0.242 C  
BRANCH   7  10
HETATM   10  C   UNL     1     -10.700   7.762  72.444  1.00  0.00    -0.290 C  
HETATM   11  O   UNL     1      -9.926   7.911  73.387  1.00  0.00    -0.314 OA 
BRANCH  10  12
HETATM   12  N   UNL     1     -12.049   7.583  72.616  1.00  0.00    -0.558 N  
HETATM   13  H   UNL     1     -12.407   6.630  72.684  1.00  0.00     0.000 HD 
BRANCH  12  14
HETATM   14  C   UNL     1     -12.988   8.683  72.704  1.00  0.00    -0.202 C  
BRANCH  14  15
HETATM   15  C   UNL     1     -13.365   9.267  71.331  1.00  0.00    -0.390 C  
BRANCH  15  16
HETATM   16  C   UNL     1     -13.031  10.739  71.160  1.00  0.00    -0.467 A  
HETATM   17  C   UNL     1     -12.247  11.195  70.090  1.00  0.00    -0.417 A  
HETATM   18  C   UNL     1     -11.900  12.543  69.976  1.00  0.00    -0.363 A  
HETATM   19  C   UNL     1     -12.388  13.474  70.892  1.00  0.00    -0.356 A  
HETATM   20  C   UNL     1     -13.209  13.050  71.941  1.00  0.00    -0.527 A  
HETATM   21  C   UNL     1     -13.533  11.690  72.067  1.00  0.00    -0.304 A  
BRANCH  19  22
HETATM   22  S   UNL     1     -11.820  15.162  70.810  1.00  0.00    -0.359 S  
HETATM   23  O   UNL     1     -12.904  15.953  70.262  1.00  0.00    -0.335 OA 
HETATM   24  O   UNL     1     -11.231  15.518  72.082  1.00  0.00    -0.377 OA 
BRANCH  22  25
HETATM   25  N   UNL     1     -10.639  15.168  69.626  1.00  0.00    -0.259 N  
HETATM   26  H   UNL     1      -9.701  14.853  69.877  1.00  0.00     0.000 HD 
BRANCH  25  27
HETATM   27  C   UNL     1     -10.866  15.574  68.326  1.00  0.00    -0.292 C  
HETATM   28  O   UNL     1     -10.925  14.791  67.391  1.00  0.00    -0.295 OA 
BRANCH  27  29
HETATM   29  N   UNL     1     -11.023  16.930  68.162  1.00  0.00    -0.346 N  
HETATM   30  H   UNL     1     -11.879  17.312  67.761  1.00  0.00     0.000 HD 
BRANCH  29  31
HETATM   31  C   UNL     1      -9.933  17.812  68.574  1.00  0.00    -0.370 C  
HETATM   32  C   UNL     1      -8.619  17.530  67.836  1.00  0.00    -0.239 C  
HETATM   33  C   UNL     1      -8.480  18.224  66.482  1.00  0.00    -0.287 C  
HETATM   34  C   UNL     1      -8.849  19.711  66.517  1.00  0.00    -0.410 C  
HETATM   35  C   UNL     1     -10.250  19.883  67.115  1.00  0.00    -0.579 C  
HETATM   36  C   UNL     1      -7.805  20.554  67.260  1.00  0.00    -0.367 C  
HETATM   37  C   UNL     1     -10.362  19.286  68.516  1.00  0.00    -0.385 C  
ENDBRANCH  29  31
ENDBRANCH  27  29
ENDBRANCH  25  27
ENDBRANCH  22  25
ENDBRANCH  19  22
ENDBRANCH  15  16
ENDBRANCH  14  15
ENDBRANCH  12  14
ENDBRANCH  10  12
ENDBRANCH   7  10
ENDBRANCH   2   3
TORSDOF 11
ENDMDL
MODEL       22
REMARK 921   NORMALIZED FREE ENERGY PREDICTED BY IDOCK:   -6.74 KCAL/MOL
REMARK 922        TOTAL FREE ENERGY PREDICTED BY IDOCK:  -13.38 KCAL/MOL
REMARK 923 INTER-LIGAND FREE ENERGY PREDICTED BY IDOCK:  -10.62 KCAL/MOL
REMARK 924 INTRA-LIGAND FREE ENERGY PREDICTED BY IDOCK:   -2.76 KCAL/MOL
REMARK 927      BINDING AFFINITY PREDICTED BY RF-SCORE:    0.00 PKD
ROOT
HETATM    1  C   UNL     1     -10.801  19.147  67.321  1.00  0.00    -0.529 C  
HETATM    2  C   UNL     1     -10.021  18.033  68.003  1.00  0.00    -0.346 C  
ENDROOT
BRANCH   2   3
HETATM    3  C   UNL     1     -10.612  16.697  67.723  1.00  0.00    -0.342 C  
HETATM    4  C   UNL     1     -11.245  15.823  68.519  1.00  0.00    -0.354 C  
HETATM    5  C   UNL     1     -11.664  14.590  67.787  1.00  0.00    -0.374 C  
HETATM    6  C   UNL     1     -11.588  15.989  69.958  1.00  0.00    -0.316 C  
HETATM    7  N   UNL     1     -11.274  14.891  66.437  1.00  0.00    -0.341 N  
HETATM    8  O   UNL     1     -10.031  16.594  65.405  1.00  0.00    -0.565 OA 
HETATM    9  C   UNL     1     -10.583  16.095  66.373  1.00  0.00    -0.269 C  
BRANCH   7  10
HETATM   10  C   UNL     1     -11.761  14.143  65.380  1.00  0.00    -0.347 C  
HETATM   11  O   UNL     1     -12.951  14.133  65.074  1.00  0.00    -0.721 OA 
BRANCH  10  12
HETATM   12  N   UNL     1     -10.811  13.447  64.677  1.00  0.00    -0.371 N  
HETATM   13  H   UNL     1     -10.151  13.971  64.102  1.00  0.00     0.000 HD 
BRANCH  12  14
HETATM   14  C   UNL     1     -10.700  12.002  64.713  1.00  0.00    -0.306 C  
BRANCH  14  15
HETATM   15  C   UNL     1      -9.570  11.505  65.631  1.00  0.00    -0.256 C  
BRANCH  15  16
HETATM   16  C   UNL     1     -10.023  11.095  67.022  1.00  0.00    -0.223 A  
HETATM   17  C   UNL     1      -9.107  10.681  68.000  1.00  0.00    -0.147 A  
HETATM   18  C   UNL     1      -9.541  10.252  69.256  1.00  0.00    -0.239 A  
HETATM   19  C   UNL     1     -10.896  10.294  69.584  1.00  0.00    -0.271 A  
HETATM   20  C   UNL     1     -11.823  10.748  68.641  1.00  0.00    -0.208 A  
HETATM   21  C   UNL     1     -11.384  11.152  67.370  1.00  0.00    -0.329 A  
BRANCH  19  22
HETATM   22  S   UNL     1     -11.442   9.612  71.138  1.00  0.00    -0.406 S  
HETATM   23  O   UNL     1     -10.256   9.273  71.897  1.00  0.00    -0.269 OA 
HETATM   24  O   UNL     1     -12.444  10.488  71.705  1.00  0.00    -0.373 OA 
BRANCH  22  25
HETATM   25  N   UNL     1     -12.140   8.143  70.747  1.00  0.00    -0.491 N  
HETATM   26  H   UNL     1     -13.080   8.145  70.351  1.00  0.00     0.000 HD 
BRANCH  25  27
HETATM   27  C   UNL     1     -11.512   6.928  70.933  1.00  0.00    -0.323 C  
HETATM   28  O   UNL     1     -12.034   6.000  71.532  1.00  0.00    -0.165 OA 
BRANCH  27  29
HETATM   29  N   UNL     1     -10.252   6.837  70.389  1.00  0.00    -0.190 N  
HETATM   30  H   UNL     1      -9.476   7.373  70.778  1.00  0.00     0.000 HD 
BRANCH  29  31
HETATM   31  C   UNL     1     -10.051   5.955  69.242  1.00  0.00    -0.194 C  
HETATM   32  C   UNL     1     -11.026   6.234  68.091  1.00  0.00    -0.412 C  
HETATM   33  C   UNL     1     -10.593   7.344  67.135  1.00  0.00    -0.413 C  
HETATM   34  C   UNL     1      -9.135   7.223  66.679  1.00  0.00    -0.181 C  
HETATM   35  C   UNL     1      -8.216   7.120  67.902  1.00  0.00    -0.119 C  
HETATM   36  C   UNL     1      -8.923   6.055  65.707  1.00  0.00    -0.116 C  
HETATM   37  C   UNL     1      -8.579   5.943  68.804  1.00  0.00    -0.110 C  
ENDBRANCH  29  31
ENDBRANCH  27  29
ENDBRANCH  25  27
ENDBRANCH  22  25
ENDBRANCH  19  22
ENDBRANCH  15  16
ENDBRANCH  14  15
ENDBRANCH  12  14
ENDBRANCH  10  12
ENDBRANCH   7  10
ENDBRANCH   2   3
TORSDOF 11
ENDMDL
MODEL       23
REMARK 921   NORMALIZED FREE ENERGY PREDICTED BY IDOCK:   -6.71 KCAL/MOL
REMARK 922        TOTAL FREE ENERGY PREDICTED BY IDOCK:  -13.34 KCAL/MOL
REMARK 923 INTER-LIGAND FREE ENERGY PREDICTED BY IDOCK:  -10.65 KCAL/MOL
REMARK 924 INTRA-LIGAND FREE ENERGY PREDICTED BY IDOCK:   -2.69 KCAL/MOL
REMARK 927      BINDING AFFINITY PREDICTED BY RF-SCORE:    0.00 PKD
ROOT
HETATM    1  C   UNL     1     -11.726  12.037  63.592  1.00  0.00    -0.587 C  
HETATM    2  C   UNL     1     -12.676  12.300  64.751  1.00  0.00    -0.198 C  
ENDROOT
BRANCH   2   3
HETATM    3  C   UNL     1     -12.122  13.301  65.700  1.00  0.00    -0.488 C  
HETATM    4  C   UNL     1     -11.744  14.576  65.525  1.00  0.00    -0.343 C  
HETATM    5  C   UNL     1     -11.236  15.195  66.786  1.00  0.00    -0.285 C  
HETATM    6  C   UNL     1     -11.830  15.385  64.279  1.00  0.00    -0.207 C  
HETATM    7  N   UNL     1     -11.448  14.147  67.746  1.00  0.00    -0.306 N  
HETATM    8  O   UNL     1     -12.086  11.891  67.633  1.00  0.00    -0.568 OA 
HETATM    9  C   UNL     1     -11.901  12.988  67.128  1.00  0.00    -0.373 C  
BRANCH   7  10
HETATM   10  C   UNL     1     -11.401  14.415  69.102  1.00  0.00    -0.277 C  
HETATM   11  O   UNL     1     -10.439  14.968  69.631  1.00  0.00    -0.241 OA 
BRANCH  10  12
HETATM   12  N   UNL     1     -12.524  14.055  69.803  1.00  0.00    -0.400 N  
HETATM   13  H   UNL     1     -13.415  14.020  69.307  1.00  0.00     0.000 HD 
BRANCH  12  14
HETATM   14  C   UNL     1     -12.504  13.723  71.213  1.00  0.00    -0.345 C  
BRANCH  14  15
HETATM   15  C   UNL     1     -13.507  12.617  71.587  1.00  0.00    -0.190 C  
BRANCH  15  16
HETATM   16  C   UNL     1     -12.935  11.210  71.550  1.00  0.00    -0.542 A  
HETATM   17  C   UNL     1     -11.725  10.926  70.900  1.00  0.00    -0.265 A  
HETATM   18  C   UNL     1     -11.239   9.619  70.825  1.00  0.00    -0.403 A  
HETATM   19  C   UNL     1     -11.918   8.578  71.458  1.00  0.00    -0.303 A  
HETATM   20  C   UNL     1     -13.102   8.845  72.151  1.00  0.00    -0.475 A  
HETATM   21  C   UNL     1     -13.601  10.156  72.200  1.00  0.00    -0.295 A  
BRANCH  19  22
HETATM   22  S   UNL     1     -11.358   6.901  71.231  1.00  0.00    -0.296 S  
HETATM   23  O   UNL     1      -9.911   6.939  71.166  1.00  0.00    -0.177 OA 
HETATM   24  O   UNL     1     -12.021   6.053  72.196  1.00  0.00    -0.309 OA 
BRANCH  22  25
HETATM   25  N   UNL     1     -11.849   6.483  69.688  1.00  0.00    -0.610 N  
HETATM   26  H   UNL     1     -12.818   6.194  69.551  1.00  0.00     0.000 HD 
BRANCH  25  27
HETATM   27  C   UNL     1     -11.013   6.508  68.589  1.00  0.00    -0.293 C  
HETATM   28  O   UNL     1     -10.547   5.495  68.092  1.00  0.00    -0.195 OA 
BRANCH  27  29
HETATM   29  N   UNL     1     -10.746   7.762  68.092  1.00  0.00    -0.417 N  
HETATM   30  H   UNL     1     -11.448   8.500  68.133  1.00  0.00     0.000 HD 
BRANCH  29  31
HETATM   31  C   UNL     1      -9.431   8.012  67.506  1.00  0.00    -0.146 C  
HETATM   32  C   UNL     1      -9.502   8.470  66.044  1.00  0.00    -0.256 C  
HETATM   33  C   UNL     1      -9.719   9.969  65.848  1.00  0.00    -0.309 C  
HETATM   34  C   UNL     1      -8.797  10.838  66.712  1.00  0.00    -0.147 C  
HETATM   35  C   UNL     1      -8.921  10.422  68.181  1.00  0.00    -0.132 C  
HETATM   36  C   UNL     1      -7.342  10.802  66.229  1.00  0.00    -0.138 C  
HETATM   37  C   UNL     1      -8.597   8.945  68.397  1.00  0.00    -0.134 C  
ENDBRANCH  29  31
ENDBRANCH  27  29
ENDBRANCH  25  27
ENDBRANCH  22  25
ENDBRANCH  19  22
ENDBRANCH  15  16
ENDBRANCH  14  15
ENDBRANCH  12  14
ENDBRANCH  10  12
ENDBRANCH   7  10
ENDBRANCH   2   3
TORSDOF 11
ENDMDL
MODEL       24
REMARK 921   NORMALIZED FREE ENERGY PREDICTED BY IDOCK:   -6.69 KCAL/MOL
REMARK 922        TOTAL FREE ENERGY PREDICTED BY IDOCK:  -13.30 KCAL/MOL
REMARK 923 INTER-LIGAND FREE ENERGY PREDICTED BY IDOCK:  -10.79 KCAL/MOL
REMARK 924 INTRA-LIGAND FREE ENERGY PREDICTED BY IDOCK:   -2.51 KCAL/MOL
REMARK 927      BINDING AFFINITY PREDICTED BY RF-SCORE:    0.00 PKD
ROOT
HETATM    1  C   UNL     1      -8.672   6.932  67.276  1.00  0.00    -0.119 C  
HETATM    2  C   UNL     1      -9.699   7.990  67.652  1.00  0.00    -0.198 C  
ENDROOT
BRANCH   2   3
HETATM    3  C   UNL     1      -9.800   8.158  69.127  1.00  0.00    -0.182 C  
HETATM    4  C   UNL     1      -9.172   8.991  69.969  1.00  0.00    -0.193 C  
HETATM    5  C   UNL     1      -9.599   8.791  71.388  1.00  0.00    -0.267 C  
HETATM    6  C   UNL     1      -8.193  10.059  69.629  1.00  0.00    -0.185 C  
HETATM    7  N   UNL     1     -10.625   7.793  71.258  1.00  0.00    -0.217 N  
HETATM    8  O   UNL     1     -11.414   6.436  69.513  1.00  0.00    -0.407 OA 
HETATM    9  C   UNL     1     -10.720   7.342  69.947  1.00  0.00    -0.242 C  
BRANCH   7  10
HETATM   10  C   UNL     1     -11.500   7.544  72.300  1.00  0.00    -0.303 C  
HETATM   11  O   UNL     1     -11.128   7.471  73.469  1.00  0.00    -0.312 OA 
BRANCH  10  12
HETATM   12  N   UNL     1     -12.817   7.428  71.934  1.00  0.00    -0.461 N  
HETATM   13  H   UNL     1     -13.244   6.501  71.947  1.00  0.00     0.000 HD 
BRANCH  12  14
HETATM   14  C   UNL     1     -13.629   8.557  71.531  1.00  0.00    -0.305 C  
BRANCH  14  15
HETATM   15  C   UNL     1     -13.320   9.838  72.325  1.00  0.00    -0.472 C  
BRANCH  15  16
HETATM   16  C   UNL     1     -12.865  11.012  71.475  1.00  0.00    -0.555 A  
HETATM   17  C   UNL     1     -12.238  10.822  70.235  1.00  0.00    -0.431 A  
HETATM   18  C   UNL     1     -11.773  11.907  69.490  1.00  0.00    -0.410 A  
HETATM   19  C   UNL     1     -11.987  13.211  69.938  1.00  0.00    -0.317 A  
HETATM   20  C   UNL     1     -12.651  13.426  71.149  1.00  0.00    -0.430 A  
HETATM   21  C   UNL     1     -13.092  12.331  71.907  1.00  0.00    -0.469 A  
BRANCH  19  22
HETATM   22  S   UNL     1     -11.263  14.573  69.043  1.00  0.00    -0.282 S  
HETATM   23  O   UNL     1     -12.074  15.742  69.315  1.00  0.00    -0.350 OA 
HETATM   24  O   UNL     1      -9.841  14.598  69.303  1.00  0.00    -0.174 OA 
BRANCH  22  25
HETATM   25  N   UNL     1     -11.531  14.226  67.429  1.00  0.00    -0.328 N  
HETATM   26  H   UNL     1     -12.137  13.438  67.199  1.00  0.00     0.000 HD 
BRANCH  25  27
HETATM   27  C   UNL     1     -10.976  14.949  66.392  1.00  0.00    -0.336 C  
HETATM   28  O   UNL     1     -11.520  15.065  65.305  1.00  0.00    -0.348 OA 
BRANCH  27  29
HETATM   29  N   UNL     1      -9.764  15.533  66.676  1.00  0.00    -0.236 N  
HETATM   30  H   UNL     1      -9.034  15.011  67.161  1.00  0.00     0.000 HD 
BRANCH  29  31
HETATM   31  C   UNL     1      -9.547  16.919  66.268  1.00  0.00    -0.276 C  
HETATM   32  C   UNL     1     -10.386  17.921  67.070  1.00  0.00    -0.366 C  
HETATM   33  C   UNL     1      -9.768  18.362  68.395  1.00  0.00    -0.379 C  
HETATM   34  C   UNL     1      -8.293  18.763  68.278  1.00  0.00    -0.360 C  
HETATM   35  C   UNL     1      -7.500  17.630  67.618  1.00  0.00    -0.206 C  
HETATM   36  C   UNL     1      -8.107  20.094  67.540  1.00  0.00    -0.356 C  
HETATM   37  C   UNL     1      -8.049  17.260  66.242  1.00  0.00    -0.315 C  
ENDBRANCH  29  31
ENDBRANCH  27  29
ENDBRANCH  25  27
ENDBRANCH  22  25
ENDBRANCH  19  22
ENDBRANCH  15  16
ENDBRANCH  14  15
ENDBRANCH  12  14
ENDBRANCH  10  12
ENDBRANCH   7  10
ENDBRANCH   2   3
TORSDOF 11
ENDMDL
MODEL       25
REMARK 921   NORMALIZED FREE ENERGY PREDICTED BY IDOCK:   -6.67 KCAL/MOL
REMARK 922        TOTAL FREE ENERGY PREDICTED BY IDOCK:  -13.27 KCAL/MOL
REMARK 923 INTER-LIGAND FREE ENERGY PREDICTED BY IDOCK:  -10.70 KCAL/MOL
REMARK 924 INTRA-LIGAND FREE ENERGY PREDICTED BY IDOCK:   -2.58 KCAL/MOL
REMARK 927      BINDING AFFINITY PREDICTED BY RF-SCORE:    0.00 PKD
ROOT
HETATM    1  C   UNL     1      -8.850   7.050  67.056  1.00  0.00    -0.124 C  
HETATM    2  C   UNL     1     -10.052   7.861  67.516  1.00  0.00    -0.276 C  
ENDROOT
BRANCH   2   3
HETATM    3  C   UNL     1     -10.040   8.077  68.987  1.00  0.00    -0.206 C  
HETATM    4  C   UNL     1      -9.406   8.985  69.745  1.00  0.00    -0.176 C  
HETATM    5  C   UNL     1      -9.694   8.808  71.200  1.00  0.00    -0.247 C  
HETATM    6  C   UNL     1      -8.541  10.105  69.286  1.00  0.00    -0.180 C  
HETATM    7  N   UNL     1     -10.651   7.736  71.193  1.00  0.00    -0.216 N  
HETATM    8  O   UNL     1     -11.484   6.261  69.568  1.00  0.00    -0.428 OA 
HETATM    9  C   UNL     1     -10.824   7.230  69.910  1.00  0.00    -0.247 C  
BRANCH   7  10
HETATM   10  C   UNL     1     -11.414   7.466  72.314  1.00  0.00    -0.288 C  
HETATM   11  O   UNL     1     -10.932   7.430  73.445  1.00  0.00    -0.378 OA 
BRANCH  10  12
HETATM   12  N   UNL     1     -12.752   7.283  72.075  1.00  0.00    -0.492 N  
HETATM   13  H   UNL     1     -13.170   6.384  72.316  1.00  0.00     0.000 HD 
BRANCH  12  14
HETATM   14  C   UNL     1     -13.598   8.305  71.494  1.00  0.00    -0.299 C  
BRANCH  14  15
HETATM   15  C   UNL     1     -13.724   9.559  72.377  1.00  0.00    -0.408 C  
BRANCH  15  16
HETATM   16  C   UNL     1     -13.215  10.837  71.732  1.00  0.00    -0.523 A  
HETATM   17  C   UNL     1     -13.528  12.100  72.256  1.00  0.00    -0.298 A  
HETATM   18  C   UNL     1     -13.101  13.268  71.622  1.00  0.00    -0.453 A  
HETATM   19  C   UNL     1     -12.294  13.197  70.486  1.00  0.00    -0.304 A  
HETATM   20  C   UNL     1     -11.931  11.949  69.972  1.00  0.00    -0.409 A  
HETATM   21  C   UNL     1     -12.385  10.778  70.598  1.00  0.00    -0.465 A  
BRANCH  19  22
HETATM   22  S   UNL     1     -11.879  14.694  69.613  1.00  0.00    -0.337 S  
HETATM   23  O   UNL     1     -12.378  14.554  68.260  1.00  0.00    -0.163 OA 
HETATM   24  O   UNL     1     -12.272  15.829  70.419  1.00  0.00    -0.392 OA 
BRANCH  22  25
HETATM   25  N   UNL     1     -10.213  14.665  69.464  1.00  0.00    -0.417 N  
HETATM   26  H   UNL     1      -9.669  14.234  70.213  1.00  0.00     0.000 HD 
BRANCH  25  27
HETATM   27  C   UNL     1      -9.535  15.191  68.383  1.00  0.00    -0.208 C  
HETATM   28  O   UNL     1      -8.446  15.734  68.488  1.00  0.00    -0.166 OA 
BRANCH  27  29
HETATM   29  N   UNL     1     -10.177  15.056  67.174  1.00  0.00    -0.247 N  
HETATM   30  H   UNL     1     -11.005  15.610  66.959  1.00  0.00     0.000 HD 
BRANCH  29  31
HETATM   31  C   UNL     1      -9.644  14.099  66.207  1.00  0.00    -0.275 C  
HETATM   32  C   UNL     1      -9.498  12.683  66.779  1.00  0.00    -0.237 C  
HETATM   33  C   UNL     1     -10.763  11.830  66.716  1.00  0.00    -0.289 C  
HETATM   34  C   UNL     1     -11.455  11.863  65.348  1.00  0.00    -0.310 C  
HETATM   35  C   UNL     1     -11.715  13.315  64.934  1.00  0.00    -0.375 C  
HETATM   36  C   UNL     1     -10.666  11.098  64.278  1.00  0.00    -0.403 C  
HETATM   37  C   UNL     1     -10.434  14.146  64.890  1.00  0.00    -0.461 C  
ENDBRANCH  29  31
ENDBRANCH  27  29
ENDBRANCH  25  27
ENDBRANCH  22  25
ENDBRANCH  19  22
ENDBRANCH  15  16
ENDBRANCH  14  15
ENDBRANCH  12  14
ENDBRANCH  10  12
ENDBRANCH   7  10
ENDBRANCH   2   3
TORSDOF 11
ENDMDL
MODEL       26
REMARK 921   NORMALIZED FREE ENERGY PREDICTED BY IDOCK:   -6.67 KCAL/MOL
REMARK 922        TOTAL FREE ENERGY PREDICTED BY IDOCK:  -13.26 KCAL/MOL
REMARK 923 INTER-LIGAND FREE ENERGY PREDICTED BY IDOCK:  -11.15 KCAL/MOL
REMARK 924 INTRA-LIGAND FREE ENERGY PREDICTED BY IDOCK:   -2.11 KCAL/MOL
REMARK 927      BINDING AFFINITY PREDICTED BY RF-SCORE:    0.00 PKD
ROOT
HETATM    1  C   UNL     1      -9.397   6.947  67.086  1.00  0.00    -0.162 C  
HETATM    2  C   UNL     1     -10.047   5.590  67.313  1.00  0.00    -0.216 C  
ENDROOT
BRANCH   2   3
HETATM    3  C   UNL     1     -10.029   5.206  68.749  1.00  0.00    -0.237 C  
HETATM    4  C   UNL     1      -9.309   4.290  69.414  1.00  0.00    -0.236 C  
HETATM    5  C   UNL     1      -9.641   4.255  70.870  1.00  0.00    -0.183 C  
HETATM    6  C   UNL     1      -8.244   3.404  68.870  1.00  0.00    -0.075 C  
HETATM    7  N   UNL     1     -10.587   5.331  70.992  1.00  0.00    -0.207 N  
HETATM    8  O   UNL     1     -11.728   6.721  69.484  1.00  0.00    -0.187 OA 
HETATM    9  C   UNL     1     -10.895   5.868  69.748  1.00  0.00    -0.377 C  
BRANCH   7  10
HETATM   10  C   UNL     1     -10.913   5.843  72.235  1.00  0.00    -0.265 C  
HETATM   11  O   UNL     1     -10.249   5.603  73.241  1.00  0.00    -0.178 OA 
BRANCH  10  12
HETATM   12  N   UNL     1     -12.007   6.669  72.251  1.00  0.00    -0.465 N  
HETATM   13  H   UNL     1     -12.917   6.276  72.010  1.00  0.00     0.000 HD 
BRANCH  12  14
HETATM   14  C   UNL     1     -11.932   8.075  72.593  1.00  0.00    -0.277 C  
BRANCH  14  15
HETATM   15  C   UNL     1     -10.603   8.729  72.176  1.00  0.00    -0.386 C  
BRANCH  15  16
HETATM   16  C   UNL     1     -10.686   9.575  70.917  1.00  0.00    -0.403 A  
HETATM   17  C   UNL     1      -9.561   9.807  70.112  1.00  0.00    -0.287 A  
HETATM   18  C   UNL     1      -9.637  10.633  68.989  1.00  0.00    -0.207 A  
HETATM   19  C   UNL     1     -10.858  11.191  68.608  1.00  0.00    -0.209 A  
HETATM   20  C   UNL     1     -12.002  10.937  69.369  1.00  0.00    -0.393 A  
HETATM   21  C   UNL     1     -11.914  10.127  70.513  1.00  0.00    -0.400 A  
BRANCH  19  22
HETATM   22  S   UNL     1     -10.905  12.353  67.257  1.00  0.00    -0.252 S  
HETATM   23  O   UNL     1      -9.795  12.037  66.382  1.00  0.00    -0.210 OA 
HETATM   24  O   UNL     1     -12.253  12.403  66.733  1.00  0.00    -0.551 OA 
BRANCH  22  25
HETATM   25  N   UNL     1     -10.514  13.829  67.938  1.00  0.00    -0.242 N  
HETATM   26  H   UNL     1      -9.534  14.023  68.142  1.00  0.00     0.000 HD 
BRANCH  25  27
HETATM   27  C   UNL     1     -11.449  14.801  68.240  1.00  0.00    -0.317 C  
HETATM   28  O   UNL     1     -11.478  15.884  67.677  1.00  0.00    -0.221 OA 
BRANCH  27  29
HETATM   29  N   UNL     1     -12.348  14.455  69.221  1.00  0.00    -0.543 N  
HETATM   30  H   UNL     1     -13.348  14.420  69.023  1.00  0.00     0.000 HD 
BRANCH  29  31
HETATM   31  C   UNL     1     -11.837  14.139  70.553  1.00  0.00    -0.282 C  
HETATM   32  C   UNL     1     -11.048  15.293  71.184  1.00  0.00    -0.328 C  
HETATM   33  C   UNL     1     -11.899  16.333  71.910  1.00  0.00    -0.538 C  
HETATM   34  C   UNL     1     -12.937  15.720  72.856  1.00  0.00    -0.600 C  
HETATM   35  C   UNL     1     -13.793  14.701  72.096  1.00  0.00    -0.569 C  
HETATM   36  C   UNL     1     -12.296  15.106  74.107  1.00  0.00    -0.706 C  
HETATM   37  C   UNL     1     -12.953  13.596  71.459  1.00  0.00    -0.443 C  
ENDBRANCH  29  31
ENDBRANCH  27  29
ENDBRANCH  25  27
ENDBRANCH  22  25
ENDBRANCH  19  22
ENDBRANCH  15  16
ENDBRANCH  14  15
ENDBRANCH  12  14
ENDBRANCH  10  12
ENDBRANCH   7  10
ENDBRANCH   2   3
TORSDOF 11
ENDMDL
MODEL       27
REMARK 921   NORMALIZED FREE ENERGY PREDICTED BY IDOCK:   -6.63 KCAL/MOL
REMARK 922        TOTAL FREE ENERGY PREDICTED BY IDOCK:  -13.20 KCAL/MOL
REMARK 923 INTER-LIGAND FREE ENERGY PREDICTED BY IDOCK:  -11.63 KCAL/MOL
REMARK 924 INTRA-LIGAND FREE ENERGY PREDICTED BY IDOCK:   -1.56 KCAL/MOL
REMARK 927      BINDING AFFINITY PREDICTED BY RF-SCORE:    0.00 PKD
ROOT
HETATM    1  C   UNL     1     -10.510   2.090  73.063  1.00  0.00    -0.229 C  
HETATM    2  C   UNL     1      -9.280   2.688  72.396  1.00  0.00    -0.138 C  
ENDROOT
BRANCH   2   3
HETATM    3  C   UNL     1      -9.648   3.691  71.362  1.00  0.00    -0.237 C  
HETATM    4  C   UNL     1      -9.684   3.614  70.023  1.00  0.00    -0.180 C  
HETATM    5  C   UNL     1     -10.117   4.897  69.392  1.00  0.00    -0.200 C  
HETATM    6  C   UNL     1      -9.398   2.425  69.175  1.00  0.00    -0.191 C  
HETATM    7  N   UNL     1     -10.418   5.712  70.537  1.00  0.00    -0.259 N  
HETATM    8  O   UNL     1     -10.117   5.500  72.855  1.00  0.00    -0.170 OA 
HETATM    9  C   UNL     1     -10.083   5.059  71.717  1.00  0.00    -0.200 C  
BRANCH   7  10
HETATM   10  C   UNL     1     -11.149   6.878  70.398  1.00  0.00    -0.296 C  
HETATM   11  O   UNL     1     -10.944   7.680  69.489  1.00  0.00    -0.204 OA 
BRANCH  10  12
HETATM   12  N   UNL     1     -12.146   7.049  71.324  1.00  0.00    -0.342 N  
HETATM   13  H   UNL     1     -12.810   6.289  71.470  1.00  0.00     0.000 HD 
BRANCH  12  14
HETATM   14  C   UNL     1     -12.301   8.260  72.105  1.00  0.00    -0.360 C  
BRANCH  14  15
HETATM   15  C   UNL     1     -13.470   9.140  71.630  1.00  0.00    -0.452 C  
BRANCH  15  16
HETATM   16  C   UNL     1     -13.101  10.591  71.371  1.00  0.00    -0.509 A  
HETATM   17  C   UNL     1     -13.588  11.629  72.180  1.00  0.00    -0.124 A  
HETATM   18  C   UNL     1     -13.288  12.962  71.898  1.00  0.00    -0.530 A  
HETATM   19  C   UNL     1     -12.437  13.283  70.840  1.00  0.00    -0.342 A  
HETATM   20  C   UNL     1     -11.902  12.262  70.048  1.00  0.00    -0.372 A  
HETATM   21  C   UNL     1     -12.229  10.925  70.319  1.00  0.00    -0.432 A  
BRANCH  19  22
HETATM   22  S   UNL     1     -12.180  14.994  70.411  1.00  0.00    -0.367 S  
HETATM   23  O   UNL     1     -13.310  15.739  70.927  1.00  0.00    -0.576 OA 
HETATM   24  O   UNL     1     -10.832  15.369  70.778  1.00  0.00    -0.323 OA 
BRANCH  22  25
HETATM   25  N   UNL     1     -12.344  15.056  68.747  1.00  0.00    -0.598 N  
HETATM   26  H   UNL     1     -13.272  14.916  68.348  1.00  0.00     0.000 HD 
BRANCH  25  27
HETATM   27  C   UNL     1     -11.290  15.286  67.886  1.00  0.00    -0.334 C  
HETATM   28  O   UNL     1     -10.770  16.384  67.759  1.00  0.00    -0.322 OA 
BRANCH  27  29
HETATM   29  N   UNL     1     -10.865  14.184  67.182  1.00  0.00    -0.287 N  
HETATM   30  H   UNL     1      -9.871  13.980  67.083  1.00  0.00     0.000 HD 
BRANCH  29  31
HETATM   31  C   UNL     1     -11.871  13.314  66.578  1.00  0.00    -0.398 C  
HETATM   32  C   UNL     1     -12.739  14.030  65.536  1.00  0.00    -0.517 C  
HETATM   33  C   UNL     1     -12.144  14.082  64.130  1.00  0.00    -0.456 C  
HETATM   34  C   UNL     1     -11.603  12.732  63.645  1.00  0.00    -0.572 C  
HETATM   35  C   UNL     1     -10.614  12.172  64.672  1.00  0.00    -0.340 C  
HETATM   36  C   UNL     1     -12.725  11.734  63.330  1.00  0.00    -0.395 C  
HETATM   37  C   UNL     1     -11.238  12.015  66.057  1.00  0.00    -0.385 C  
ENDBRANCH  29  31
ENDBRANCH  27  29
ENDBRANCH  25  27
ENDBRANCH  22  25
ENDBRANCH  19  22
ENDBRANCH  15  16
ENDBRANCH  14  15
ENDBRANCH  12  14
ENDBRANCH  10  12
ENDBRANCH   7  10
ENDBRANCH   2   3
TORSDOF 11
ENDMDL
MODEL       28
REMARK 921   NORMALIZED FREE ENERGY PREDICTED BY IDOCK:   -6.62 KCAL/MOL
REMARK 922        TOTAL FREE ENERGY PREDICTED BY IDOCK:  -13.18 KCAL/MOL
REMARK 923 INTER-LIGAND FREE ENERGY PREDICTED BY IDOCK:  -10.70 KCAL/MOL
REMARK 924 INTRA-LIGAND FREE ENERGY PREDICTED BY IDOCK:   -2.48 KCAL/MOL
REMARK 927      BINDING AFFINITY PREDICTED BY RF-SCORE:    0.00 PKD
ROOT
HETATM    1  C   UNL     1      -9.721   9.372  67.077  1.00  0.00    -0.233 C  
HETATM    2  C   UNL     1      -9.001   8.193  67.715  1.00  0.00    -0.134 C  
ENDROOT
BRANCH   2   3
HETATM    3  C   UNL     1      -9.462   7.956  69.109  1.00  0.00    -0.155 C  
HETATM    4  C   UNL     1      -9.028   8.441  70.281  1.00  0.00    -0.147 C  
HETATM    5  C   UNL     1      -9.806   7.906  71.440  1.00  0.00    -0.168 C  
HETATM    6  C   UNL     1      -7.945   9.436  70.507  1.00  0.00    -0.199 C  
HETATM    7  N   UNL     1     -10.813   7.113  70.789  1.00  0.00    -0.239 N  
HETATM    8  O   UNL     1     -11.201   6.399  68.587  1.00  0.00    -0.329 OA 
HETATM    9  C   UNL     1     -10.596   7.059  69.417  1.00  0.00    -0.230 C  
BRANCH   7  10
HETATM   10  C   UNL     1     -11.933   6.691  71.482  1.00  0.00    -0.352 C  
HETATM   11  O   UNL     1     -11.857   6.020  72.509  1.00  0.00    -0.280 OA 
BRANCH  10  12
HETATM   12  N   UNL     1     -13.129   7.111  70.960  1.00  0.00    -0.556 N  
HETATM   13  H   UNL     1     -13.471   6.666  70.108  1.00  0.00     0.000 HD 
BRANCH  12  14
HETATM   14  C   UNL     1     -13.930   8.158  71.561  1.00  0.00    -0.348 C  
BRANCH  14  15
HETATM   15  C   UNL     1     -13.090   9.209  72.307  1.00  0.00    -0.509 C  
BRANCH  15  16
HETATM   16  C   UNL     1     -12.813  10.474  71.513  1.00  0.00    -0.568 A  
HETATM   17  C   UNL     1     -12.120  10.439  70.293  1.00  0.00    -0.370 A  
HETATM   18  C   UNL     1     -11.822  11.614  69.601  1.00  0.00    -0.419 A  
HETATM   19  C   UNL     1     -12.271  12.845  70.080  1.00  0.00    -0.266 A  
HETATM   20  C   UNL     1     -13.003  12.900  71.270  1.00  0.00    -0.317 A  
HETATM   21  C   UNL     1     -13.276  11.718  71.976  1.00  0.00    -0.460 A  
BRANCH  19  22
HETATM   22  S   UNL     1     -11.761  14.343  69.258  1.00  0.00    -0.337 S  
HETATM   23  O   UNL     1     -12.271  14.283  67.904  1.00  0.00    -0.311 OA 
HETATM   24  O   UNL     1     -12.078  15.471  70.106  1.00  0.00    -0.340 OA 
BRANCH  22  25
HETATM   25  N   UNL     1     -10.101  14.210  69.102  1.00  0.00    -0.426 N  
HETATM   26  H   UNL     1      -9.612  13.536  69.692  1.00  0.00     0.000 HD 
BRANCH  25  27
HETATM   27  C   UNL     1      -9.356  14.963  68.216  1.00  0.00    -0.195 C  
HETATM   28  O   UNL     1      -8.200  14.692  67.929  1.00  0.00    -0.133 OA 
BRANCH  27  29
HETATM   29  N   UNL     1     -10.016  16.043  67.676  1.00  0.00    -0.236 N  
HETATM   30  H   UNL     1     -11.034  16.064  67.635  1.00  0.00     0.000 HD 
BRANCH  29  31
HETATM   31  C   UNL     1      -9.222  17.157  67.163  1.00  0.00    -0.236 C  
HETATM   32  C   UNL     1      -9.982  18.020  66.148  1.00  0.00    -0.288 C  
HETATM   33  C   UNL     1     -10.860  19.110  66.760  1.00  0.00    -0.404 C  
HETATM   34  C   UNL     1     -10.150  19.930  67.842  1.00  0.00    -0.571 C  
HETATM   35  C   UNL     1      -9.568  18.992  68.905  1.00  0.00    -0.417 C  
HETATM   36  C   UNL     1      -9.082  20.865  67.259  1.00  0.00    -0.236 C  
HETATM   37  C   UNL     1      -8.603  17.969  68.311  1.00  0.00    -0.293 C  
ENDBRANCH  29  31
ENDBRANCH  27  29
ENDBRANCH  25  27
ENDBRANCH  22  25
ENDBRANCH  19  22
ENDBRANCH  15  16
ENDBRANCH  14  15
ENDBRANCH  12  14
ENDBRANCH  10  12
ENDBRANCH   7  10
ENDBRANCH   2   3
TORSDOF 11
ENDMDL
MODEL       29
REMARK 921   NORMALIZED FREE ENERGY PREDICTED BY IDOCK:   -6.60 KCAL/MOL
REMARK 922        TOTAL FREE ENERGY PREDICTED BY IDOCK:  -13.14 KCAL/MOL
REMARK 923 INTER-LIGAND FREE ENERGY PREDICTED BY IDOCK:  -10.23 KCAL/MOL
REMARK 924 INTRA-LIGAND FREE ENERGY PREDICTED BY IDOCK:   -2.91 KCAL/MOL
REMARK 927      BINDING AFFINITY PREDICTED BY RF-SCORE:    0.00 PKD
ROOT
HETATM    1  C   UNL     1      -6.203   9.070  68.204  1.00  0.00    -0.054 C  
HETATM    2  C   UNL     1      -7.380   9.979  68.525  1.00  0.00    -0.077 C  
ENDROOT
BRANCH   2   3
HETATM    3  C   UNL     1      -8.618   9.200  68.797  1.00  0.00    -0.131 C  
HETATM    4  C   UNL     1      -9.501   8.622  67.970  1.00  0.00    -0.154 C  
HETATM    5  C   UNL     1     -10.609   7.943  68.708  1.00  0.00    -0.127 C  
HETATM    6  C   UNL     1      -9.448   8.560  66.484  1.00  0.00    -0.282 C  
HETATM    7  N   UNL     1     -10.214   8.121  70.079  1.00  0.00    -0.198 N  
HETATM    8  O   UNL     1      -8.545   9.347  71.183  1.00  0.00    -0.297 OA 
HETATM    9  C   UNL     1      -9.082   8.922  70.172  1.00  0.00    -0.176 C  
BRANCH   7  10
HETATM   10  C   UNL     1     -10.802   7.374  71.083  1.00  0.00    -0.242 C  
HETATM   11  O   UNL     1     -10.810   6.145  71.070  1.00  0.00    -0.253 OA 
BRANCH  10  12
HETATM   12  N   UNL     1     -11.338   8.106  72.111  1.00  0.00    -0.310 N  
HETATM   13  H   UNL     1     -10.710   8.469  72.828  1.00  0.00     0.000 HD 
BRANCH  12  14
HETATM   14  C   UNL     1     -12.755   8.387  72.228  1.00  0.00    -0.329 C  
BRANCH  14  15
HETATM   15  C   UNL     1     -13.318   9.162  71.024  1.00  0.00    -0.089 C  
BRANCH  15  16
HETATM   16  C   UNL     1     -13.000  10.648  71.027  1.00  0.00    -0.456 A  
HETATM   17  C   UNL     1     -13.455  11.495  72.048  1.00  0.00    -0.298 A  
HETATM   18  C   UNL     1     -13.204  12.867  72.009  1.00  0.00    -0.549 A  
HETATM   19  C   UNL     1     -12.434  13.413  70.983  1.00  0.00    -0.353 A  
HETATM   20  C   UNL     1     -11.930  12.581  69.978  1.00  0.00    -0.372 A  
HETATM   21  C   UNL     1     -12.208  11.206  70.007  1.00  0.00    -0.402 A  
BRANCH  19  22
HETATM   22  S   UNL     1     -12.244  15.182  70.876  1.00  0.00    -0.380 S  
HETATM   23  O   UNL     1     -13.479  15.713  70.334  1.00  0.00    -0.296 OA 
HETATM   24  O   UNL     1     -11.732  15.673  72.136  1.00  0.00    -0.407 OA 
BRANCH  22  25
HETATM   25  N   UNL     1     -11.105  15.427  69.676  1.00  0.00    -0.255 N  
HETATM   26  H   UNL     1     -10.126  15.240  69.893  1.00  0.00     0.000 HD 
BRANCH  25  27
HETATM   27  C   UNL     1     -11.420  15.869  68.406  1.00  0.00    -0.348 C  
HETATM   28  O   UNL     1     -11.257  17.027  68.052  1.00  0.00    -0.251 OA 
BRANCH  27  29
HETATM   29  N   UNL     1     -11.927  14.906  67.566  1.00  0.00    -0.465 N  
HETATM   30  H   UNL     1     -12.727  14.339  67.845  1.00  0.00     0.000 HD 
BRANCH  29  31
HETATM   31  C   UNL     1     -11.293  14.715  66.263  1.00  0.00    -0.347 C  
HETATM   32  C   UNL     1      -9.995  13.901  66.339  1.00  0.00    -0.303 C  
HETATM   33  C   UNL     1     -10.183  12.386  66.314  1.00  0.00    -0.258 C  
HETATM   34  C   UNL     1     -11.136  11.907  65.212  1.00  0.00    -0.354 C  
HETATM   35  C   UNL     1     -12.469  12.654  65.319  1.00  0.00    -0.483 C  
HETATM   36  C   UNL     1     -10.520  12.037  63.813  1.00  0.00    -0.469 C  
HETATM   37  C   UNL     1     -12.296  14.169  65.235  1.00  0.00    -0.469 C  
ENDBRANCH  29  31
ENDBRANCH  27  29
ENDBRANCH  25  27
ENDBRANCH  22  25
ENDBRANCH  19  22
ENDBRANCH  15  16
ENDBRANCH  14  15
ENDBRANCH  12  14
ENDBRANCH  10  12
ENDBRANCH   7  10
ENDBRANCH   2   3
TORSDOF 11
ENDMDL
MODEL       30
REMARK 921   NORMALIZED FREE ENERGY PREDICTED BY IDOCK:   -6.59 KCAL/MOL
REMARK 922        TOTAL FREE ENERGY PREDICTED BY IDOCK:  -13.14 KCAL/MOL
REMARK 923 INTER-LIGAND FREE ENERGY PREDICTED BY IDOCK:  -10.18 KCAL/MOL
REMARK 924 INTRA-LIGAND FREE ENERGY PREDICTED BY IDOCK:   -2.96 KCAL/MOL
REMARK 927      BINDING AFFINITY PREDICTED BY RF-SCORE:    0.00 PKD
ROOT
HETATM    1  C   UNL     1      -7.993   6.492  67.518  1.00  0.00    -0.114 C  
HETATM    2  C   UNL     1      -9.214   7.396  67.597  1.00  0.00    -0.132 C  
ENDROOT
BRANCH   2   3
HETATM    3  C   UNL     1      -9.567   7.721  69.004  1.00  0.00    -0.155 C  
HETATM    4  C   UNL     1      -9.152   8.702  69.819  1.00  0.00    -0.150 C  
HETATM    5  C   UNL     1      -9.788   8.625  71.170  1.00  0.00    -0.222 C  
HETATM    6  C   UNL     1      -8.215   9.813  69.499  1.00  0.00    -0.146 C  
HETATM    7  N   UNL     1     -10.699   7.524  71.013  1.00  0.00    -0.229 N  
HETATM    8  O   UNL     1     -11.086   5.907  69.357  1.00  0.00    -0.363 OA 
HETATM    9  C   UNL     1     -10.544   6.919  69.772  1.00  0.00    -0.233 C  
BRANCH   7  10
HETATM   10  C   UNL     1     -11.711   7.313  71.932  1.00  0.00    -0.287 C  
HETATM   11  O   UNL     1     -12.070   6.187  72.270  1.00  0.00    -0.311 OA 
BRANCH  10  12
HETATM   12  N   UNL     1     -12.254   8.454  72.467  1.00  0.00    -0.500 N  
HETATM   13  H   UNL     1     -11.947   8.749  73.395  1.00  0.00     0.000 HD 
BRANCH  12  14
HETATM   14  C   UNL     1     -13.242   9.259  71.778  1.00  0.00    -0.403 C  
BRANCH  14  15
HETATM   15  C   UNL     1     -13.089  10.765  72.049  1.00  0.00    -0.476 C  
BRANCH  15  16
HETATM   16  C   UNL     1     -12.559  11.567  70.872  1.00  0.00    -0.438 A  
HETATM   17  C   UNL     1     -12.110  10.941  69.700  1.00  0.00    -0.400 A  
HETATM   18  C   UNL     1     -11.573  11.685  68.648  1.00  0.00    -0.373 A  
HETATM   19  C   UNL     1     -11.536  13.077  68.719  1.00  0.00    -0.298 A  
HETATM   20  C   UNL     1     -12.020  13.726  69.858  1.00  0.00    -0.412 A  
HETATM   21  C   UNL     1     -12.535  12.972  70.924  1.00  0.00    -0.396 A  
BRANCH  19  22
HETATM   22  S   UNL     1     -10.719  13.998  67.429  1.00  0.00    -0.286 S  
HETATM   23  O   UNL     1     -10.637  15.375  67.871  1.00  0.00    -0.255 OA 
HETATM   24  O   UNL     1      -9.521  13.287  67.036  1.00  0.00    -0.227 OA 
BRANCH  22  25
HETATM   25  N   UNL     1     -11.801  14.016  66.154  1.00  0.00    -0.387 N  
HETATM   26  H   UNL     1     -12.409  14.828  66.047  1.00  0.00     0.000 HD 
BRANCH  25  27
HETATM   27  C   UNL     1     -11.916  12.989  65.237  1.00  0.00    -0.407 C  
HETATM   28  O   UNL     1     -12.989  12.484  64.944  1.00  0.00    -0.821 OA 
BRANCH  27  29
HETATM   29  N   UNL     1     -10.730  12.579  64.675  1.00  0.00    -0.294 N  
HETATM   30  H   UNL     1      -9.963  13.236  64.538  1.00  0.00     0.000 HD 
BRANCH  29  31
HETATM   31  C   UNL     1     -10.597  11.179  64.277  1.00  0.00    -0.357 C  
HETATM   32  C   UNL     1      -9.734  10.990  63.024  1.00  0.00    -0.381 C  
HETATM   33  C   UNL     1      -8.230  10.914  63.283  1.00  0.00     0.097 C  
HETATM   34  C   UNL     1      -7.855   9.966  64.427  1.00  0.00    -0.142 C  
HETATM   35  C   UNL     1      -8.641  10.339  65.688  1.00  0.00    -0.170 C  
HETATM   36  C   UNL     1      -8.047   8.492  64.050  1.00  0.00    -0.156 C  
HETATM   37  C   UNL     1     -10.151  10.309  65.462  1.00  0.00    -0.351 C  
ENDBRANCH  29  31
ENDBRANCH  27  29
ENDBRANCH  25  27
ENDBRANCH  22  25
ENDBRANCH  19  22
ENDBRANCH  15  16
ENDBRANCH  14  15
ENDBRANCH  12  14
ENDBRANCH  10  12
ENDBRANCH   7  10
ENDBRANCH   2   3
TORSDOF 11
ENDMDL
MODEL       31
REMARK 921   NORMALIZED FREE ENERGY PREDICTED BY IDOCK:   -6.57 KCAL/MOL
REMARK 922        TOTAL FREE ENERGY PREDICTED BY IDOCK:  -13.10 KCAL/MOL
REMARK 923 INTER-LIGAND FREE ENERGY PREDICTED BY IDOCK:  -11.93 KCAL/MOL
REMARK 924 INTRA-LIGAND FREE ENERGY PREDICTED BY IDOCK:   -1.17 KCAL/MOL
REMARK 927      BINDING AFFINITY PREDICTED BY RF-SCORE:    0.00 PKD
ROOT
HETATM    1  C   UNL     1      -8.319  19.284  68.253  1.00  0.00    -0.373 C  
HETATM    2  C   UNL     1      -8.136  17.800  68.533  1.00  0.00    -0.297 C  
ENDROOT
BRANCH   2   3
HETATM    3  C   UNL     1      -9.196  16.983  67.883  1.00  0.00    -0.239 C  
HETATM    4  C   UNL     1     -10.282  16.377  68.386  1.00  0.00    -0.259 C  
HETATM    5  C   UNL     1     -11.064  15.655  67.337  1.00  0.00    -0.260 C  
HETATM    6  C   UNL     1     -10.768  16.404  69.792  1.00  0.00    -0.324 C  
HETATM    7  N   UNL     1     -10.345  15.989  66.138  1.00  0.00    -0.313 N  
HETATM    8  O   UNL     1      -8.316  17.066  65.660  1.00  0.00    -0.417 OA 
HETATM    9  C   UNL     1      -9.195  16.711  66.430  1.00  0.00    -0.287 C  
BRANCH   7  10
HETATM   10  C   UNL     1     -10.915  15.779  64.895  1.00  0.00    -0.427 C  
HETATM   11  O   UNL     1     -11.369  16.696  64.215  1.00  0.00    -1.116 OA 
BRANCH  10  12
HETATM   12  N   UNL     1     -10.897  14.477  64.463  1.00  0.00    -0.621 N  
HETATM   13  H   UNL     1     -10.253  14.223  63.714  1.00  0.00     0.000 HD 
BRANCH  12  14
HETATM   14  C   UNL     1     -11.750  13.447  65.020  1.00  0.00    -0.325 C  
BRANCH  14  15
HETATM   15  C   UNL     1     -11.015  12.116  65.256  1.00  0.00    -0.349 C  
BRANCH  15  16
HETATM   16  C   UNL     1     -11.130  11.574  66.671  1.00  0.00    -0.355 A  
HETATM   17  C   UNL     1     -10.694  10.283  67.001  1.00  0.00    -0.281 A  
HETATM   18  C   UNL     1     -10.858   9.776  68.292  1.00  0.00    -0.256 A  
HETATM   19  C   UNL     1     -11.399  10.577  69.298  1.00  0.00    -0.262 A  
HETATM   20  C   UNL     1     -11.798  11.884  69.003  1.00  0.00    -0.368 A  
HETATM   21  C   UNL     1     -11.656  12.379  67.698  1.00  0.00    -0.421 A  
BRANCH  19  22
HETATM   22  S   UNL     1     -11.728   9.866  70.899  1.00  0.00    -0.391 S  
HETATM   23  O   UNL     1     -10.447   9.549  71.499  1.00  0.00    -0.302 OA 
HETATM   24  O   UNL     1     -12.669  10.712  71.600  1.00  0.00    -0.406 OA 
BRANCH  22  25
HETATM   25  N   UNL     1     -12.436   8.385  70.581  1.00  0.00    -0.449 N  
HETATM   26  H   UNL     1     -12.451   8.053  69.617  1.00  0.00     0.000 HD 
BRANCH  25  27
HETATM   27  C   UNL     1     -13.001   7.586  71.556  1.00  0.00    -0.359 C  
HETATM   28  O   UNL     1     -14.195   7.331  71.589  1.00  0.00    -0.430 OA 
BRANCH  27  29
HETATM   29  N   UNL     1     -12.117   7.094  72.487  1.00  0.00    -0.503 N  
HETATM   30  H   UNL     1     -12.007   7.548  73.393  1.00  0.00     0.000 HD 
BRANCH  29  31
HETATM   31  C   UNL     1     -11.338   5.905  72.147  1.00  0.00    -0.288 C  
HETATM   32  C   UNL     1      -9.936   6.235  71.620  1.00  0.00    -0.202 C  
HETATM   33  C   UNL     1      -8.876   6.448  72.699  1.00  0.00    -0.125 C  
HETATM   34  C   UNL     1      -8.878   5.361  73.780  1.00  0.00    -0.124 C  
HETATM   35  C   UNL     1     -10.285   5.220  74.370  1.00  0.00    -0.299 C  
HETATM   36  C   UNL     1      -8.340   4.022  73.261  1.00  0.00    -0.089 C  
HETATM   37  C   UNL     1     -11.332   4.897  73.306  1.00  0.00    -0.408 C  
ENDBRANCH  29  31
ENDBRANCH  27  29
ENDBRANCH  25  27
ENDBRANCH  22  25
ENDBRANCH  19  22
ENDBRANCH  15  16
ENDBRANCH  14  15
ENDBRANCH  12  14
ENDBRANCH  10  12
ENDBRANCH   7  10
ENDBRANCH   2   3
TORSDOF 11
ENDMDL
MODEL       32
REMARK 921   NORMALIZED FREE ENERGY PREDICTED BY IDOCK:   -6.56 KCAL/MOL
REMARK 922        TOTAL FREE ENERGY PREDICTED BY IDOCK:  -13.09 KCAL/MOL
REMARK 923 INTER-LIGAND FREE ENERGY PREDICTED BY IDOCK:  -11.62 KCAL/MOL
REMARK 924 INTRA-LIGAND FREE ENERGY PREDICTED BY IDOCK:   -1.47 KCAL/MOL
REMARK 927      BINDING AFFINITY PREDICTED BY RF-SCORE:    0.00 PKD
ROOT
HETATM    1  C   UNL     1     -10.601   6.733  73.085  1.00  0.00    -0.315 C  
HETATM    2  C   UNL     1     -11.176   5.517  72.376  1.00  0.00    -0.305 C  
ENDROOT
BRANCH   2   3
HETATM    3  C   UNL     1     -10.454   5.226  71.109  1.00  0.00    -0.275 C  
HETATM    4  C   UNL     1      -9.432   4.401  70.840  1.00  0.00    -0.241 C  
HETATM    5  C   UNL     1      -9.030   4.446  69.401  1.00  0.00    -0.098 C  
HETATM    6  C   UNL     1      -8.745   3.471  71.777  1.00  0.00    -0.122 C  
HETATM    7  N   UNL     1     -10.008   5.338  68.841  1.00  0.00    -0.168 N  
HETATM    8  O   UNL     1     -11.679   6.735  69.715  1.00  0.00    -0.270 OA 
HETATM    9  C   UNL     1     -10.820   5.876  69.833  1.00  0.00    -0.369 C  
BRANCH   7  10
HETATM   10  C   UNL     1     -10.189   5.413  67.472  1.00  0.00    -0.194 C  
HETATM   11  O   UNL     1     -10.266   4.413  66.762  1.00  0.00    -0.202 OA 
BRANCH  10  12
HETATM   12  N   UNL     1     -10.317   6.684  66.973  1.00  0.00    -0.231 N  
HETATM   13  H   UNL     1     -11.247   7.010  66.707  1.00  0.00     0.000 HD 
BRANCH  12  14
HETATM   14  C   UNL     1      -9.195   7.586  66.807  1.00  0.00    -0.156 C  
BRANCH  14  15
HETATM   15  C   UNL     1      -9.343   8.889  67.611  1.00  0.00    -0.156 C  
BRANCH  15  16
HETATM   16  C   UNL     1     -10.095   9.994  66.888  1.00  0.00    -0.287 A  
HETATM   17  C   UNL     1      -9.994  10.164  65.499  1.00  0.00    -0.363 A  
HETATM   18  C   UNL     1     -10.644  11.218  64.854  1.00  0.00    -0.364 A  
HETATM   19  C   UNL     1     -11.465  12.084  65.576  1.00  0.00    -0.313 A  
HETATM   20  C   UNL     1     -11.618  11.906  66.954  1.00  0.00    -0.358 A  
HETATM   21  C   UNL     1     -10.941  10.862  67.602  1.00  0.00    -0.350 A  
BRANCH  19  22
HETATM   22  S   UNL     1     -12.172  13.503  64.759  1.00  0.00    -0.410 S  
HETATM   23  O   UNL     1     -12.498  13.100  63.406  1.00  0.00    -0.730 OA 
HETATM   24  O   UNL     1     -13.191  14.073  65.614  1.00  0.00    -0.634 OA 
BRANCH  22  25
HETATM   25  N   UNL     1     -10.908  14.586  64.596  1.00  0.00    -0.587 N  
HETATM   26  H   UNL     1      -9.997  14.226  64.312  1.00  0.00     0.000 HD 
BRANCH  25  27
HETATM   27  C   UNL     1     -11.033  15.942  64.825  1.00  0.00    -0.375 C  
HETATM   28  O   UNL     1     -11.500  16.710  63.999  1.00  0.00    -1.192 OA 
BRANCH  27  29
HETATM   29  N   UNL     1     -10.594  16.365  66.058  1.00  0.00    -0.302 N  
HETATM   30  H   UNL     1     -10.802  15.827  66.899  1.00  0.00     0.000 HD 
BRANCH  29  31
HETATM   31  C   UNL     1      -9.821  17.602  66.134  1.00  0.00    -0.242 C  
HETATM   32  C   UNL     1     -10.439  18.641  67.078  1.00  0.00    -0.453 C  
HETATM   33  C   UNL     1     -10.061  18.479  68.550  1.00  0.00    -0.414 C  
HETATM   34  C   UNL     1      -8.559  18.273  68.775  1.00  0.00    -0.240 C  
HETATM   35  C   UNL     1      -8.062  17.104  67.917  1.00  0.00    -0.201 C  
HETATM   36  C   UNL     1      -7.750  19.551  68.520  1.00  0.00    -0.389 C  
HETATM   37  C   UNL     1      -8.342  17.313  66.431  1.00  0.00    -0.315 C  
ENDBRANCH  29  31
ENDBRANCH  27  29
ENDBRANCH  25  27
ENDBRANCH  22  25
ENDBRANCH  19  22
ENDBRANCH  15  16
ENDBRANCH  14  15
ENDBRANCH  12  14
ENDBRANCH  10  12
ENDBRANCH   7  10
ENDBRANCH   2   3
TORSDOF 11
ENDMDL
MODEL       33
REMARK 921   NORMALIZED FREE ENERGY PREDICTED BY IDOCK:   -6.55 KCAL/MOL
REMARK 922        TOTAL FREE ENERGY PREDICTED BY IDOCK:  -13.08 KCAL/MOL
REMARK 923 INTER-LIGAND FREE ENERGY PREDICTED BY IDOCK:  -10.69 KCAL/MOL
REMARK 924 INTRA-LIGAND FREE ENERGY PREDICTED BY IDOCK:   -2.39 KCAL/MOL
REMARK 927      BINDING AFFINITY PREDICTED BY RF-SCORE:    0.00 PKD
ROOT
HETATM    1  C   UNL     1     -14.149   8.811  71.484  1.00  0.00    -0.383 C  
HETATM    2  C   UNL     1     -13.221  10.016  71.533  1.00  0.00    -0.497 C  
ENDROOT
BRANCH   2   3
HETATM    3  C   UNL     1     -11.885   9.704  70.958  1.00  0.00    -0.428 C  
HETATM    4  C   UNL     1     -10.867   8.969  71.427  1.00  0.00    -0.400 C  
HETATM    5  C   UNL     1      -9.704   8.945  70.488  1.00  0.00    -0.203 C  
HETATM    6  C   UNL     1     -10.819   8.187  72.693  1.00  0.00    -0.429 C  
HETATM    7  N   UNL     1     -10.206   9.688  69.365  1.00  0.00    -0.197 N  
HETATM    8  O   UNL     1     -12.126  10.971  68.943  1.00  0.00    -0.479 OA 
HETATM    9  C   UNL     1     -11.464  10.215  69.636  1.00  0.00    -0.198 C  
BRANCH   7  10
HETATM   10  C   UNL     1      -9.559   9.640  68.144  1.00  0.00    -0.143 C  
HETATM   11  O   UNL     1      -8.339   9.523  68.049  1.00  0.00    -0.117 OA 
BRANCH  10  12
HETATM   12  N   UNL     1     -10.384   9.690  67.049  1.00  0.00    -0.247 N  
HETATM   13  H   UNL     1     -11.348   9.375  67.153  1.00  0.00     0.000 HD 
BRANCH  12  14
HETATM   14  C   UNL     1      -9.949  10.169  65.752  1.00  0.00    -0.271 C  
BRANCH  14  15
HETATM   15  C   UNL     1     -10.890  11.230  65.154  1.00  0.00    -0.268 C  
BRANCH  15  16
HETATM   16  C   UNL     1     -10.522  12.663  65.496  1.00  0.00    -0.304 A  
HETATM   17  C   UNL     1     -11.165  13.752  64.889  1.00  0.00    -0.352 A  
HETATM   18  C   UNL     1     -10.779  15.064  65.170  1.00  0.00    -0.434 A  
HETATM   19  C   UNL     1      -9.786  15.317  66.117  1.00  0.00    -0.314 A  
HETATM   20  C   UNL     1      -9.162  14.249  66.769  1.00  0.00    -0.282 A  
HETATM   21  C   UNL     1      -9.536  12.931  66.463  1.00  0.00    -0.251 A  
BRANCH  19  22
HETATM   22  S   UNL     1      -9.211  16.987  66.356  1.00  0.00    -0.260 S  
HETATM   23  O   UNL     1      -7.827  17.030  65.928  1.00  0.00    -0.438 OA 
HETATM   24  O   UNL     1     -10.177  17.899  65.785  1.00  0.00    -0.577 OA 
BRANCH  22  25
HETATM   25  N   UNL     1      -9.157  17.196  68.015  1.00  0.00    -0.234 N  
HETATM   26  H   UNL     1      -8.348  16.835  68.521  1.00  0.00     0.000 HD 
BRANCH  25  27
HETATM   27  C   UNL     1     -10.149  17.831  68.736  1.00  0.00    -0.381 C  
HETATM   28  O   UNL     1     -10.113  19.023  68.997  1.00  0.00    -0.403 OA 
BRANCH  27  29
HETATM   29  N   UNL     1     -11.185  17.019  69.135  1.00  0.00    -0.195 N  
HETATM   30  H   UNL     1     -12.100  17.084  68.690  1.00  0.00     0.000 HD 
BRANCH  29  31
HETATM   31  C   UNL     1     -10.943  16.064  70.214  1.00  0.00    -0.354 C  
HETATM   32  C   UNL     1     -11.721  16.392  71.494  1.00  0.00    -0.337 C  
HETATM   33  C   UNL     1     -13.152  15.859  71.532  1.00  0.00    -0.278 C  
HETATM   34  C   UNL     1     -13.269  14.390  71.112  1.00  0.00    -0.414 C  
HETATM   35  C   UNL     1     -12.613  14.190  69.741  1.00  0.00    -0.151 C  
HETATM   36  C   UNL     1     -12.692  13.435  72.164  1.00  0.00    -0.201 C  
HETATM   37  C   UNL     1     -11.148  14.620  69.729  1.00  0.00    -0.268 C  
ENDBRANCH  29  31
ENDBRANCH  27  29
ENDBRANCH  25  27
ENDBRANCH  22  25
ENDBRANCH  19  22
ENDBRANCH  15  16
ENDBRANCH  14  15
ENDBRANCH  12  14
ENDBRANCH  10  12
ENDBRANCH   7  10
ENDBRANCH   2   3
TORSDOF 11
ENDMDL
MODEL       34
REMARK 921   NORMALIZED FREE ENERGY PREDICTED BY IDOCK:   -6.51 KCAL/MOL
REMARK 922        TOTAL FREE ENERGY PREDICTED BY IDOCK:  -13.00 KCAL/MOL
REMARK 923 INTER-LIGAND FREE ENERGY PREDICTED BY IDOCK:  -10.48 KCAL/MOL
REMARK 924 INTRA-LIGAND FREE ENERGY PREDICTED BY IDOCK:   -2.52 KCAL/MOL
REMARK 927      BINDING AFFINITY PREDICTED BY RF-SCORE:    0.00 PKD
ROOT
HETATM    1  C   UNL     1     -10.641  11.409  64.205  1.00  0.00    -0.430 C  
HETATM    2  C   UNL     1     -11.912  12.086  64.693  1.00  0.00    -0.326 C  
ENDROOT
BRANCH   2   3
HETATM    3  C   UNL     1     -11.666  12.908  65.907  1.00  0.00    -0.449 C  
HETATM    4  C   UNL     1     -11.330  14.199  66.051  1.00  0.00    -0.330 C  
HETATM    5  C   UNL     1     -11.183  14.589  67.487  1.00  0.00    -0.321 C  
HETATM    6  C   UNL     1     -11.153  15.216  64.980  1.00  0.00    -0.428 C  
HETATM    7  N   UNL     1     -11.564  13.383  68.170  1.00  0.00    -0.319 N  
HETATM    8  O   UNL     1     -12.025  11.176  67.517  1.00  0.00    -0.580 OA 
HETATM    9  C   UNL     1     -11.785  12.348  67.270  1.00  0.00    -0.349 C  
BRANCH   7  10
HETATM   10  C   UNL     1     -11.867  13.406  69.519  1.00  0.00    -0.332 C  
HETATM   11  O   UNL     1     -12.343  14.395  70.071  1.00  0.00    -0.326 OA 
BRANCH  10  12
HETATM   12  N   UNL     1     -11.635  12.228  70.184  1.00  0.00    -0.537 N  
HETATM   13  H   UNL     1     -10.753  11.742  70.018  1.00  0.00     0.000 HD 
BRANCH  12  14
HETATM   14  C   UNL     1     -12.583  11.643  71.110  1.00  0.00    -0.335 C  
BRANCH  14  15
HETATM   15  C   UNL     1     -13.097  10.265  70.657  1.00  0.00    -0.292 C  
BRANCH  15  16
HETATM   16  C   UNL     1     -12.416   9.086  71.331  1.00  0.00    -0.378 A  
HETATM   17  C   UNL     1     -11.159   9.213  71.940  1.00  0.00    -0.385 A  
HETATM   18  C   UNL     1     -10.518   8.109  72.505  1.00  0.00    -0.409 A  
HETATM   19  C   UNL     1     -11.153   6.867  72.535  1.00  0.00    -0.266 A  
HETATM   20  C   UNL     1     -12.426   6.727  71.975  1.00  0.00    -0.285 A  
HETATM   21  C   UNL     1     -13.054   7.834  71.384  1.00  0.00    -0.310 A  
BRANCH  19  22
HETATM   22  S   UNL     1     -10.262   5.444  73.134  1.00  0.00    -0.203 S  
HETATM   23  O   UNL     1      -9.328   5.914  74.137  1.00  0.00    -0.130 OA 
HETATM   24  O   UNL     1     -11.212   4.401  73.455  1.00  0.00    -0.291 OA 
BRANCH  22  25
HETATM   25  N   UNL     1      -9.308   4.955  71.850  1.00  0.00    -0.140 N  
HETATM   26  H   UNL     1      -8.319   5.207  71.859  1.00  0.00     0.000 HD 
BRANCH  25  27
HETATM   27  C   UNL     1      -9.787   4.228  70.778  1.00  0.00    -0.195 C  
HETATM   28  O   UNL     1      -9.728   3.009  70.730  1.00  0.00    -0.162 OA 
BRANCH  27  29
HETATM   29  N   UNL     1     -10.340   4.979  69.768  1.00  0.00    -0.267 N  
HETATM   30  H   UNL     1     -11.350   5.089  69.692  1.00  0.00     0.000 HD 
BRANCH  29  31
HETATM   31  C   UNL     1      -9.444   5.616  68.805  1.00  0.00    -0.126 C  
HETATM   32  C   UNL     1      -9.847   5.362  67.348  1.00  0.00    -0.175 C  
HETATM   33  C   UNL     1     -10.897   6.322  66.794  1.00  0.00    -0.367 C  
HETATM   34  C   UNL     1     -10.596   7.795  67.091  1.00  0.00    -0.401 C  
HETATM   35  C   UNL     1     -10.374   7.985  68.595  1.00  0.00    -0.224 C  
HETATM   36  C   UNL     1      -9.415   8.326  66.269  1.00  0.00    -0.271 C  
HETATM   37  C   UNL     1      -9.249   7.104  69.133  1.00  0.00    -0.139 C  
ENDBRANCH  29  31
ENDBRANCH  27  29
ENDBRANCH  25  27
ENDBRANCH  22  25
ENDBRANCH  19  22
ENDBRANCH  15  16
ENDBRANCH  14  15
ENDBRANCH  12  14
ENDBRANCH  10  12
ENDBRANCH   7  10
ENDBRANCH   2   3
TORSDOF 11
ENDMDL
MODEL       35
REMARK 921   NORMALIZED FREE ENERGY PREDICTED BY IDOCK:   -6.50 KCAL/MOL
REMARK 922        TOTAL FREE ENERGY PREDICTED BY IDOCK:  -12.98 KCAL/MOL
REMARK 923 INTER-LIGAND FREE ENERGY PREDICTED BY IDOCK:  -10.47 KCAL/MOL
REMARK 924 INTRA-LIGAND FREE ENERGY PREDICTED BY IDOCK:   -2.51 KCAL/MOL
REMARK 927      BINDING AFFINITY PREDICTED BY RF-SCORE:    0.00 PKD
ROOT
HETATM    1  C   UNL     1     -12.125  15.819  72.335  1.00  0.00    -0.588 C  
HETATM    2  C   UNL     1     -12.978  15.450  71.130  1.00  0.00    -0.545 C  
ENDROOT
BRANCH   2   3
HETATM    3  C   UNL     1     -12.193  14.709  70.108  1.00  0.00    -0.391 C  
HETATM    4  C   UNL     1     -11.938  13.400  69.962  1.00  0.00    -0.407 C  
HETATM    5  C   UNL     1     -11.084  13.118  68.768  1.00  0.00    -0.269 C  
HETATM    6  C   UNL     1     -12.440  12.279  70.801  1.00  0.00    -0.356 C  
HETATM    7  N   UNL     1     -10.945  14.422  68.180  1.00  0.00    -0.247 N  
HETATM    8  O   UNL     1     -11.500  16.608  68.829  1.00  0.00    -0.238 OA 
HETATM    9  C   UNL     1     -11.524  15.397  68.983  1.00  0.00    -0.337 C  
BRANCH   7  10
HETATM   10  C   UNL     1     -10.486  14.563  66.883  1.00  0.00    -0.269 C  
HETATM   11  O   UNL     1      -9.323  14.325  66.566  1.00  0.00    -0.276 OA 
BRANCH  10  12
HETATM   12  N   UNL     1     -11.436  14.948  65.971  1.00  0.00    -0.318 N  
HETATM   13  H   UNL     1     -11.457  15.923  65.674  1.00  0.00     0.000 HD 
BRANCH  12  14
HETATM   14  C   UNL     1     -12.411  14.034  65.411  1.00  0.00    -0.498 C  
BRANCH  14  15
HETATM   15  C   UNL     1     -11.911  13.318  64.145  1.00  0.00    -0.497 C  
BRANCH  15  16
HETATM   16  C   UNL     1     -11.118  12.050  64.409  1.00  0.00    -0.399 A  
HETATM   17  C   UNL     1     -11.150  11.410  65.657  1.00  0.00    -0.207 A  
HETATM   18  C   UNL     1     -10.373  10.278  65.906  1.00  0.00    -0.241 A  
HETATM   19  C   UNL     1      -9.598   9.720  64.888  1.00  0.00    -0.246 A  
HETATM   20  C   UNL     1      -9.586  10.313  63.623  1.00  0.00    -0.334 A  
HETATM   21  C   UNL     1     -10.348  11.468  63.386  1.00  0.00    -0.469 A  
BRANCH  19  22
HETATM   22  S   UNL     1      -8.507   8.361  65.264  1.00  0.00    -0.151 S  
HETATM   23  O   UNL     1      -8.124   7.758  64.004  1.00  0.00    -0.131 OA 
HETATM   24  O   UNL     1      -7.494   8.819  66.190  1.00  0.00    -0.088 OA 
BRANCH  22  25
HETATM   25  N   UNL     1      -9.474   7.220  66.013  1.00  0.00    -0.403 N  
HETATM   26  H   UNL     1     -10.306   6.894  65.521  1.00  0.00     0.000 HD 
BRANCH  25  27
HETATM   27  C   UNL     1      -9.206   6.696  67.262  1.00  0.00    -0.125 C  
HETATM   28  O   UNL     1      -8.891   5.529  67.434  1.00  0.00    -0.108 OA 
BRANCH  27  29
HETATM   29  N   UNL     1      -9.317   7.589  68.302  1.00  0.00    -0.141 N  
HETATM   30  H   UNL     1      -8.499   8.088  68.651  1.00  0.00     0.000 HD 
BRANCH  29  31
HETATM   31  C   UNL     1     -10.635   7.806  68.894  1.00  0.00    -0.150 C  
HETATM   32  C   UNL     1     -11.051   6.692  69.863  1.00  0.00    -0.403 C  
HETATM   33  C   UNL     1     -10.536   6.856  71.292  1.00  0.00    -0.244 C  
HETATM   34  C   UNL     1     -10.750   8.264  71.859  1.00  0.00    -0.350 C  
HETATM   35  C   UNL     1     -10.151   9.303  70.906  1.00  0.00    -0.373 C  
HETATM   36  C   UNL     1     -12.225   8.552  72.164  1.00  0.00    -0.446 C  
HETATM   37  C   UNL     1     -10.743   9.213  69.501  1.00  0.00    -0.226 C  
ENDBRANCH  29  31
ENDBRANCH  27  29
ENDBRANCH  25  27
ENDBRANCH  22  25
ENDBRANCH  19  22
ENDBRANCH  15  16
ENDBRANCH  14  15
ENDBRANCH  12  14
ENDBRANCH  10  12
ENDBRANCH   7  10
ENDBRANCH   2   3
TORSDOF 11
ENDMDL
MODEL       36
REMARK 921   NORMALIZED FREE ENERGY PREDICTED BY IDOCK:   -6.42 KCAL/MOL
REMARK 922        TOTAL FREE ENERGY PREDICTED BY IDOCK:  -12.85 KCAL/MOL
REMARK 923 INTER-LIGAND FREE ENERGY PREDICTED BY IDOCK:  -11.62 KCAL/MOL
REMARK 924 INTRA-LIGAND FREE ENERGY PREDICTED BY IDOCK:   -1.23 KCAL/MOL
REMARK 927      BINDING AFFINITY PREDICTED BY RF-SCORE:    0.00 PKD
ROOT
HETATM    1  C   UNL     1      -7.695   5.925  73.392  1.00  0.00    -0.101 C  
HETATM    2  C   UNL     1      -8.873   6.381  74.239  1.00  0.00    -0.158 C  
ENDROOT
BRANCH   2   3
HETATM    3  C   UNL     1     -10.147   6.348  73.472  1.00  0.00    -0.240 C  
HETATM    4  C   UNL     1     -11.022   5.356  73.249  1.00  0.00    -0.358 C  
HETATM    5  C   UNL     1     -12.173   5.796  72.403  1.00  0.00     0.070 C  
HETATM    6  C   UNL     1     -10.975   3.967  73.779  1.00  0.00    -0.321 C  
HETATM    7  N   UNL     1     -11.906   7.198  72.231  1.00  0.00    -0.267 N  
HETATM    8  O   UNL     1     -10.109   8.622  72.733  1.00  0.00    -0.199 OA 
HETATM    9  C   UNL     1     -10.680   7.544  72.787  1.00  0.00    -0.330 C  
BRANCH   7  10
HETATM   10  C   UNL     1     -12.892   8.050  71.769  1.00  0.00    -0.332 C  
HETATM   11  O   UNL     1     -13.971   7.640  71.345  1.00  0.00    -0.383 OA 
BRANCH  10  12
HETATM   12  N   UNL     1     -12.592   9.385  71.858  1.00  0.00    -0.383 N  
HETATM   13  H   UNL     1     -12.195   9.736  72.730  1.00  0.00     0.000 HD 
BRANCH  12  14
HETATM   14  C   UNL     1     -12.813  10.320  70.774  1.00  0.00    -0.344 C  
BRANCH  14  15
HETATM   15  C   UNL     1     -11.556  11.127  70.406  1.00  0.00    -0.355 C  
BRANCH  15  16
HETATM   16  C   UNL     1     -11.544  11.662  68.984  1.00  0.00    -0.379 A  
HETATM   17  C   UNL     1     -11.187  10.852  67.897  1.00  0.00    -0.387 A  
HETATM   18  C   UNL     1     -11.125  11.371  66.602  1.00  0.00    -0.333 A  
HETATM   19  C   UNL     1     -11.487  12.696  66.358  1.00  0.00    -0.356 A  
HETATM   20  C   UNL     1     -11.891  13.510  67.420  1.00  0.00    -0.423 A  
HETATM   21  C   UNL     1     -11.925  12.991  68.723  1.00  0.00    -0.302 A  
BRANCH  19  22
HETATM   22  S   UNL     1     -11.267  13.377  64.725  1.00  0.00    -0.363 S  
HETATM   23  O   UNL     1     -10.442  12.446  63.981  1.00  0.00    -0.356 OA 
HETATM   24  O   UNL     1     -12.558  13.778  64.210  1.00  0.00    -0.654 OA 
BRANCH  22  25
HETATM   25  N   UNL     1     -10.307  14.729  64.942  1.00  0.00    -0.463 N  
HETATM   26  H   UNL     1      -9.297  14.598  65.008  1.00  0.00     0.000 HD 
BRANCH  25  27
HETATM   27  C   UNL     1     -10.808  16.012  65.037  1.00  0.00    -0.404 C  
HETATM   28  O   UNL     1     -11.247  16.621  64.074  1.00  0.00    -1.052 OA 
BRANCH  27  29
HETATM   29  N   UNL     1     -10.778  16.554  66.300  1.00  0.00    -0.210 N  
HETATM   30  H   UNL     1     -11.643  16.783  66.790  1.00  0.00     0.000 HD 
BRANCH  29  31
HETATM   31  C   UNL     1      -9.479  16.794  66.924  1.00  0.00    -0.241 C  
HETATM   32  C   UNL     1      -8.620  17.805  66.154  1.00  0.00    -0.139 C  
HETATM   33  C   UNL     1      -8.894  19.270  66.490  1.00  0.00    -0.367 C  
HETATM   34  C   UNL     1      -8.958  19.550  67.996  1.00  0.00    -0.380 C  
HETATM   35  C   UNL     1      -9.968  18.606  68.655  1.00  0.00    -0.431 C  
HETATM   36  C   UNL     1      -7.579  19.467  68.663  1.00  0.00    -0.398 C  
HETATM   37  C   UNL     1      -9.635  17.135  68.413  1.00  0.00    -0.281 C  
ENDBRANCH  29  31
ENDBRANCH  27  29
ENDBRANCH  25  27
ENDBRANCH  22  25
ENDBRANCH  19  22
ENDBRANCH  15  16
ENDBRANCH  14  15
ENDBRANCH  12  14
ENDBRANCH  10  12
ENDBRANCH   7  10
ENDBRANCH   2   3
TORSDOF 11
ENDMDL
MODEL       37
REMARK 921   NORMALIZED FREE ENERGY PREDICTED BY IDOCK:   -6.41 KCAL/MOL
REMARK 922        TOTAL FREE ENERGY PREDICTED BY IDOCK:  -12.84 KCAL/MOL
REMARK 923 INTER-LIGAND FREE ENERGY PREDICTED BY IDOCK:  -10.62 KCAL/MOL
REMARK 924 INTRA-LIGAND FREE ENERGY PREDICTED BY IDOCK:   -2.22 KCAL/MOL
REMARK 927      BINDING AFFINITY PREDICTED BY RF-SCORE:    0.00 PKD
ROOT
HETATM    1  C   UNL     1     -10.800  19.235  66.719  1.00  0.00    -0.451 C  
HETATM    2  C   UNL     1      -9.791  18.215  66.213  1.00  0.00    -0.311 C  
ENDROOT
BRANCH   2   3
HETATM    3  C   UNL     1     -10.318  16.827  66.304  1.00  0.00    -0.316 C  
HETATM    4  C   UNL     1     -10.270  15.924  67.294  1.00  0.00    -0.278 C  
HETATM    5  C   UNL     1     -10.942  14.641  66.924  1.00  0.00    -0.324 C  
HETATM    6  C   UNL     1      -9.691  16.097  68.654  1.00  0.00    -0.227 C  
HETATM    7  N   UNL     1     -11.468  14.939  65.620  1.00  0.00    -0.325 N  
HETATM    8  O   UNL     1     -11.242  16.714  64.101  1.00  0.00    -1.103 OA 
HETATM    9  C   UNL     1     -11.057  16.195  65.191  1.00  0.00    -0.249 C  
BRANCH   7  10
HETATM   10  C   UNL     1     -12.429  14.126  65.047  1.00  0.00    -0.419 C  
HETATM   11  O   UNL     1     -13.474  13.834  65.624  1.00  0.00    -0.522 OA 
BRANCH  10  12
HETATM   12  N   UNL     1     -12.146  13.705  63.773  1.00  0.00    -0.762 N  
HETATM   13  H   UNL     1     -12.752  14.015  63.013  1.00  0.00     0.000 HD 
BRANCH  12  14
HETATM   14  C   UNL     1     -11.027  12.841  63.455  1.00  0.00    -0.278 C  
BRANCH  14  15
HETATM   15  C   UNL     1     -11.256  11.378  63.873  1.00  0.00    -0.364 C  
BRANCH  15  16
HETATM   16  C   UNL     1     -10.221  10.830  64.841  1.00  0.00    -0.388 A  
HETATM   17  C   UNL     1      -9.063  10.181  64.389  1.00  0.00    -0.284 A  
HETATM   18  C   UNL     1      -8.148   9.632  65.289  1.00  0.00    -0.125 A  
HETATM   19  C   UNL     1      -8.337   9.781  66.663  1.00  0.00    -0.124 A  
HETATM   20  C   UNL     1      -9.461  10.465  67.137  1.00  0.00    -0.183 A  
HETATM   21  C   UNL     1     -10.392  10.991  66.228  1.00  0.00    -0.304 A  
BRANCH  19  22
HETATM   22  S   UNL     1      -7.235   8.954  67.794  1.00  0.00    -0.084 S  
HETATM   23  O   UNL     1      -5.917   8.964  67.191  1.00  0.00    -0.054 OA 
HETATM   24  O   UNL     1      -7.433   9.497  69.120  1.00  0.00    -0.070 OA 
BRANCH  22  25
HETATM   25  N   UNL     1      -7.709   7.350  67.769  1.00  0.00    -0.110 N  
HETATM   26  H   UNL     1      -7.020   6.646  67.502  1.00  0.00     0.000 HD 
BRANCH  25  27
HETATM   27  C   UNL     1      -8.983   6.927  68.092  1.00  0.00    -0.123 C  
HETATM   28  O   UNL     1      -9.706   6.345  67.298  1.00  0.00    -0.122 OA 
BRANCH  27  29
HETATM   29  N   UNL     1      -9.379   7.209  69.379  1.00  0.00    -0.148 N  
HETATM   30  H   UNL     1      -8.718   7.152  70.152  1.00  0.00     0.000 HD 
BRANCH  29  31
HETATM   31  C   UNL     1     -10.770   7.591  69.610  1.00  0.00    -0.230 C  
HETATM   32  C   UNL     1     -11.546   6.563  70.442  1.00  0.00    -0.470 C  
HETATM   33  C   UNL     1     -11.399   6.716  71.955  1.00  0.00    -0.317 C  
HETATM   34  C   UNL     1     -11.585   8.157  72.444  1.00  0.00    -0.463 C  
HETATM   35  C   UNL     1     -10.645   9.090  71.674  1.00  0.00    -0.434 C  
HETATM   36  C   UNL     1     -13.045   8.618  72.357  1.00  0.00    -0.396 C  
HETATM   37  C   UNL     1     -10.865   9.021  70.164  1.00  0.00    -0.261 C  
ENDBRANCH  29  31
ENDBRANCH  27  29
ENDBRANCH  25  27
ENDBRANCH  22  25
ENDBRANCH  19  22
ENDBRANCH  15  16
ENDBRANCH  14  15
ENDBRANCH  12  14
ENDBRANCH  10  12
ENDBRANCH   7  10
ENDBRANCH   2   3
TORSDOF 11
ENDMDL
MODEL       38
REMARK 921   NORMALIZED FREE ENERGY PREDICTED BY IDOCK:   -6.41 KCAL/MOL
REMARK 922        TOTAL FREE ENERGY PREDICTED BY IDOCK:  -12.84 KCAL/MOL
REMARK 923 INTER-LIGAND FREE ENERGY PREDICTED BY IDOCK:  -11.40 KCAL/MOL
REMARK 924 INTRA-LIGAND FREE ENERGY PREDICTED BY IDOCK:   -1.44 KCAL/MOL
REMARK 927      BINDING AFFINITY PREDICTED BY RF-SCORE:    0.00 PKD
ROOT
HETATM    1  C   UNL     1      -8.143   4.143  68.641  1.00  0.00    -0.074 C  
HETATM    2  C   UNL     1      -9.636   4.275  68.902  1.00  0.00    -0.227 C  
ENDROOT
BRANCH   2   3
HETATM    3  C   UNL     1      -9.911   4.828  70.255  1.00  0.00    -0.320 C  
HETATM    4  C   UNL     1      -9.774   4.292  71.477  1.00  0.00    -0.244 C  
HETATM    5  C   UNL     1     -10.187   5.236  72.559  1.00  0.00    -0.191 C  
HETATM    6  C   UNL     1      -9.234   2.950  71.824  1.00  0.00    -0.178 C  
HETATM    7  N   UNL     1     -10.500   6.428  71.819  1.00  0.00    -0.211 N  
HETATM    8  O   UNL     1     -10.715   6.966  69.545  1.00  0.00    -0.224 OA 
HETATM    9  C   UNL     1     -10.420   6.202  70.451  1.00  0.00    -0.230 C  
BRANCH   7  10
HETATM   10  C   UNL     1     -10.628   7.644  72.466  1.00  0.00    -0.281 C  
HETATM   11  O   UNL     1      -9.682   8.416  72.609  1.00  0.00    -0.278 OA 
BRANCH  10  12
HETATM   12  N   UNL     1     -11.896   7.939  72.899  1.00  0.00    -0.616 N  
HETATM   13  H   UNL     1     -12.104   7.846  73.893  1.00  0.00     0.000 HD 
BRANCH  12  14
HETATM   14  C   UNL     1     -12.953   8.377  72.010  1.00  0.00    -0.358 C  
BRANCH  14  15
HETATM   15  C   UNL     1     -13.397   9.828  72.268  1.00  0.00    -0.472 C  
BRANCH  15  16
HETATM   16  C   UNL     1     -12.863  10.838  71.267  1.00  0.00    -0.540 A  
HETATM   17  C   UNL     1     -12.953  12.219  71.498  1.00  0.00    -0.390 A  
HETATM   18  C   UNL     1     -12.510  13.138  70.545  1.00  0.00    -0.322 A  
HETATM   19  C   UNL     1     -11.904  12.694  69.369  1.00  0.00    -0.296 A  
HETATM   20  C   UNL     1     -11.762  11.323  69.138  1.00  0.00    -0.410 A  
HETATM   21  C   UNL     1     -12.234  10.403  70.087  1.00  0.00    -0.305 A  
BRANCH  19  22
HETATM   22  S   UNL     1     -11.475  13.877  68.107  1.00  0.00    -0.334 S  
HETATM   23  O   UNL     1     -10.035  14.040  68.144  1.00  0.00    -0.228 OA 
HETATM   24  O   UNL     1     -12.132  13.503  66.874  1.00  0.00    -0.390 OA 
BRANCH  22  25
HETATM   25  N   UNL     1     -12.089  15.335  68.648  1.00  0.00    -0.585 N  
HETATM   26  H   UNL     1     -13.097  15.486  68.592  1.00  0.00     0.000 HD 
BRANCH  25  27
HETATM   27  C   UNL     1     -11.306  16.347  69.168  1.00  0.00    -0.241 C  
HETATM   28  O   UNL     1     -11.114  16.482  70.366  1.00  0.00    -0.333 OA 
BRANCH  27  29
HETATM   29  N   UNL     1     -10.753  17.190  68.233  1.00  0.00    -0.375 N  
HETATM   30  H   UNL     1     -11.128  17.237  67.286  1.00  0.00     0.000 HD 
BRANCH  29  31
HETATM   31  C   UNL     1      -9.614  18.016  68.628  1.00  0.00    -0.328 C  
HETATM   32  C   UNL     1      -8.330  17.678  67.861  1.00  0.00    -0.235 C  
HETATM   33  C   UNL     1      -8.186  18.375  66.509  1.00  0.00    -0.289 C  
HETATM   34  C   UNL     1      -8.485  19.877  66.561  1.00  0.00    -0.379 C  
HETATM   35  C   UNL     1      -9.863  20.110  67.188  1.00  0.00    -0.586 C  
HETATM   36  C   UNL     1      -7.387  20.664  67.287  1.00  0.00    -0.394 C  
HETATM   37  C   UNL     1      -9.974  19.509  68.588  1.00  0.00    -0.538 C  
ENDBRANCH  29  31
ENDBRANCH  27  29
ENDBRANCH  25  27
ENDBRANCH  22  25
ENDBRANCH  19  22
ENDBRANCH  15  16
ENDBRANCH  14  15
ENDBRANCH  12  14
ENDBRANCH  10  12
ENDBRANCH   7  10
ENDBRANCH   2   3
TORSDOF 11
ENDMDL
MODEL       39
REMARK 921   NORMALIZED FREE ENERGY PREDICTED BY IDOCK:   -6.41 KCAL/MOL
REMARK 922        TOTAL FREE ENERGY PREDICTED BY IDOCK:  -12.83 KCAL/MOL
REMARK 923 INTER-LIGAND FREE ENERGY PREDICTED BY IDOCK:  -10.30 KCAL/MOL
REMARK 924 INTRA-LIGAND FREE ENERGY PREDICTED BY IDOCK:   -2.53 KCAL/MOL
REMARK 927      BINDING AFFINITY PREDICTED BY RF-SCORE:    0.00 PKD
ROOT
HETATM    1  C   UNL     1     -11.175  14.494  69.412  1.00  0.00    -0.312 C  
HETATM    2  C   UNL     1     -10.484  13.437  68.564  1.00  0.00    -0.260 C  
ENDROOT
BRANCH   2   3
HETATM    3  C   UNL     1     -10.643  13.707  67.110  1.00  0.00    -0.272 C  
HETATM    4  C   UNL     1     -10.026  14.577  66.297  1.00  0.00    -0.320 C  
HETATM    5  C   UNL     1     -10.527  14.492  64.892  1.00  0.00    -0.409 C  
HETATM    6  C   UNL     1      -8.926  15.518  66.641  1.00  0.00    -0.320 C  
HETATM    7  N   UNL     1     -11.456  13.398  64.966  1.00  0.00    -0.304 N  
HETATM    8  O   UNL     1     -12.382  12.116  66.700  1.00  0.00    -0.453 OA 
HETATM    9  C   UNL     1     -11.605  12.957  66.275  1.00  0.00    -0.372 C  
BRANCH   7  10
HETATM   10  C   UNL     1     -11.913  12.785  63.813  1.00  0.00    -0.510 C  
HETATM   11  O   UNL     1     -12.564  13.386  62.962  1.00  0.00    -0.669 OA 
BRANCH  10  12
HETATM   12  N   UNL     1     -11.551  11.469  63.675  1.00  0.00    -0.591 N  
HETATM   13  H   UNL     1     -12.240  10.750  63.896  1.00  0.00     0.000 HD 
BRANCH  12  14
HETATM   14  C   UNL     1     -10.237  11.053  63.229  1.00  0.00    -0.303 C  
BRANCH  14  15
HETATM   15  C   UNL     1      -9.197  11.019  64.363  1.00  0.00    -0.179 C  
BRANCH  15  16
HETATM   16  C   UNL     1      -9.235   9.761  65.214  1.00  0.00    -0.294 A  
HETATM   17  C   UNL     1     -10.215   9.569  66.199  1.00  0.00    -0.272 A  
HETATM   18  C   UNL     1     -10.205   8.435  67.013  1.00  0.00    -0.377 A  
HETATM   19  C   UNL     1      -9.253   7.434  66.813  1.00  0.00    -0.156 A  
HETATM   20  C   UNL     1      -8.295   7.582  65.806  1.00  0.00    -0.144 A  
HETATM   21  C   UNL     1      -8.293   8.737  65.009  1.00  0.00    -0.180 A  
BRANCH  19  22
HETATM   22  S   UNL     1      -9.171   6.065  67.951  1.00  0.00    -0.110 S  
HETATM   23  O   UNL     1      -8.886   4.877  67.171  1.00  0.00    -0.107 OA 
HETATM   24  O   UNL     1      -8.316   6.430  69.059  1.00  0.00    -0.116 OA 
BRANCH  22  25
HETATM   25  N   UNL     1     -10.738   5.858  68.498  1.00  0.00    -0.257 N  
HETATM   26  H   UNL     1     -11.446   5.552  67.830  1.00  0.00     0.000 HD 
BRANCH  25  27
HETATM   27  C   UNL     1     -11.124   6.079  69.805  1.00  0.00    -0.406 C  
HETATM   28  O   UNL     1     -10.733   5.388  70.733  1.00  0.00    -0.248 OA 
BRANCH  27  29
HETATM   29  N   UNL     1     -11.981   7.139  69.985  1.00  0.00    -0.574 N  
HETATM   30  H   UNL     1     -12.884   7.166  69.512  1.00  0.00     0.000 HD 
BRANCH  29  31
HETATM   31  C   UNL     1     -11.567   8.225  70.870  1.00  0.00    -0.262 C  
HETATM   32  C   UNL     1     -11.040   9.450  70.114  1.00  0.00    -0.277 C  
HETATM   33  C   UNL     1     -12.114  10.430  69.646  1.00  0.00    -0.167 C  
HETATM   34  C   UNL     1     -13.135  10.782  70.734  1.00  0.00    -0.245 C  
HETATM   35  C   UNL     1     -13.736   9.498  71.315  1.00  0.00    -0.235 C  
HETATM   36  C   UNL     1     -12.538  11.678  71.825  1.00  0.00    -0.197 C  
HETATM   37  C   UNL     1     -12.670   8.563  71.884  1.00  0.00    -0.401 C  
ENDBRANCH  29  31
ENDBRANCH  27  29
ENDBRANCH  25  27
ENDBRANCH  22  25
ENDBRANCH  19  22
ENDBRANCH  15  16
ENDBRANCH  14  15
ENDBRANCH  12  14
ENDBRANCH  10  12
ENDBRANCH   7  10
ENDBRANCH   2   3
TORSDOF 11
ENDMDL
MODEL       40
REMARK 921   NORMALIZED FREE ENERGY PREDICTED BY IDOCK:   -6.41 KCAL/MOL
REMARK 922        TOTAL FREE ENERGY PREDICTED BY IDOCK:  -12.83 KCAL/MOL
REMARK 923 INTER-LIGAND FREE ENERGY PREDICTED BY IDOCK:  -10.50 KCAL/MOL
REMARK 924 INTRA-LIGAND FREE ENERGY PREDICTED BY IDOCK:   -2.33 KCAL/MOL
REMARK 927      BINDING AFFINITY PREDICTED BY RF-SCORE:    0.00 PKD
ROOT
HETATM    1  C   UNL     1     -10.313  10.419  66.552  1.00  0.00    -0.287 C  
HETATM    2  C   UNL     1      -9.585  11.629  65.988  1.00  0.00    -0.249 C  
ENDROOT
BRANCH   2   3
HETATM    3  C   UNL     1     -10.289  12.897  66.315  1.00  0.00    -0.278 C  
HETATM    4  C   UNL     1     -11.493  13.363  65.951  1.00  0.00    -0.344 C  
HETATM    5  C   UNL     1     -11.779  14.711  66.530  1.00  0.00    -0.325 C  
HETATM    6  C   UNL     1     -12.518  12.677  65.120  1.00  0.00    -0.531 C  
HETATM    7  N   UNL     1     -10.623  14.938  67.354  1.00  0.00    -0.259 N  
HETATM    8  O   UNL     1      -8.565  13.855  67.669  1.00  0.00    -0.166 OA 
HETATM    9  C   UNL     1      -9.688  13.922  67.196  1.00  0.00    -0.244 C  
BRANCH   7  10
HETATM   10  C   UNL     1     -10.628  15.936  68.312  1.00  0.00    -0.276 C  
HETATM   11  O   UNL     1     -10.968  17.090  68.060  1.00  0.00    -0.360 OA 
BRANCH  10  12
HETATM   12  N   UNL     1     -10.266  15.531  69.572  1.00  0.00    -0.261 N  
HETATM   13  H   UNL     1      -9.299  15.244  69.730  1.00  0.00     0.000 HD 
BRANCH  12  14
HETATM   14  C   UNL     1     -11.190  15.491  70.687  1.00  0.00    -0.347 C  
BRANCH  14  15
HETATM   15  C   UNL     1     -12.511  14.778  70.352  1.00  0.00    -0.405 C  
BRANCH  15  16
HETATM   16  C   UNL     1     -12.497  13.278  70.598  1.00  0.00    -0.373 A  
HETATM   17  C   UNL     1     -13.157  12.709  71.697  1.00  0.00    -0.421 A  
HETATM   18  C   UNL     1     -13.089  11.336  71.944  1.00  0.00    -0.510 A  
HETATM   19  C   UNL     1     -12.416  10.495  71.058  1.00  0.00    -0.400 A  
HETATM   20  C   UNL     1     -11.790  11.034  69.931  1.00  0.00    -0.431 A  
HETATM   21  C   UNL     1     -11.838  12.418  69.702  1.00  0.00    -0.380 A  
BRANCH  19  22
HETATM   22  S   UNL     1     -12.222   8.770  71.466  1.00  0.00    -0.343 S  
HETATM   23  O   UNL     1     -11.135   8.675  72.419  1.00  0.00    -0.354 OA 
HETATM   24  O   UNL     1     -13.521   8.218  71.785  1.00  0.00    -0.336 OA 
BRANCH  22  25
HETATM   25  N   UNL     1     -11.638   8.056  70.071  1.00  0.00    -0.462 N  
HETATM   26  H   UNL     1     -11.968   8.409  69.172  1.00  0.00     0.000 HD 
BRANCH  25  27
HETATM   27  C   UNL     1     -10.734   7.012  70.070  1.00  0.00    -0.242 C  
HETATM   28  O   UNL     1      -9.715   7.024  69.397  1.00  0.00    -0.158 OA 
BRANCH  27  29
HETATM   29  N   UNL     1     -11.065   5.958  70.888  1.00  0.00    -0.271 N  
HETATM   30  H   UNL     1     -11.951   5.467  70.773  1.00  0.00     0.000 HD 
BRANCH  29  31
HETATM   31  C   UNL     1     -10.116   5.558  71.925  1.00  0.00    -0.189 C  
HETATM   32  C   UNL     1     -10.772   5.366  73.298  1.00  0.00    -0.320 C  
HETATM   33  C   UNL     1     -11.390   3.988  73.529  1.00  0.00    -0.280 C  
HETATM   34  C   UNL     1     -10.468   2.830  73.130  1.00  0.00    -0.250 C  
HETATM   35  C   UNL     1      -9.998   3.018  71.684  1.00  0.00    -0.158 C  
HETATM   36  C   UNL     1      -9.289   2.664  74.097  1.00  0.00    -0.098 C  
HETATM   37  C   UNL     1      -9.281   4.350  71.474  1.00  0.00    -0.190 C  
ENDBRANCH  29  31
ENDBRANCH  27  29
ENDBRANCH  25  27
ENDBRANCH  22  25
ENDBRANCH  19  22
ENDBRANCH  15  16
ENDBRANCH  14  15
ENDBRANCH  12  14
ENDBRANCH  10  12
ENDBRANCH   7  10
ENDBRANCH   2   3
TORSDOF 11
ENDMDL
MODEL       41
REMARK 921   NORMALIZED FREE ENERGY PREDICTED BY IDOCK:   -6.40 KCAL/MOL
REMARK 922        TOTAL FREE ENERGY PREDICTED BY IDOCK:  -12.82 KCAL/MOL
REMARK 923 INTER-LIGAND FREE ENERGY PREDICTED BY IDOCK:  -10.86 KCAL/MOL
REMARK 924 INTRA-LIGAND FREE ENERGY PREDICTED BY IDOCK:   -1.96 KCAL/MOL
REMARK 927      BINDING AFFINITY PREDICTED BY RF-SCORE:    0.00 PKD
ROOT
HETATM    1  C   UNL     1     -10.557   5.532  73.839  1.00  0.00    -0.304 C  
HETATM    2  C   UNL     1     -10.849   5.083  72.415  1.00  0.00    -0.234 C  
ENDROOT
BRANCH   2   3
HETATM    3  C   UNL     1     -10.850   6.229  71.467  1.00  0.00    -0.303 C  
HETATM    4  C   UNL     1     -11.828   7.064  71.086  1.00  0.00    -0.380 C  
HETATM    5  C   UNL     1     -11.355   8.075  70.091  1.00  0.00    -0.078 C  
HETATM    6  C   UNL     1     -13.233   7.100  71.575  1.00  0.00    -0.419 C  
HETATM    7  N   UNL     1      -9.951   7.780  70.004  1.00  0.00    -0.185 N  
HETATM    8  O   UNL     1      -8.555   6.074  70.810  1.00  0.00    -0.131 OA 
HETATM    9  C   UNL     1      -9.630   6.650  70.746  1.00  0.00    -0.175 C  
BRANCH   7  10
HETATM   10  C   UNL     1      -9.078   8.684  69.426  1.00  0.00    -0.149 C  
HETATM   11  O   UNL     1      -9.033   9.865  69.764  1.00  0.00    -0.207 OA 
BRANCH  10  12
HETATM   12  N   UNL     1      -8.240   8.155  68.478  1.00  0.00    -0.124 N  
HETATM   13  H   UNL     1      -7.700   7.323  68.717  1.00  0.00     0.000 HD 
BRANCH  12  14
HETATM   14  C   UNL     1      -8.086   8.720  67.153  1.00  0.00    -0.100 C  
BRANCH  14  15
HETATM   15  C   UNL     1      -9.325   8.521  66.263  1.00  0.00    -0.287 C  
BRANCH  15  16
HETATM   16  C   UNL     1      -9.972   9.811  65.785  1.00  0.00    -0.349 A  
HETATM   17  C   UNL     1     -10.638  10.671  66.671  1.00  0.00    -0.276 A  
HETATM   18  C   UNL     1     -11.276  11.823  66.210  1.00  0.00    -0.370 A  
HETATM   19  C   UNL     1     -11.203  12.177  64.863  1.00  0.00    -0.323 A  
HETATM   20  C   UNL     1     -10.506  11.359  63.969  1.00  0.00    -0.435 A  
HETATM   21  C   UNL     1      -9.889  10.187  64.433  1.00  0.00    -0.307 A  
BRANCH  19  22
HETATM   22  S   UNL     1     -12.141  13.573  64.272  1.00  0.00    -0.422 S  
HETATM   23  O   UNL     1     -12.566  13.264  62.922  1.00  0.00    -0.509 OA 
HETATM   24  O   UNL     1     -13.116  13.938  65.276  1.00  0.00    -0.777 OA 
BRANCH  22  25
HETATM   25  N   UNL     1     -11.025  14.807  64.103  1.00  0.00    -0.399 N  
HETATM   26  H   UNL     1     -10.339  14.739  63.351  1.00  0.00     0.000 HD 
BRANCH  25  27
HETATM   27  C   UNL     1     -10.982  15.915  64.927  1.00  0.00    -0.411 C  
HETATM   28  O   UNL     1     -11.340  17.023  64.560  1.00  0.00    -1.035 OA 
BRANCH  27  29
HETATM   29  N   UNL     1     -10.509  15.676  66.196  1.00  0.00    -0.305 N  
HETATM   30  H   UNL     1      -9.576  15.292  66.341  1.00  0.00     0.000 HD 
BRANCH  29  31
HETATM   31  C   UNL     1     -11.376  15.984  67.330  1.00  0.00     0.003 C  
HETATM   32  C   UNL     1     -11.806  14.739  68.115  1.00  0.00    -0.318 C  
HETATM   33  C   UNL     1     -10.814  14.274  69.179  1.00  0.00    -0.264 C  
HETATM   34  C   UNL     1     -10.303  15.409  70.075  1.00  0.00    -0.288 C  
HETATM   35  C   UNL     1      -9.735  16.537  69.207  1.00  0.00    -0.193 C  
HETATM   36  C   UNL     1     -11.379  15.918  71.041  1.00  0.00    -0.434 C  
HETATM   37  C   UNL     1     -10.761  17.079  68.214  1.00  0.00    -0.372 C  
ENDBRANCH  29  31
ENDBRANCH  27  29
ENDBRANCH  25  27
ENDBRANCH  22  25
ENDBRANCH  19  22
ENDBRANCH  15  16
ENDBRANCH  14  15
ENDBRANCH  12  14
ENDBRANCH  10  12
ENDBRANCH   7  10
ENDBRANCH   2   3
TORSDOF 11
ENDMDL
MODEL       42
REMARK 921   NORMALIZED FREE ENERGY PREDICTED BY IDOCK:   -6.39 KCAL/MOL
REMARK 922        TOTAL FREE ENERGY PREDICTED BY IDOCK:  -12.80 KCAL/MOL
REMARK 923 INTER-LIGAND FREE ENERGY PREDICTED BY IDOCK:  -10.54 KCAL/MOL
REMARK 924 INTRA-LIGAND FREE ENERGY PREDICTED BY IDOCK:   -2.26 KCAL/MOL
REMARK 927      BINDING AFFINITY PREDICTED BY RF-SCORE:    0.00 PKD
ROOT
HETATM    1  C   UNL     1     -12.035  14.686  69.190  1.00  0.00    -0.329 C  
HETATM    2  C   UNL     1     -10.827  14.226  68.387  1.00  0.00    -0.263 C  
ENDROOT
BRANCH   2   3
HETATM    3  C   UNL     1     -11.128  14.158  66.932  1.00  0.00    -0.312 C  
HETATM    4  C   UNL     1     -10.896  15.027  65.937  1.00  0.00    -0.339 C  
HETATM    5  C   UNL     1     -11.386  14.524  64.618  1.00  0.00    -0.370 C  
HETATM    6  C   UNL     1     -10.195  16.337  66.021  1.00  0.00    -0.376 C  
HETATM    7  N   UNL     1     -11.856  13.207  64.952  1.00  0.00    -0.340 N  
HETATM    8  O   UNL     1     -12.194  12.017  66.946  1.00  0.00    -0.529 OA 
HETATM    9  C   UNL     1     -11.787  12.984  66.322  1.00  0.00    -0.408 C  
BRANCH   7  10
HETATM   10  C   UNL     1     -12.106  12.277  63.959  1.00  0.00    -0.471 C  
HETATM   11  O   UNL     1     -13.027  12.405  63.154  1.00  0.00    -0.602 OA 
BRANCH  10  12
HETATM   12  N   UNL     1     -11.226  11.226  63.915  1.00  0.00    -0.486 N  
HETATM   13  H   UNL     1     -11.576  10.290  64.119  1.00  0.00     0.000 HD 
BRANCH  12  14
HETATM   14  C   UNL     1      -9.822  11.383  63.591  1.00  0.00    -0.348 C  
BRANCH  14  15
HETATM   15  C   UNL     1      -8.913  10.406  64.358  1.00  0.00    -0.247 C  
BRANCH  15  16
HETATM   16  C   UNL     1      -9.293  10.205  65.815  1.00  0.00    -0.239 A  
HETATM   17  C   UNL     1     -10.117   9.144  66.219  1.00  0.00    -0.319 A  
HETATM   18  C   UNL     1     -10.505   9.002  67.553  1.00  0.00    -0.338 A  
HETATM   19  C   UNL     1     -10.020   9.880  68.523  1.00  0.00    -0.159 A  
HETATM   20  C   UNL     1      -9.161  10.917  68.151  1.00  0.00    -0.155 A  
HETATM   21  C   UNL     1      -8.796  11.072  66.804  1.00  0.00    -0.158 A  
BRANCH  19  22
HETATM   22  S   UNL     1     -10.637   9.767  70.192  1.00  0.00    -0.305 S  
HETATM   23  O   UNL     1      -9.560   9.255  71.013  1.00  0.00    -0.271 OA 
HETATM   24  O   UNL     1     -11.284  11.015  70.535  1.00  0.00    -0.179 OA 
BRANCH  22  25
HETATM   25  N   UNL     1     -11.774   8.541  70.154  1.00  0.00    -0.455 N  
HETATM   26  H   UNL     1     -12.235   8.336  69.267  1.00  0.00     0.000 HD 
BRANCH  25  27
HETATM   27  C   UNL     1     -12.122   7.790  71.259  1.00  0.00    -0.306 C  
HETATM   28  O   UNL     1     -12.817   8.229  72.162  1.00  0.00    -0.331 OA 
BRANCH  27  29
HETATM   29  N   UNL     1     -11.628   6.507  71.267  1.00  0.00    -0.315 N  
HETATM   30  H   UNL     1     -12.028   5.790  70.662  1.00  0.00     0.000 HD 
BRANCH  29  31
HETATM   31  C   UNL     1     -10.517   6.194  72.163  1.00  0.00    -0.202 C  
HETATM   32  C   UNL     1     -10.963   5.493  73.452  1.00  0.00    -0.324 C  
HETATM   33  C   UNL     1     -11.115   3.977  73.341  1.00  0.00    -0.341 C  
HETATM   34  C   UNL     1      -9.926   3.292  72.658  1.00  0.00    -0.221 C  
HETATM   35  C   UNL     1      -9.661   3.949  71.299  1.00  0.00    -0.247 C  
HETATM   36  C   UNL     1      -8.673   3.283  73.541  1.00  0.00    -0.077 C  
HETATM   37  C   UNL     1      -9.399   5.448  71.418  1.00  0.00    -0.179 C  
ENDBRANCH  29  31
ENDBRANCH  27  29
ENDBRANCH  25  27
ENDBRANCH  22  25
ENDBRANCH  19  22
ENDBRANCH  15  16
ENDBRANCH  14  15
ENDBRANCH  12  14
ENDBRANCH  10  12
ENDBRANCH   7  10
ENDBRANCH   2   3
TORSDOF 11
ENDMDL
MODEL       43
REMARK 921   NORMALIZED FREE ENERGY PREDICTED BY IDOCK:   -6.32 KCAL/MOL
REMARK 922        TOTAL FREE ENERGY PREDICTED BY IDOCK:  -12.69 KCAL/MOL
REMARK 923 INTER-LIGAND FREE ENERGY PREDICTED BY IDOCK:  -11.03 KCAL/MOL
REMARK 924 INTRA-LIGAND FREE ENERGY PREDICTED BY IDOCK:   -1.66 KCAL/MOL
REMARK 927      BINDING AFFINITY PREDICTED BY RF-SCORE:    0.00 PKD
ROOT
HETATM    1  C   UNL     1     -14.115   8.301  71.900  1.00  0.00    -0.499 C  
HETATM    2  C   UNL     1     -12.803   8.626  72.598  1.00  0.00    -0.266 C  
ENDROOT
BRANCH   2   3
HETATM    3  C   UNL     1     -11.651   7.947  71.948  1.00  0.00    -0.338 C  
HETATM    4  C   UNL     1     -11.162   6.705  72.082  1.00  0.00    -0.299 C  
HETATM    5  C   UNL     1      -9.968   6.469  71.215  1.00  0.00    -0.181 C  
HETATM    6  C   UNL     1     -11.703   5.603  72.922  1.00  0.00    -0.186 C  
HETATM    7  N   UNL     1      -9.871   7.706  70.488  1.00  0.00    -0.183 N  
HETATM    8  O   UNL     1     -10.925   9.799  70.618  1.00  0.00    -0.282 OA 
HETATM    9  C   UNL     1     -10.803   8.629  70.947  1.00  0.00    -0.239 C  
BRANCH   7  10
HETATM   10  C   UNL     1      -9.086   7.795  69.353  1.00  0.00    -0.146 C  
HETATM   11  O   UNL     1      -8.085   8.506  69.299  1.00  0.00    -0.109 OA 
BRANCH  10  12
HETATM   12  N   UNL     1      -9.485   6.999  68.310  1.00  0.00    -0.129 N  
HETATM   13  H   UNL     1      -9.076   6.068  68.224  1.00  0.00     0.000 HD 
BRANCH  12  14
HETATM   14  C   UNL     1     -10.460   7.419  67.323  1.00  0.00    -0.315 C  
BRANCH  14  15
HETATM   15  C   UNL     1      -9.859   8.306  66.219  1.00  0.00    -0.227 C  
BRANCH  15  16
HETATM   16  C   UNL     1     -10.380   9.733  66.205  1.00  0.00    -0.215 A  
HETATM   17  C   UNL     1     -10.972  10.311  67.338  1.00  0.00    -0.317 A  
HETATM   18  C   UNL     1     -11.499  11.603  67.294  1.00  0.00    -0.350 A  
HETATM   19  C   UNL     1     -11.383  12.371  66.136  1.00  0.00    -0.352 A  
HETATM   20  C   UNL     1     -10.756  11.833  65.008  1.00  0.00    -0.344 A  
HETATM   21  C   UNL     1     -10.252  10.524  65.049  1.00  0.00    -0.365 A  
BRANCH  19  22
HETATM   22  S   UNL     1     -12.184  13.961  66.057  1.00  0.00    -0.468 S  
HETATM   23  O   UNL     1     -11.261  14.874  65.413  1.00  0.00    -0.338 OA 
HETATM   24  O   UNL     1     -13.519  13.785  65.529  1.00  0.00    -0.591 OA 
BRANCH  22  25
HETATM   25  N   UNL     1     -12.274  14.483  67.643  1.00  0.00    -0.614 N  
HETATM   26  H   UNL     1     -13.103  14.240  68.186  1.00  0.00     0.000 HD 
BRANCH  25  27
HETATM   27  C   UNL     1     -11.286  15.226  68.258  1.00  0.00    -0.314 C  
HETATM   28  O   UNL     1     -10.488  14.740  69.044  1.00  0.00    -0.238 OA 
BRANCH  27  29
HETATM   29  N   UNL     1     -11.264  16.558  67.916  1.00  0.00    -0.227 N  
HETATM   30  H   UNL     1     -12.123  17.107  67.904  1.00  0.00     0.000 HD 
BRANCH  29  31
HETATM   31  C   UNL     1      -9.982  17.167  67.570  1.00  0.00    -0.279 C  
HETATM   32  C   UNL     1      -9.981  17.824  66.185  1.00  0.00    -0.283 C  
HETATM   33  C   UNL     1     -10.511  19.257  66.152  1.00  0.00    -0.577 C  
HETATM   34  C   UNL     1      -9.920  20.151  67.248  1.00  0.00    -0.583 C  
HETATM   35  C   UNL     1     -10.119  19.492  68.617  1.00  0.00    -0.535 C  
HETATM   36  C   UNL     1      -8.449  20.496  66.989  1.00  0.00    -0.313 C  
HETATM   37  C   UNL     1      -9.494  18.100  68.689  1.00  0.00    -0.328 C  
ENDBRANCH  29  31
ENDBRANCH  27  29
ENDBRANCH  25  27
ENDBRANCH  22  25
ENDBRANCH  19  22
ENDBRANCH  15  16
ENDBRANCH  14  15
ENDBRANCH  12  14
ENDBRANCH  10  12
ENDBRANCH   7  10
ENDBRANCH   2   3
TORSDOF 11
ENDMDL
MODEL       44
REMARK 921   NORMALIZED FREE ENERGY PREDICTED BY IDOCK:   -6.26 KCAL/MOL
REMARK 922        TOTAL FREE ENERGY PREDICTED BY IDOCK:  -12.59 KCAL/MOL
REMARK 923 INTER-LIGAND FREE ENERGY PREDICTED BY IDOCK:  -10.79 KCAL/MOL
REMARK 924 INTRA-LIGAND FREE ENERGY PREDICTED BY IDOCK:   -1.80 KCAL/MOL
REMARK 927      BINDING AFFINITY PREDICTED BY RF-SCORE:    0.00 PKD
ROOT
HETATM    1  C   UNL     1     -11.998  16.096  72.381  1.00  0.00    -0.649 C  
HETATM    2  C   UNL     1     -13.038  15.564  71.405  1.00  0.00    -0.580 C  
ENDROOT
BRANCH   2   3
HETATM    3  C   UNL     1     -12.706  14.190  70.944  1.00  0.00    -0.432 C  
HETATM    4  C   UNL     1     -11.976  13.754  69.907  1.00  0.00    -0.412 C  
HETATM    5  C   UNL     1     -11.925  12.262  69.836  1.00  0.00    -0.306 C  
HETATM    6  C   UNL     1     -11.221  14.573  68.920  1.00  0.00    -0.283 C  
HETATM    7  N   UNL     1     -12.647  11.877  71.017  1.00  0.00    -0.340 N  
HETATM    8  O   UNL     1     -13.931  13.007  72.625  1.00  0.00    -0.657 OA 
HETATM    9  C   UNL     1     -13.186  12.987  71.657  1.00  0.00    -0.336 C  
BRANCH   7  10
HETATM   10  C   UNL     1     -12.569  10.583  71.499  1.00  0.00    -0.424 C  
HETATM   11  O   UNL     1     -13.523  10.020  72.031  1.00  0.00    -0.407 OA 
BRANCH  10  12
HETATM   12  N   UNL     1     -11.362   9.963  71.300  1.00  0.00    -0.368 N  
HETATM   13  H   UNL     1     -10.742  10.328  70.576  1.00  0.00     0.000 HD 
BRANCH  12  14
HETATM   14  C   UNL     1     -10.925   8.816  72.069  1.00  0.00    -0.368 C  
BRANCH  14  15
HETATM   15  C   UNL     1      -9.434   8.490  71.874  1.00  0.00    -0.350 C  
BRANCH  15  16
HETATM   16  C   UNL     1      -9.015   8.301  70.426  1.00  0.00    -0.146 A  
HETATM   17  C   UNL     1      -9.442   7.197  69.675  1.00  0.00    -0.152 A  
HETATM   18  C   UNL     1      -9.004   7.005  68.364  1.00  0.00    -0.122 A  
HETATM   19  C   UNL     1      -8.183   7.952  67.752  1.00  0.00    -0.129 A  
HETATM   20  C   UNL     1      -7.781   9.085  68.466  1.00  0.00    -0.097 A  
HETATM   21  C   UNL     1      -8.202   9.259  69.793  1.00  0.00    -0.131 A  
BRANCH  19  22
HETATM   22  S   UNL     1      -7.522   7.620  66.130  1.00  0.00    -0.084 S  
HETATM   23  O   UNL     1      -6.090   7.455  66.276  1.00  0.00    -0.036 OA 
HETATM   24  O   UNL     1      -8.314   6.582  65.507  1.00  0.00    -0.140 OA 
BRANCH  22  25
HETATM   25  N   UNL     1      -7.709   9.050  65.282  1.00  0.00    -0.097 N  
HETATM   26  H   UNL     1      -7.049   9.808  65.461  1.00  0.00     0.000 HD 
BRANCH  25  27
HETATM   27  C   UNL     1      -8.708   9.259  64.352  1.00  0.00    -0.181 C  
HETATM   28  O   UNL     1      -8.630   8.860  63.200  1.00  0.00    -0.191 OA 
BRANCH  27  29
HETATM   29  N   UNL     1      -9.800   9.950  64.820  1.00  0.00    -0.412 N  
HETATM   30  H   UNL     1     -10.558   9.465  65.299  1.00  0.00     0.000 HD 
BRANCH  29  31
HETATM   31  C   UNL     1      -9.849  11.396  64.615  1.00  0.00    -0.259 C  
HETATM   32  C   UNL     1     -10.710  11.805  63.413  1.00  0.00    -0.468 C  
HETATM   33  C   UNL     1     -12.203  11.938  63.707  1.00  0.00    -0.549 C  
HETATM   34  C   UNL     1     -12.507  12.746  64.974  1.00  0.00    -0.572 C  
HETATM   35  C   UNL     1     -11.734  12.159  66.159  1.00  0.00    -0.384 C  
HETATM   36  C   UNL     1     -12.224  14.242  64.792  1.00  0.00    -0.456 C  
HETATM   37  C   UNL     1     -10.227  12.126  65.913  1.00  0.00    -0.272 C  
ENDBRANCH  29  31
ENDBRANCH  27  29
ENDBRANCH  25  27
ENDBRANCH  22  25
ENDBRANCH  19  22
ENDBRANCH  15  16
ENDBRANCH  14  15
ENDBRANCH  12  14
ENDBRANCH  10  12
ENDBRANCH   7  10
ENDBRANCH   2   3
TORSDOF 11
ENDMDL
MODEL       45
REMARK 921   NORMALIZED FREE ENERGY PREDICTED BY IDOCK:   -6.24 KCAL/MOL
REMARK 922        TOTAL FREE ENERGY PREDICTED BY IDOCK:  -12.55 KCAL/MOL
REMARK 923 INTER-LIGAND FREE ENERGY PREDICTED BY IDOCK:   -9.98 KCAL/MOL
REMARK 924 INTRA-LIGAND FREE ENERGY PREDICTED BY IDOCK:   -2.57 KCAL/MOL
REMARK 927      BINDING AFFINITY PREDICTED BY RF-SCORE:    0.00 PKD
ROOT
HETATM    1  C   UNL     1     -11.906  10.612  69.493  1.00  0.00    -0.345 C  
HETATM    2  C   UNL     1     -10.429  10.248  69.493  1.00  0.00    -0.268 C  
ENDROOT
BRANCH   2   3
HETATM    3  C   UNL     1      -9.964   9.837  68.141  1.00  0.00    -0.179 C  
HETATM    4  C   UNL     1     -10.075   8.675  67.481  1.00  0.00    -0.277 C  
HETATM    5  C   UNL     1      -9.440   8.728  66.129  1.00  0.00    -0.247 C  
HETATM    6  C   UNL     1     -10.773   7.439  67.929  1.00  0.00    -0.217 C  
HETATM    7  N   UNL     1      -9.020  10.100  66.045  1.00  0.00    -0.147 N  
HETATM    8  O   UNL     1      -8.920  11.904  67.543  1.00  0.00    -0.162 OA 
HETATM    9  C   UNL     1      -9.247  10.766  67.243  1.00  0.00    -0.147 C  
BRANCH   7  10
HETATM   10  C   UNL     1      -8.663  10.652  64.828  1.00  0.00    -0.160 C  
HETATM   11  O   UNL     1      -7.770  10.181  64.128  1.00  0.00    -0.145 OA 
BRANCH  10  12
HETATM   12  N   UNL     1      -9.408  11.738  64.445  1.00  0.00    -0.431 N  
HETATM   13  H   UNL     1      -9.256  12.626  64.925  1.00  0.00     0.000 HD 
BRANCH  12  14
HETATM   14  C   UNL     1     -10.401  11.684  63.391  1.00  0.00    -0.435 C  
BRANCH  14  15
HETATM   15  C   UNL     1     -11.565  12.668  63.607  1.00  0.00    -0.575 C  
BRANCH  15  16
HETATM   16  C   UNL     1     -11.502  13.441  64.913  1.00  0.00    -0.346 A  
HETATM   17  C   UNL     1     -10.897  14.704  64.990  1.00  0.00    -0.431 A  
HETATM   18  C   UNL     1     -10.795  15.379  66.208  1.00  0.00    -0.301 A  
HETATM   19  C   UNL     1     -11.358  14.836  67.362  1.00  0.00    -0.351 A  
HETATM   20  C   UNL     1     -12.008  13.600  67.300  1.00  0.00    -0.420 A  
HETATM   21  C   UNL     1     -12.083  12.912  66.079  1.00  0.00    -0.484 A  
BRANCH  19  22
HETATM   22  S   UNL     1     -11.095  15.646  68.929  1.00  0.00    -0.314 S  
HETATM   23  O   UNL     1     -10.887  17.053  68.654  1.00  0.00    -0.338 OA 
HETATM   24  O   UNL     1     -12.131  15.230  69.848  1.00  0.00    -0.318 OA 
BRANCH  22  25
HETATM   25  N   UNL     1      -9.613  15.086  69.465  1.00  0.00    -0.410 N  
HETATM   26  H   UNL     1      -9.598  14.432  70.248  1.00  0.00     0.000 HD 
BRANCH  25  27
HETATM   27  C   UNL     1      -8.408  15.461  68.904  1.00  0.00    -0.203 C  
HETATM   28  O   UNL     1      -7.690  14.678  68.301  1.00  0.00    -0.110 OA 
BRANCH  27  29
HETATM   29  N   UNL     1      -8.078  16.785  69.072  1.00  0.00    -0.219 N  
HETATM   30  H   UNL     1      -8.421  17.310  69.875  1.00  0.00     0.000 HD 
BRANCH  29  31
HETATM   31  C   UNL     1      -7.223  17.421  68.072  1.00  0.00    -0.193 C  
HETATM   32  C   UNL     1      -7.990  17.867  66.821  1.00  0.00    -0.259 C  
HETATM   33  C   UNL     1      -8.650  19.241  66.927  1.00  0.00    -0.318 C  
HETATM   34  C   UNL     1      -7.720  20.323  67.486  1.00  0.00    -0.340 C  
HETATM   35  C   UNL     1      -7.131  19.859  68.823  1.00  0.00    -0.332 C  
HETATM   36  C   UNL     1      -6.626  20.724  66.489  1.00  0.00    -0.331 C  
HETATM   37  C   UNL     1      -6.376  18.538  68.698  1.00  0.00    -0.227 C  
ENDBRANCH  29  31
ENDBRANCH  27  29
ENDBRANCH  25  27
ENDBRANCH  22  25
ENDBRANCH  19  22
ENDBRANCH  15  16
ENDBRANCH  14  15
ENDBRANCH  12  14
ENDBRANCH  10  12
ENDBRANCH   7  10
ENDBRANCH   2   3
TORSDOF 11
ENDMDL
MODEL       46
REMARK 921   NORMALIZED FREE ENERGY PREDICTED BY IDOCK:   -6.24 KCAL/MOL
REMARK 922        TOTAL FREE ENERGY PREDICTED BY IDOCK:  -12.55 KCAL/MOL
REMARK 923 INTER-LIGAND FREE ENERGY PREDICTED BY IDOCK:  -11.36 KCAL/MOL
REMARK 924 INTRA-LIGAND FREE ENERGY PREDICTED BY IDOCK:   -1.19 KCAL/MOL
REMARK 927      BINDING AFFINITY PREDICTED BY RF-SCORE:    0.00 PKD
ROOT
HETATM    1  C   UNL     1      -7.693   7.946  67.633  1.00  0.00    -0.117 C  
HETATM    2  C   UNL     1      -7.993   6.562  68.188  1.00  0.00    -0.110 C  
ENDROOT
BRANCH   2   3
HETATM    3  C   UNL     1      -9.303   6.523  68.890  1.00  0.00    -0.131 C  
HETATM    4  C   UNL     1     -10.559   6.456  68.423  1.00  0.00    -0.311 C  
HETATM    5  C   UNL     1     -11.573   6.446  69.521  1.00  0.00    -0.233 C  
HETATM    6  C   UNL     1     -10.995   6.347  67.005  1.00  0.00    -0.463 C  
HETATM    7  N   UNL     1     -10.746   6.426  70.697  1.00  0.00    -0.242 N  
HETATM    8  O   UNL     1      -8.450   6.659  71.121  1.00  0.00    -0.124 OA 
HETATM    9  C   UNL     1      -9.402   6.545  70.365  1.00  0.00    -0.162 C  
BRANCH   7  10
HETATM   10  C   UNL     1     -11.284   6.098  71.928  1.00  0.00    -0.284 C  
HETATM   11  O   UNL     1     -11.106   5.002  72.455  1.00  0.00    -0.185 OA 
BRANCH  10  12
HETATM   12  N   UNL     1     -11.996   7.102  72.535  1.00  0.00    -0.500 N  
HETATM   13  H   UNL     1     -12.710   6.848  73.218  1.00  0.00     0.000 HD 
BRANCH  12  14
HETATM   14  C   UNL     1     -11.781   8.507  72.251  1.00  0.00    -0.373 C  
BRANCH  14  15
HETATM   15  C   UNL     1     -13.043   9.218  71.731  1.00  0.00    -0.472 C  
BRANCH  15  16
HETATM   16  C   UNL     1     -12.848  10.690  71.408  1.00  0.00    -0.556 A  
HETATM   17  C   UNL     1     -12.064  11.106  70.322  1.00  0.00    -0.462 A  
HETATM   18  C   UNL     1     -11.847  12.462  70.070  1.00  0.00    -0.363 A  
HETATM   19  C   UNL     1     -12.466  13.432  70.859  1.00  0.00    -0.359 A  
HETATM   20  C   UNL     1     -13.289  13.040  71.918  1.00  0.00    -0.539 A  
HETATM   21  C   UNL     1     -13.482  11.676  72.184  1.00  0.00    -0.238 A  
BRANCH  19  22
HETATM   22  S   UNL     1     -12.064  15.150  70.608  1.00  0.00    -0.364 S  
HETATM   23  O   UNL     1     -13.050  15.930  71.329  1.00  0.00    -0.478 OA 
HETATM   24  O   UNL     1     -10.654  15.342  70.867  1.00  0.00    -0.241 OA 
BRANCH  22  25
HETATM   25  N   UNL     1     -12.380  15.441  68.991  1.00  0.00    -0.612 N  
HETATM   26  H   UNL     1     -13.311  15.769  68.732  1.00  0.00     0.000 HD 
BRANCH  25  27
HETATM   27  C   UNL     1     -11.449  15.259  67.988  1.00  0.00    -0.341 C  
HETATM   28  O   UNL     1     -11.666  14.571  67.003  1.00  0.00    -0.377 OA 
BRANCH  27  29
HETATM   29  N   UNL     1     -10.256  15.915  68.180  1.00  0.00    -0.229 N  
HETATM   30  H   UNL     1      -9.621  15.637  68.927  1.00  0.00     0.000 HD 
BRANCH  29  31
HETATM   31  C   UNL     1      -9.919  17.021  67.286  1.00  0.00    -0.275 C  
HETATM   32  C   UNL     1     -10.659  18.319  67.630  1.00  0.00    -0.427 C  
HETATM   33  C   UNL     1      -9.995  19.173  68.708  1.00  0.00    -0.493 C  
HETATM   34  C   UNL     1      -8.491  19.372  68.488  1.00  0.00    -0.397 C  
HETATM   35  C   UNL     1      -7.807  18.011  68.324  1.00  0.00    -0.292 C  
HETATM   36  C   UNL     1      -8.193  20.307  67.309  1.00  0.00    -0.393 C  
HETATM   37  C   UNL     1      -8.397  17.198  67.174  1.00  0.00    -0.216 C  
ENDBRANCH  29  31
ENDBRANCH  27  29
ENDBRANCH  25  27
ENDBRANCH  22  25
ENDBRANCH  19  22
ENDBRANCH  15  16
ENDBRANCH  14  15
ENDBRANCH  12  14
ENDBRANCH  10  12
ENDBRANCH   7  10
ENDBRANCH   2   3
TORSDOF 11
ENDMDL
MODEL       47
REMARK 921   NORMALIZED FREE ENERGY PREDICTED BY IDOCK:   -6.22 KCAL/MOL
REMARK 922        TOTAL FREE ENERGY PREDICTED BY IDOCK:  -12.53 KCAL/MOL
REMARK 923 INTER-LIGAND FREE ENERGY PREDICTED BY IDOCK:  -10.91 KCAL/MOL
REMARK 924 INTRA-LIGAND FREE ENERGY PREDICTED BY IDOCK:   -1.63 KCAL/MOL
REMARK 927      BINDING AFFINITY PREDICTED BY RF-SCORE:    0.00 PKD
ROOT
HETATM    1  C   UNL     1      -9.608   2.936  68.223  1.00  0.00    -0.118 C  
HETATM    2  C   UNL     1      -9.061   4.236  68.795  1.00  0.00    -0.181 C  
ENDROOT
BRANCH   2   3
HETATM    3  C   UNL     1      -9.645   4.539  70.129  1.00  0.00    -0.264 C  
HETATM    4  C   UNL     1      -9.501   3.934  71.318  1.00  0.00    -0.229 C  
HETATM    5  C   UNL     1     -10.299   4.600  72.392  1.00  0.00    -0.199 C  
HETATM    6  C   UNL     1      -8.636   2.769  71.646  1.00  0.00    -0.099 C  
HETATM    7  N   UNL     1     -10.859   5.728  71.699  1.00  0.00    -0.255 N  
HETATM    8  O   UNL     1     -10.952   6.427  69.460  1.00  0.00    -0.286 OA 
HETATM    9  C   UNL     1     -10.554   5.684  70.344  1.00  0.00    -0.294 C  
BRANCH   7  10
HETATM   10  C   UNL     1     -11.414   6.781  72.403  1.00  0.00    -0.264 C  
HETATM   11  O   UNL     1     -10.903   7.231  73.426  1.00  0.00    -0.374 OA 
BRANCH  10  12
HETATM   12  N   UNL     1     -12.553   7.310  71.852  1.00  0.00    -0.427 N  
HETATM   13  H   UNL     1     -13.409   6.755  71.879  1.00  0.00     0.000 HD 
BRANCH  12  14
HETATM   14  C   UNL     1     -12.598   8.618  71.231  1.00  0.00    -0.235 C  
BRANCH  14  15
HETATM   15  C   UNL     1     -13.291   9.678  72.105  1.00  0.00    -0.545 C  
BRANCH  15  16
HETATM   16  C   UNL     1     -13.020  11.114  71.688  1.00  0.00    -0.548 A  
HETATM   17  C   UNL     1     -12.223  11.417  70.574  1.00  0.00    -0.478 A  
HETATM   18  C   UNL     1     -11.935  12.740  70.235  1.00  0.00    -0.358 A  
HETATM   19  C   UNL     1     -12.495  13.791  70.963  1.00  0.00    -0.380 A  
HETATM   20  C   UNL     1     -13.330  13.513  72.048  1.00  0.00    -0.563 A  
HETATM   21  C   UNL     1     -13.595  12.180  72.402  1.00  0.00    -0.087 A  
BRANCH  19  22
HETATM   22  S   UNL     1     -12.003  15.466  70.601  1.00  0.00    -0.394 S  
HETATM   23  O   UNL     1     -12.982  16.011  69.682  1.00  0.00     0.167 OA 
HETATM   24  O   UNL     1     -11.716  16.146  71.845  1.00  0.00    -0.475 OA 
BRANCH  22  25
HETATM   25  N   UNL     1     -10.599  15.323  69.704  1.00  0.00    -0.262 N  
HETATM   26  H   UNL     1      -9.805  14.838  70.123  1.00  0.00     0.000 HD 
BRANCH  25  27
HETATM   27  C   UNL     1     -10.457  15.827  68.426  1.00  0.00    -0.245 C  
HETATM   28  O   UNL     1      -9.724  16.769  68.166  1.00  0.00    -0.236 OA 
BRANCH  27  29
HETATM   29  N   UNL     1     -11.201  15.185  67.464  1.00  0.00    -0.327 N  
HETATM   30  H   UNL     1     -12.219  15.240  67.469  1.00  0.00     0.000 HD 
BRANCH  29  31
HETATM   31  C   UNL     1     -10.498  14.423  66.435  1.00  0.00    -0.295 C  
HETATM   32  C   UNL     1     -10.604  12.906  66.631  1.00  0.00    -0.273 C  
HETATM   33  C   UNL     1     -11.863  12.267  66.047  1.00  0.00    -0.409 C  
HETATM   34  C   UNL     1     -12.165  12.716  64.612  1.00  0.00    -0.519 C  
HETATM   35  C   UNL     1     -12.208  14.246  64.546  1.00  0.00    -0.476 C  
HETATM   36  C   UNL     1     -11.176  12.128  63.598  1.00  0.00    -0.540 C  
HETATM   37  C   UNL     1     -10.907  14.885  65.028  1.00  0.00    -0.439 C  
ENDBRANCH  29  31
ENDBRANCH  27  29
ENDBRANCH  25  27
ENDBRANCH  22  25
ENDBRANCH  19  22
ENDBRANCH  15  16
ENDBRANCH  14  15
ENDBRANCH  12  14
ENDBRANCH  10  12
ENDBRANCH   7  10
ENDBRANCH   2   3
TORSDOF 11
ENDMDL
MODEL       48
REMARK 921   NORMALIZED FREE ENERGY PREDICTED BY IDOCK:   -6.21 KCAL/MOL
REMARK 922        TOTAL FREE ENERGY PREDICTED BY IDOCK:  -12.50 KCAL/MOL
REMARK 923 INTER-LIGAND FREE ENERGY PREDICTED BY IDOCK:  -10.49 KCAL/MOL
REMARK 924 INTRA-LIGAND FREE ENERGY PREDICTED BY IDOCK:   -2.01 KCAL/MOL
REMARK 927      BINDING AFFINITY PREDICTED BY RF-SCORE:    0.00 PKD
ROOT
HETATM    1  C   UNL     1      -9.090  10.541  63.012  1.00  0.00    -0.281 C  
HETATM    2  C   UNL     1      -9.840  10.301  64.313  1.00  0.00    -0.357 C  
ENDROOT
BRANCH   2   3
HETATM    3  C   UNL     1      -9.790  11.491  65.204  1.00  0.00    -0.294 C  
HETATM    4  C   UNL     1      -8.937  11.833  66.181  1.00  0.00    -0.145 C  
HETATM    5  C   UNL     1      -9.293  13.139  66.814  1.00  0.00    -0.244 C  
HETATM    6  C   UNL     1      -7.721  11.098  66.622  1.00  0.00    -0.155 C  
HETATM    7  N   UNL     1     -10.415  13.564  66.022  1.00  0.00    -0.293 N  
HETATM    8  O   UNL     1     -11.746  12.579  64.359  1.00  0.00    -0.330 OA 
HETATM    9  C   UNL     1     -10.783  12.582  65.110  1.00  0.00    -0.292 C  
BRANCH   7  10
HETATM   10  C   UNL     1     -10.856  14.874  66.074  1.00  0.00    -0.328 C  
HETATM   11  O   UNL     1     -10.793  15.628  65.106  1.00  0.00    -0.390 OA 
BRANCH  10  12
HETATM   12  N   UNL     1     -11.405  15.253  67.272  1.00  0.00    -0.310 N  
HETATM   13  H   UNL     1     -11.194  16.185  67.630  1.00  0.00     0.000 HD 
BRANCH  12  14
HETATM   14  C   UNL     1     -12.270  14.392  68.054  1.00  0.00    -0.126 C  
BRANCH  14  15
HETATM   15  C   UNL     1     -11.910  14.373  69.550  1.00  0.00    -0.376 C  
BRANCH  15  16
HETATM   16  C   UNL     1     -12.143  13.037  70.236  1.00  0.00    -0.388 A  
HETATM   17  C   UNL     1     -11.507  11.866  69.799  1.00  0.00    -0.303 A  
HETATM   18  C   UNL     1     -11.773  10.635  70.402  1.00  0.00    -0.446 A  
HETATM   19  C   UNL     1     -12.630  10.561  71.501  1.00  0.00    -0.424 A  
HETATM   20  C   UNL     1     -13.240  11.723  71.983  1.00  0.00    -0.460 A  
HETATM   21  C   UNL     1     -12.990  12.954  71.356  1.00  0.00    -0.362 A  
BRANCH  19  22
HETATM   22  S   UNL     1     -13.065   8.965  72.165  1.00  0.00    -0.447 S  
HETATM   23  O   UNL     1     -11.951   8.522  72.979  1.00  0.00    -0.186 OA 
HETATM   24  O   UNL     1     -14.394   9.042  72.731  1.00  0.00    -0.596 OA 
BRANCH  22  25
HETATM   25  N   UNL     1     -13.077   7.934  70.848  1.00  0.00    -0.519 N  
HETATM   26  H   UNL     1     -13.765   8.097  70.113  1.00  0.00     0.000 HD 
BRANCH  25  27
HETATM   27  C   UNL     1     -12.204   6.873  70.704  1.00  0.00    -0.258 C  
HETATM   28  O   UNL     1     -11.795   6.222  71.653  1.00  0.00    -0.308 OA 
BRANCH  27  29
HETATM   29  N   UNL     1     -11.832   6.601  69.408  1.00  0.00    -0.602 N  
HETATM   30  H   UNL     1     -12.526   6.574  68.661  1.00  0.00     0.000 HD 
BRANCH  29  31
HETATM   31  C   UNL     1     -10.420   6.352  69.128  1.00  0.00    -0.229 C  
HETATM   32  C   UNL     1     -10.196   5.526  67.855  1.00  0.00    -0.231 C  
HETATM   33  C   UNL     1     -10.166   6.335  66.560  1.00  0.00    -0.163 C  
HETATM   34  C   UNL     1      -9.277   7.581  66.639  1.00  0.00    -0.201 C  
HETATM   35  C   UNL     1      -9.686   8.434  67.844  1.00  0.00    -0.189 C  
HETATM   36  C   UNL     1      -7.784   7.232  66.668  1.00  0.00    -0.101 C  
HETATM   37  C   UNL     1      -9.612   7.658  69.158  1.00  0.00    -0.155 C  
ENDBRANCH  29  31
ENDBRANCH  27  29
ENDBRANCH  25  27
ENDBRANCH  22  25
ENDBRANCH  19  22
ENDBRANCH  15  16
ENDBRANCH  14  15
ENDBRANCH  12  14
ENDBRANCH  10  12
ENDBRANCH   7  10
ENDBRANCH   2   3
TORSDOF 11
ENDMDL
MODEL       49
REMARK 921   NORMALIZED FREE ENERGY PREDICTED BY IDOCK:   -6.20 KCAL/MOL
REMARK 922        TOTAL FREE ENERGY PREDICTED BY IDOCK:  -12.50 KCAL/MOL
REMARK 923 INTER-LIGAND FREE ENERGY PREDICTED BY IDOCK:   -9.98 KCAL/MOL
REMARK 924 INTRA-LIGAND FREE ENERGY PREDICTED BY IDOCK:   -2.52 KCAL/MOL
REMARK 927      BINDING AFFINITY PREDICTED BY RF-SCORE:    0.00 PKD
ROOT
HETATM    1  C   UNL     1     -10.000   8.291  66.762  1.00  0.00    -0.355 C  
HETATM    2  C   UNL     1      -9.232   7.456  67.776  1.00  0.00    -0.133 C  
ENDROOT
BRANCH   2   3
HETATM    3  C   UNL     1      -9.663   7.750  69.169  1.00  0.00    -0.161 C  
HETATM    4  C   UNL     1      -9.245   8.669  70.052  1.00  0.00    -0.160 C  
HETATM    5  C   UNL     1      -9.979   8.582  71.351  1.00  0.00    -0.233 C  
HETATM    6  C   UNL     1      -8.221   9.728  69.844  1.00  0.00    -0.196 C  
HETATM    7  N   UNL     1     -10.944   7.550  71.086  1.00  0.00    -0.243 N  
HETATM    8  O   UNL     1     -11.313   6.026  69.339  1.00  0.00    -0.398 OA 
HETATM    9  C   UNL     1     -10.739   6.984  69.833  1.00  0.00    -0.240 C  
BRANCH   7  10
HETATM   10  C   UNL     1     -12.029   7.371  71.924  1.00  0.00    -0.302 C  
HETATM   11  O   UNL     1     -12.461   6.257  72.213  1.00  0.00    -0.239 OA 
BRANCH  10  12
HETATM   12  N   UNL     1     -12.560   8.526  72.439  1.00  0.00    -0.495 N  
HETATM   13  H   UNL     1     -12.399   8.737  73.424  1.00  0.00     0.000 HD 
BRANCH  12  14
HETATM   14  C   UNL     1     -13.339   9.459  71.651  1.00  0.00    -0.404 C  
BRANCH  14  15
HETATM   15  C   UNL     1     -12.816  10.904  71.735  1.00  0.00    -0.509 C  
BRANCH  15  16
HETATM   16  C   UNL     1     -12.337  11.479  70.413  1.00  0.00    -0.390 A  
HETATM   17  C   UNL     1     -12.099  10.660  69.299  1.00  0.00    -0.206 A  
HETATM   18  C   UNL     1     -11.605  11.193  68.107  1.00  0.00    -0.350 A  
HETATM   19  C   UNL     1     -11.404  12.568  67.982  1.00  0.00    -0.289 A  
HETATM   20  C   UNL     1     -11.678  13.409  69.064  1.00  0.00    -0.368 A  
HETATM   21  C   UNL     1     -12.149  12.865  70.269  1.00  0.00    -0.377 A  
BRANCH  19  22
HETATM   22  S   UNL     1     -10.641  13.210  66.504  1.00  0.00    -0.287 S  
HETATM   23  O   UNL     1     -10.822  12.218  65.463  1.00  0.00    -0.266 OA 
HETATM   24  O   UNL     1     -11.092  14.569  66.299  1.00  0.00    -0.320 OA 
BRANCH  22  25
HETATM   25  N   UNL     1      -8.999  13.207  66.824  1.00  0.00    -0.353 N  
HETATM   26  H   UNL     1      -8.410  12.544  66.319  1.00  0.00     0.000 HD 
BRANCH  25  27
HETATM   27  C   UNL     1      -8.399  14.054  67.734  1.00  0.00    -0.176 C  
HETATM   28  O   UNL     1      -7.852  13.651  68.748  1.00  0.00    -0.123 OA 
BRANCH  27  29
HETATM   29  N   UNL     1      -8.461  15.390  67.411  1.00  0.00    -0.169 N  
HETATM   30  H   UNL     1      -8.345  15.699  66.447  1.00  0.00     0.000 HD 
BRANCH  29  31
HETATM   31  C   UNL     1      -8.698  16.354  68.483  1.00  0.00    -0.223 C  
HETATM   32  C   UNL     1      -7.730  17.543  68.446  1.00  0.00    -0.260 C  
HETATM   33  C   UNL     1      -8.147  18.684  67.519  1.00  0.00    -0.262 C  
HETATM   34  C   UNL     1      -9.614  19.099  67.683  1.00  0.00    -0.375 C  
HETATM   35  C   UNL     1     -10.519  17.872  67.535  1.00  0.00    -0.398 C  
HETATM   36  C   UNL     1      -9.866  19.838  69.003  1.00  0.00    -0.419 C  
HETATM   37  C   UNL     1     -10.175  16.771  68.536  1.00  0.00    -0.298 C  
ENDBRANCH  29  31
ENDBRANCH  27  29
ENDBRANCH  25  27
ENDBRANCH  22  25
ENDBRANCH  19  22
ENDBRANCH  15  16
ENDBRANCH  14  15
ENDBRANCH  12  14
ENDBRANCH  10  12
ENDBRANCH   7  10
ENDBRANCH   2   3
TORSDOF 11
ENDMDL
MODEL       50
REMARK 921   NORMALIZED FREE ENERGY PREDICTED BY IDOCK:   -6.20 KCAL/MOL
REMARK 922        TOTAL FREE ENERGY PREDICTED BY IDOCK:  -12.50 KCAL/MOL
REMARK 923 INTER-LIGAND FREE ENERGY PREDICTED BY IDOCK:  -10.83 KCAL/MOL
REMARK 924 INTRA-LIGAND FREE ENERGY PREDICTED BY IDOCK:   -1.67 KCAL/MOL
REMARK 927      BINDING AFFINITY PREDICTED BY RF-SCORE:    0.00 PKD
ROOT
HETATM    1  C   UNL     1      -9.596   8.457  66.342  1.00  0.00    -0.307 C  
HETATM    2  C   UNL     1      -8.936   7.683  67.473  1.00  0.00    -0.128 C  
ENDROOT
BRANCH   2   3
HETATM    3  C   UNL     1      -9.331   8.212  68.806  1.00  0.00    -0.143 C  
HETATM    4  C   UNL     1      -8.827   9.208  69.549  1.00  0.00    -0.149 C  
HETATM    5  C   UNL     1      -9.557   9.376  70.842  1.00  0.00    -0.231 C  
HETATM    6  C   UNL     1      -7.712  10.129  69.198  1.00  0.00    -0.112 C  
HETATM    7  N   UNL     1     -10.613   8.408  70.722  1.00  0.00    -0.203 N  
HETATM    8  O   UNL     1     -11.129   6.688  69.211  1.00  0.00    -0.282 OA 
HETATM    9  C   UNL     1     -10.468   7.651  69.566  1.00  0.00    -0.227 C  
BRANCH   7  10
HETATM   10  C   UNL     1     -11.705   8.450  71.569  1.00  0.00    -0.290 C  
HETATM   11  O   UNL     1     -12.200   7.437  72.058  1.00  0.00    -0.297 OA 
BRANCH  10  12
HETATM   12  N   UNL     1     -12.168   9.710  71.855  1.00  0.00    -0.368 N  
HETATM   13  H   UNL     1     -12.073  10.057  72.810  1.00  0.00     0.000 HD 
BRANCH  12  14
HETATM   14  C   UNL     1     -12.785  10.569  70.865  1.00  0.00    -0.402 C  
BRANCH  14  15
HETATM   15  C   UNL     1     -11.943  11.815  70.537  1.00  0.00    -0.383 C  
BRANCH  15  16
HETATM   16  C   UNL     1     -11.898  12.174  69.062  1.00  0.00    -0.361 A  
HETATM   17  C   UNL     1     -11.647  11.206  68.078  1.00  0.00    -0.337 A  
HETATM   18  C   UNL     1     -11.552  11.559  66.730  1.00  0.00    -0.133 A  
HETATM   19  C   UNL     1     -11.773  12.877  66.331  1.00  0.00    -0.395 A  
HETATM   20  C   UNL     1     -12.070  13.850  67.290  1.00  0.00    -0.403 A  
HETATM   21  C   UNL     1     -12.138  13.495  68.646  1.00  0.00    -0.303 A  
BRANCH  19  22
HETATM   22  S   UNL     1     -11.509  13.332  64.628  1.00  0.00    -0.360 S  
HETATM   23  O   UNL     1     -10.842  12.217  63.986  1.00  0.00    -0.322 OA 
HETATM   24  O   UNL     1     -12.746  13.849  64.086  1.00  0.00    -0.665 OA 
BRANCH  22  25
HETATM   25  N   UNL     1     -10.365  14.552  64.675  1.00  0.00    -0.534 N  
HETATM   26  H   UNL     1      -9.379  14.291  64.655  1.00  0.00     0.000 HD 
BRANCH  25  27
HETATM   27  C   UNL     1     -10.685  15.894  64.739  1.00  0.00    -0.229 C  
HETATM   28  O   UNL     1     -11.529  16.405  64.020  1.00  0.00    -1.048 OA 
BRANCH  27  29
HETATM   29  N   UNL     1      -9.982  16.613  65.678  1.00  0.00    -0.229 N  
HETATM   30  H   UNL     1      -8.969  16.525  65.751  1.00  0.00     0.000 HD 
BRANCH  29  31
HETATM   31  C   UNL     1     -10.723  17.505  66.567  1.00  0.00    -0.085 C  
HETATM   32  C   UNL     1     -10.764  17.009  68.018  1.00  0.00    -0.365 C  
HETATM   33  C   UNL     1      -9.554  17.397  68.866  1.00  0.00    -0.223 C  
HETATM   34  C   UNL     1      -9.169  18.875  68.740  1.00  0.00    -0.359 C  
HETATM   35  C   UNL     1      -8.982  19.238  67.264  1.00  0.00    -0.338 C  
HETATM   36  C   UNL     1     -10.178  19.800  69.432  1.00  0.00    -0.139 C  
HETATM   37  C   UNL     1     -10.230  18.953  66.432  1.00  0.00    -0.481 C  
ENDBRANCH  29  31
ENDBRANCH  27  29
ENDBRANCH  25  27
ENDBRANCH  22  25
ENDBRANCH  19  22
ENDBRANCH  15  16
ENDBRANCH  14  15
ENDBRANCH  12  14
ENDBRANCH  10  12
ENDBRANCH   7  10
ENDBRANCH   2   3
TORSDOF 11
ENDMDL
MODEL       51
REMARK 921   NORMALIZED FREE ENERGY PREDICTED BY IDOCK:   -6.19 KCAL/MOL
REMARK 922        TOTAL FREE ENERGY PREDICTED BY IDOCK:  -12.48 KCAL/MOL
REMARK 923 INTER-LIGAND FREE ENERGY PREDICTED BY IDOCK:   -9.97 KCAL/MOL
REMARK 924 INTRA-LIGAND FREE ENERGY PREDICTED BY IDOCK:   -2.51 KCAL/MOL
REMARK 927      BINDING AFFINITY PREDICTED BY RF-SCORE:    0.00 PKD
ROOT
HETATM    1  C   UNL     1     -12.903  14.822  73.396  1.00  0.00    -0.597 C  
HETATM    2  C   UNL     1     -13.735  14.045  72.387  1.00  0.00    -0.669 C  
ENDROOT
BRANCH   2   3
HETATM    3  C   UNL     1     -12.919  13.601  71.227  1.00  0.00    -0.399 C  
HETATM    4  C   UNL     1     -12.499  12.383  70.852  1.00  0.00    -0.367 C  
HETATM    5  C   UNL     1     -11.686  12.424  69.598  1.00  0.00    -0.307 C  
HETATM    6  C   UNL     1     -12.796  11.080  71.505  1.00  0.00    -0.555 C  
HETATM    7  N   UNL     1     -11.758  13.814  69.236  1.00  0.00    -0.304 N  
HETATM    8  O   UNL     1     -12.563  15.762  70.266  1.00  0.00    -0.384 OA 
HETATM    9  C   UNL     1     -12.416  14.552  70.213  1.00  0.00    -0.348 C  
BRANCH   7  10
HETATM   10  C   UNL     1     -11.399  14.228  67.966  1.00  0.00    -0.294 C  
HETATM   11  O   UNL     1     -10.229  14.423  67.643  1.00  0.00    -0.228 OA 
BRANCH  10  12
HETATM   12  N   UNL     1     -12.441  14.365  67.085  1.00  0.00    -0.521 N  
HETATM   13  H   UNL     1     -13.380  14.504  67.461  1.00  0.00     0.000 HD 
BRANCH  12  14
HETATM   14  C   UNL     1     -12.273  14.321  65.647  1.00  0.00    -0.400 C  
BRANCH  14  15
HETATM   15  C   UNL     1     -12.557  12.933  65.047  1.00  0.00    -0.538 C  
BRANCH  15  16
HETATM   16  C   UNL     1     -11.316  12.108  64.753  1.00  0.00    -0.378 A  
HETATM   17  C   UNL     1     -10.770  12.037  63.463  1.00  0.00    -0.513 A  
HETATM   18  C   UNL     1      -9.663  11.230  63.194  1.00  0.00    -0.408 A  
HETATM   19  C   UNL     1      -9.036  10.530  64.224  1.00  0.00    -0.228 A  
HETATM   20  C   UNL     1      -9.535  10.621  65.527  1.00  0.00    -0.261 A  
HETATM   21  C   UNL     1     -10.665  11.413  65.787  1.00  0.00    -0.309 A  
BRANCH  19  22
HETATM   22  S   UNL     1      -7.715   9.398  63.836  1.00  0.00    -0.129 S  
HETATM   23  O   UNL     1      -8.325   8.177  63.351  1.00  0.00    -0.106 OA 
HETATM   24  O   UNL     1      -6.731  10.089  63.031  1.00  0.00    -0.120 OA 
BRANCH  22  25
HETATM   25  N   UNL     1      -7.043   8.989  65.312  1.00  0.00    -0.083 N  
HETATM   26  H   UNL     1      -6.486   9.691  65.800  1.00  0.00     0.000 HD 
BRANCH  25  27
HETATM   27  C   UNL     1      -7.203   7.753  65.906  1.00  0.00    -0.072 C  
HETATM   28  O   UNL     1      -6.327   6.902  65.901  1.00  0.00    -0.046 OA 
BRANCH  27  29
HETATM   29  N   UNL     1      -8.423   7.552  66.506  1.00  0.00    -0.125 N  
HETATM   30  H   UNL     1      -9.280   7.534  65.954  1.00  0.00     0.000 HD 
BRANCH  29  31
HETATM   31  C   UNL     1      -8.462   7.364  67.955  1.00  0.00    -0.123 C  
HETATM   32  C   UNL     1      -7.568   8.352  68.714  1.00  0.00    -0.101 C  
HETATM   33  C   UNL     1      -8.211   9.705  69.013  1.00  0.00    -0.113 C  
HETATM   34  C   UNL     1      -9.624   9.593  69.597  1.00  0.00    -0.225 C  
HETATM   35  C   UNL     1     -10.496   8.727  68.682  1.00  0.00    -0.213 C  
HETATM   36  C   UNL     1      -9.619   9.073  71.040  1.00  0.00    -0.348 C  
HETATM   37  C   UNL     1      -9.910   7.333  68.469  1.00  0.00    -0.159 C  
ENDBRANCH  29  31
ENDBRANCH  27  29
ENDBRANCH  25  27
ENDBRANCH  22  25
ENDBRANCH  19  22
ENDBRANCH  15  16
ENDBRANCH  14  15
ENDBRANCH  12  14
ENDBRANCH  10  12
ENDBRANCH   7  10
ENDBRANCH   2   3
TORSDOF 11
ENDMDL
MODEL       52
REMARK 921   NORMALIZED FREE ENERGY PREDICTED BY IDOCK:   -6.19 KCAL/MOL
REMARK 922        TOTAL FREE ENERGY PREDICTED BY IDOCK:  -12.47 KCAL/MOL
REMARK 923 INTER-LIGAND FREE ENERGY PREDICTED BY IDOCK:  -11.07 KCAL/MOL
REMARK 924 INTRA-LIGAND FREE ENERGY PREDICTED BY IDOCK:   -1.40 KCAL/MOL
REMARK 927      BINDING AFFINITY PREDICTED BY RF-SCORE:    0.00 PKD
ROOT
HETATM    1  C   UNL     1     -10.318   9.918  66.450  1.00  0.00    -0.246 C  
HETATM    2  C   UNL     1     -10.005  10.645  65.151  1.00  0.00    -0.366 C  
ENDROOT
BRANCH   2   3
HETATM    3  C   UNL     1     -10.428  12.070  65.201  1.00  0.00    -0.328 C  
HETATM    4  C   UNL     1     -11.380  12.737  64.532  1.00  0.00    -0.378 C  
HETATM    5  C   UNL     1     -11.437  14.180  64.916  1.00  0.00    -0.366 C  
HETATM    6  C   UNL     1     -12.349  12.188  63.545  1.00  0.00    -0.682 C  
HETATM    7  N   UNL     1     -10.456  14.255  65.963  1.00  0.00    -0.291 N  
HETATM    8  O   UNL     1      -8.836  12.796  66.833  1.00  0.00    -0.211 OA 
HETATM    9  C   UNL     1      -9.787  13.045  66.109  1.00  0.00    -0.273 C  
BRANCH   7  10
HETATM   10  C   UNL     1     -10.412  15.349  66.808  1.00  0.00    -0.299 C  
HETATM   11  O   UNL     1     -10.864  16.446  66.489  1.00  0.00    -0.218 OA 
BRANCH  10  12
HETATM   12  N   UNL     1      -9.864  15.105  68.042  1.00  0.00    -0.212 N  
HETATM   13  H   UNL     1      -8.867  14.895  68.098  1.00  0.00     0.000 HD 
BRANCH  12  14
HETATM   14  C   UNL     1     -10.634  15.133  69.269  1.00  0.00    -0.253 C  
BRANCH  14  15
HETATM   15  C   UNL     1     -12.015  14.469  69.131  1.00  0.00    -0.344 C  
BRANCH  15  16
HETATM   16  C   UNL     1     -12.129  13.108  69.796  1.00  0.00    -0.336 A  
HETATM   17  C   UNL     1     -12.723  12.955  71.058  1.00  0.00    -0.338 A  
HETATM   18  C   UNL     1     -12.770  11.708  71.684  1.00  0.00    -0.375 A  
HETATM   19  C   UNL     1     -12.286  10.574  71.031  1.00  0.00    -0.399 A  
HETATM   20  C   UNL     1     -11.732  10.695  69.753  1.00  0.00    -0.385 A  
HETATM   21  C   UNL     1     -11.662  11.956  69.140  1.00  0.00    -0.380 A  
BRANCH  19  22
HETATM   22  S   UNL     1     -12.228   9.020  71.902  1.00  0.00    -0.391 S  
HETATM   23  O   UNL     1     -10.841   8.767  72.234  1.00  0.00    -0.352 OA 
HETATM   24  O   UNL     1     -13.234   9.031  72.941  1.00  0.00    -0.339 OA 
BRANCH  22  25
HETATM   25  N   UNL     1     -12.618   7.864  70.758  1.00  0.00    -0.507 N  
HETATM   26  H   UNL     1     -13.482   7.981  70.228  1.00  0.00     0.000 HD 
BRANCH  25  27
HETATM   27  C   UNL     1     -11.832   6.761  70.491  1.00  0.00    -0.362 C  
HETATM   28  O   UNL     1     -11.329   6.081  71.372  1.00  0.00    -0.285 OA 
BRANCH  27  29
HETATM   29  N   UNL     1     -11.659   6.481  69.156  1.00  0.00    -0.624 N  
HETATM   30  H   UNL     1     -12.454   6.229  68.569  1.00  0.00     0.000 HD 
BRANCH  29  31
HETATM   31  C   UNL     1     -10.310   6.553  68.599  1.00  0.00    -0.191 C  
HETATM   32  C   UNL     1      -9.359   5.505  69.189  1.00  0.00    -0.158 C  
HETATM   33  C   UNL     1      -9.413   4.135  68.516  1.00  0.00    -0.216 C  
HETATM   34  C   UNL     1      -9.364   4.204  66.985  1.00  0.00    -0.195 C  
HETATM   35  C   UNL     1     -10.461   5.144  66.475  1.00  0.00    -0.346 C  
HETATM   36  C   UNL     1      -7.979   4.608  66.464  1.00  0.00    -0.103 C  
HETATM   37  C   UNL     1     -10.345   6.548  67.063  1.00  0.00    -0.319 C  
ENDBRANCH  29  31
ENDBRANCH  27  29
ENDBRANCH  25  27
ENDBRANCH  22  25
ENDBRANCH  19  22
ENDBRANCH  15  16
ENDBRANCH  14  15
ENDBRANCH  12  14
ENDBRANCH  10  12
ENDBRANCH   7  10
ENDBRANCH   2   3
TORSDOF 11
ENDMDL
MODEL       53
REMARK 921   NORMALIZED FREE ENERGY PREDICTED BY IDOCK:   -6.17 KCAL/MOL
REMARK 922        TOTAL FREE ENERGY PREDICTED BY IDOCK:  -12.45 KCAL/MOL
REMARK 923 INTER-LIGAND FREE ENERGY PREDICTED BY IDOCK:  -10.41 KCAL/MOL
REMARK 924 INTRA-LIGAND FREE ENERGY PREDICTED BY IDOCK:   -2.04 KCAL/MOL
REMARK 927      BINDING AFFINITY PREDICTED BY RF-SCORE:    0.00 PKD
ROOT
HETATM    1  C   UNL     1     -10.255   8.049  66.863  1.00  0.00    -0.385 C  
HETATM    2  C   UNL     1     -11.029   6.739  66.887  1.00  0.00    -0.370 C  
ENDROOT
BRANCH   2   3
HETATM    3  C   UNL     1     -10.473   5.790  67.888  1.00  0.00    -0.290 C  
HETATM    4  C   UNL     1      -9.553   4.821  67.777  1.00  0.00    -0.194 C  
HETATM    5  C   UNL     1      -9.316   4.112  69.071  1.00  0.00    -0.165 C  
HETATM    6  C   UNL     1      -8.766   4.451  66.569  1.00  0.00    -0.112 C  
HETATM    7  N   UNL     1     -10.151   4.850  69.978  1.00  0.00    -0.262 N  
HETATM    8  O   UNL     1     -11.780   6.525  69.752  1.00  0.00    -0.382 OA 
HETATM    9  C   UNL     1     -10.906   5.801  69.302  1.00  0.00    -0.303 C  
BRANCH   7  10
HETATM   10  C   UNL     1      -9.991   4.719  71.346  1.00  0.00    -0.197 C  
HETATM   11  O   UNL     1      -8.965   4.264  71.848  1.00  0.00    -0.115 OA 
BRANCH  10  12
HETATM   12  N   UNL     1     -11.044   5.173  72.098  1.00  0.00    -0.122 N  
HETATM   13  H   UNL     1     -11.964   5.232  71.660  1.00  0.00     0.000 HD 
BRANCH  12  14
HETATM   14  C   UNL     1     -10.912   5.573  73.485  1.00  0.00    -0.240 C  
BRANCH  14  15
HETATM   15  C   UNL     1     -10.193   6.922  73.659  1.00  0.00    -0.372 C  
BRANCH  15  16
HETATM   16  C   UNL     1     -10.571   7.974  72.631  1.00  0.00    -0.419 A  
HETATM   17  C   UNL     1      -9.638   8.469  71.707  1.00  0.00    -0.337 A  
HETATM   18  C   UNL     1      -9.983   9.477  70.806  1.00  0.00    -0.334 A  
HETATM   19  C   UNL     1     -11.289   9.964  70.762  1.00  0.00    -0.353 A  
HETATM   20  C   UNL     1     -12.248   9.454  71.641  1.00  0.00    -0.467 A  
HETATM   21  C   UNL     1     -11.890   8.459  72.564  1.00  0.00    -0.427 A  
BRANCH  19  22
HETATM   22  S   UNL     1     -11.673  11.346  69.702  1.00  0.00    -0.376 S  
HETATM   23  O   UNL     1     -12.192  10.804  68.463  1.00  0.00    -0.470 OA 
HETATM   24  O   UNL     1     -12.445  12.310  70.455  1.00  0.00    -0.241 OA 
BRANCH  22  25
HETATM   25  N   UNL     1     -10.191  12.009  69.298  1.00  0.00    -0.401 N  
HETATM   26  H   UNL     1      -9.814  12.748  69.893  1.00  0.00     0.000 HD 
BRANCH  25  27
HETATM   27  C   UNL     1      -9.452  11.610  68.202  1.00  0.00    -0.191 C  
HETATM   28  O   UNL     1      -8.284  11.262  68.287  1.00  0.00    -0.128 OA 
BRANCH  27  29
HETATM   29  N   UNL     1     -10.130  11.631  67.006  1.00  0.00    -0.207 N  
HETATM   30  H   UNL     1     -10.710  10.843  66.722  1.00  0.00     0.000 HD 
BRANCH  29  31
HETATM   31  C   UNL     1      -9.998  12.809  66.152  1.00  0.00    -0.266 C  
HETATM   32  C   UNL     1     -10.381  12.540  64.692  1.00  0.00    -0.341 C  
HETATM   33  C   UNL     1     -11.873  12.658  64.386  1.00  0.00    -0.452 C  
HETATM   34  C   UNL     1     -12.515  13.927  64.958  1.00  0.00    -0.447 C  
HETATM   35  C   UNL     1     -12.223  14.025  66.459  1.00  0.00    -0.485 C  
HETATM   36  C   UNL     1     -12.076  15.191  64.208  1.00  0.00    -0.277 C  
HETATM   37  C   UNL     1     -10.726  14.017  66.761  1.00  0.00    -0.285 C  
ENDBRANCH  29  31
ENDBRANCH  27  29
ENDBRANCH  25  27
ENDBRANCH  22  25
ENDBRANCH  19  22
ENDBRANCH  15  16
ENDBRANCH  14  15
ENDBRANCH  12  14
ENDBRANCH  10  12
ENDBRANCH   7  10
ENDBRANCH   2   3
TORSDOF 11
ENDMDL
MODEL       54
REMARK 921   NORMALIZED FREE ENERGY PREDICTED BY IDOCK:   -6.17 KCAL/MOL
REMARK 922        TOTAL FREE ENERGY PREDICTED BY IDOCK:  -12.45 KCAL/MOL
REMARK 923 INTER-LIGAND FREE ENERGY PREDICTED BY IDOCK:  -10.13 KCAL/MOL
REMARK 924 INTRA-LIGAND FREE ENERGY PREDICTED BY IDOCK:   -2.32 KCAL/MOL
REMARK 927      BINDING AFFINITY PREDICTED BY RF-SCORE:    0.00 PKD
ROOT
HETATM    1  C   UNL     1      -9.373   6.502  73.280  1.00  0.00    -0.145 C  
HETATM    2  C   UNL     1     -10.527   5.671  72.741  1.00  0.00    -0.247 C  
ENDROOT
BRANCH   2   3
HETATM    3  C   UNL     1     -10.670   5.818  71.268  1.00  0.00    -0.323 C  
HETATM    4  C   UNL     1     -11.347   6.708  70.527  1.00  0.00    -0.413 C  
HETATM    5  C   UNL     1     -11.199   6.454  69.062  1.00  0.00    -0.331 C  
HETATM    6  C   UNL     1     -12.135   7.875  71.006  1.00  0.00    -0.246 C  
HETATM    7  N   UNL     1     -10.275   5.354  69.035  1.00  0.00    -0.216 N  
HETATM    8  O   UNL     1      -9.335   3.932  70.649  1.00  0.00    -0.124 OA 
HETATM    9  C   UNL     1      -9.997   4.904  70.321  1.00  0.00    -0.251 C  
BRANCH   7  10
HETATM   10  C   UNL     1      -9.627   5.007  67.864  1.00  0.00    -0.140 C  
HETATM   11  O   UNL     1     -10.236   4.715  66.836  1.00  0.00    -0.213 OA 
BRANCH  10  12
HETATM   12  N   UNL     1      -8.258   5.055  67.923  1.00  0.00    -0.097 N  
HETATM   13  H   UNL     1      -7.734   4.195  67.758  1.00  0.00     0.000 HD 
BRANCH  12  14
HETATM   14  C   UNL     1      -7.520   6.269  68.210  1.00  0.00    -0.090 C  
BRANCH  14  15
HETATM   15  C   UNL     1      -7.573   7.293  67.064  1.00  0.00    -0.106 C  
BRANCH  15  16
HETATM   16  C   UNL     1      -8.539   8.444  67.291  1.00  0.00    -0.123 A  
HETATM   17  C   UNL     1      -8.804   8.937  68.577  1.00  0.00    -0.134 A  
HETATM   18  C   UNL     1      -9.736   9.956  68.779  1.00  0.00    -0.164 A  
HETATM   19  C   UNL     1     -10.373  10.552  67.690  1.00  0.00    -0.217 A  
HETATM   20  C   UNL     1     -10.091  10.108  66.395  1.00  0.00    -0.300 A  
HETATM   21  C   UNL     1      -9.173   9.064  66.200  1.00  0.00    -0.272 A  
BRANCH  19  22
HETATM   22  S   UNL     1     -11.660  11.751  67.978  1.00  0.00    -0.301 S  
HETATM   23  O   UNL     1     -12.200  12.119  66.685  1.00  0.00    -0.566 OA 
HETATM   24  O   UNL     1     -12.536  11.255  69.017  1.00  0.00    -0.417 OA 
BRANCH  22  25
HETATM   25  N   UNL     1     -10.867  13.120  68.521  1.00  0.00    -0.255 N  
HETATM   26  H   UNL     1      -9.873  13.047  68.742  1.00  0.00     0.000 HD 
BRANCH  25  27
HETATM   27  C   UNL     1     -11.485  14.344  68.685  1.00  0.00    -0.287 C  
HETATM   28  O   UNL     1     -11.163  15.335  68.049  1.00  0.00    -0.302 OA 
BRANCH  27  29
HETATM   29  N   UNL     1     -12.494  14.363  69.619  1.00  0.00    -0.519 N  
HETATM   30  H   UNL     1     -13.453  14.574  69.346  1.00  0.00     0.000 HD 
BRANCH  29  31
HETATM   31  C   UNL     1     -12.158  14.073  71.012  1.00  0.00    -0.305 C  
HETATM   32  C   UNL     1     -11.165  15.076  71.612  1.00  0.00    -0.221 C  
HETATM   33  C   UNL     1     -11.795  16.348  72.175  1.00  0.00    -0.499 C  
HETATM   34  C   UNL     1     -13.008  16.082  73.075  1.00  0.00    -0.586 C  
HETATM   35  C   UNL     1     -14.025  15.213  72.329  1.00  0.00    -0.631 C  
HETATM   36  C   UNL     1     -12.610  15.466  74.422  1.00  0.00    -0.579 C  
HETATM   37  C   UNL     1     -13.426  13.889  71.859  1.00  0.00    -0.511 C  
ENDBRANCH  29  31
ENDBRANCH  27  29
ENDBRANCH  25  27
ENDBRANCH  22  25
ENDBRANCH  19  22
ENDBRANCH  15  16
ENDBRANCH  14  15
ENDBRANCH  12  14
ENDBRANCH  10  12
ENDBRANCH   7  10
ENDBRANCH   2   3
TORSDOF 11
ENDMDL
MODEL       55
REMARK 921   NORMALIZED FREE ENERGY PREDICTED BY IDOCK:   -6.15 KCAL/MOL
REMARK 922        TOTAL FREE ENERGY PREDICTED BY IDOCK:  -12.41 KCAL/MOL
REMARK 923 INTER-LIGAND FREE ENERGY PREDICTED BY IDOCK:  -11.05 KCAL/MOL
REMARK 924 INTRA-LIGAND FREE ENERGY PREDICTED BY IDOCK:   -1.36 KCAL/MOL
REMARK 927      BINDING AFFINITY PREDICTED BY RF-SCORE:    0.00 PKD
ROOT
HETATM    1  C   UNL     1      -8.949   2.318  69.505  1.00  0.00    -0.162 C  
HETATM    2  C   UNL     1      -8.567   3.426  68.535  1.00  0.00    -0.122 C  
ENDROOT
BRANCH   2   3
HETATM    3  C   UNL     1      -9.486   4.591  68.640  1.00  0.00    -0.220 C  
HETATM    4  C   UNL     1     -10.235   5.215  67.719  1.00  0.00    -0.190 C  
HETATM    5  C   UNL     1     -11.006   6.359  68.296  1.00  0.00    -0.312 C  
HETATM    6  C   UNL     1     -10.393   4.860  66.283  1.00  0.00    -0.336 C  
HETATM    7  N   UNL     1     -10.682   6.269  69.694  1.00  0.00    -0.270 N  
HETATM    8  O   UNL     1      -9.166   5.014  70.973  1.00  0.00    -0.139 OA 
HETATM    9  C   UNL     1      -9.729   5.283  69.923  1.00  0.00    -0.193 C  
BRANCH   7  10
HETATM   10  C   UNL     1     -11.431   6.952  70.634  1.00  0.00    -0.336 C  
HETATM   11  O   UNL     1     -12.655   6.855  70.698  1.00  0.00    -0.278 OA 
BRANCH  10  12
HETATM   12  N   UNL     1     -10.703   7.710  71.515  1.00  0.00    -0.220 N  
HETATM   13  H   UNL     1     -10.312   7.255  72.341  1.00  0.00     0.000 HD 
BRANCH  12  14
HETATM   14  C   UNL     1     -10.462   9.127  71.329  1.00  0.00    -0.328 C  
BRANCH  14  15
HETATM   15  C   UNL     1      -9.494   9.428  70.173  1.00  0.00    -0.276 C  
BRANCH  15  16
HETATM   16  C   UNL     1     -10.081  10.290  69.068  1.00  0.00    -0.225 A  
HETATM   17  C   UNL     1      -9.285  10.795  68.028  1.00  0.00    -0.150 A  
HETATM   18  C   UNL     1      -9.825  11.632  67.051  1.00  0.00    -0.211 A  
HETATM   19  C   UNL     1     -11.189  11.927  67.053  1.00  0.00    -0.323 A  
HETATM   20  C   UNL     1     -12.010  11.399  68.053  1.00  0.00    -0.162 A  
HETATM   21  C   UNL     1     -11.457  10.579  69.049  1.00  0.00    -0.304 A  
BRANCH  19  22
HETATM   22  S   UNL     1     -11.830  13.108  65.882  1.00  0.00    -0.428 S  
HETATM   23  O   UNL     1     -10.698  13.655  65.161  1.00  0.00    -0.316 OA 
HETATM   24  O   UNL     1     -12.927  12.501  65.161  1.00  0.00    -0.700 OA 
BRANCH  22  25
HETATM   25  N   UNL     1     -12.404  14.376  66.810  1.00  0.00    -0.534 N  
HETATM   26  H   UNL     1     -13.289  14.807  66.544  1.00  0.00     0.000 HD 
BRANCH  25  27
HETATM   27  C   UNL     1     -11.743  14.869  67.918  1.00  0.00    -0.321 C  
HETATM   28  O   UNL     1     -10.547  15.113  67.917  1.00  0.00    -0.249 OA 
BRANCH  27  29
HETATM   29  N   UNL     1     -12.535  15.067  69.025  1.00  0.00    -0.578 N  
HETATM   30  H   UNL     1     -13.407  15.590  68.955  1.00  0.00     0.000 HD 
BRANCH  29  31
HETATM   31  C   UNL     1     -12.097  14.509  70.302  1.00  0.00    -0.323 C  
HETATM   32  C   UNL     1     -11.170  15.449  71.083  1.00  0.00    -0.410 C  
HETATM   33  C   UNL     1     -11.883  16.490  71.942  1.00  0.00    -0.279 C  
HETATM   34  C   UNL     1     -13.014  15.906  72.797  1.00  0.00    -0.575 C  
HETATM   35  C   UNL     1     -13.986  15.125  71.906  1.00  0.00    -0.629 C  
HETATM   36  C   UNL     1     -12.486  15.049  73.954  1.00  0.00    -0.660 C  
HETATM   37  C   UNL     1     -13.293  14.010  71.127  1.00  0.00    -0.290 C  
ENDBRANCH  29  31
ENDBRANCH  27  29
ENDBRANCH  25  27
ENDBRANCH  22  25
ENDBRANCH  19  22
ENDBRANCH  15  16
ENDBRANCH  14  15
ENDBRANCH  12  14
ENDBRANCH  10  12
ENDBRANCH   7  10
ENDBRANCH   2   3
TORSDOF 11
ENDMDL
MODEL       56
REMARK 921   NORMALIZED FREE ENERGY PREDICTED BY IDOCK:   -6.13 KCAL/MOL
REMARK 922        TOTAL FREE ENERGY PREDICTED BY IDOCK:  -12.38 KCAL/MOL
REMARK 923 INTER-LIGAND FREE ENERGY PREDICTED BY IDOCK:  -10.59 KCAL/MOL
REMARK 924 INTRA-LIGAND FREE ENERGY PREDICTED BY IDOCK:   -1.79 KCAL/MOL
REMARK 927      BINDING AFFINITY PREDICTED BY RF-SCORE:    0.00 PKD
ROOT
HETATM    1  C   UNL     1     -12.426  15.237  74.052  1.00  0.00    -0.757 C  
HETATM    2  C   UNL     1     -13.278  15.244  72.792  1.00  0.00    -0.583 C  
ENDROOT
BRANCH   2   3
HETATM    3  C   UNL     1     -12.618  14.513  71.678  1.00  0.00    -0.419 C  
HETATM    4  C   UNL     1     -12.635  13.217  71.334  1.00  0.00    -0.352 C  
HETATM    5  C   UNL     1     -11.804  12.940  70.123  1.00  0.00    -0.245 C  
HETATM    6  C   UNL     1     -13.399  12.116  71.981  1.00  0.00    -0.470 C  
HETATM    7  N   UNL     1     -11.369  14.257  69.747  1.00  0.00    -0.250 N  
HETATM    8  O   UNL     1     -11.485  16.390  70.720  1.00  0.00    -0.368 OA 
HETATM    9  C   UNL     1     -11.769  15.203  70.683  1.00  0.00    -0.312 C  
BRANCH   7  10
HETATM   10  C   UNL     1     -10.831  14.489  68.494  1.00  0.00    -0.249 C  
HETATM   11  O   UNL     1      -9.631  14.362  68.259  1.00  0.00    -0.199 OA 
BRANCH  10  12
HETATM   12  N   UNL     1     -11.741  14.828  67.526  1.00  0.00    -0.376 N  
HETATM   13  H   UNL     1     -12.058  15.797  67.476  1.00  0.00     0.000 HD 
BRANCH  12  14
HETATM   14  C   UNL     1     -12.275  13.877  66.573  1.00  0.00    -0.442 C  
BRANCH  14  15
HETATM   15  C   UNL     1     -11.231  13.395  65.551  1.00  0.00    -0.303 C  
BRANCH  15  16
HETATM   16  C   UNL     1     -10.696  11.997  65.810  1.00  0.00    -0.319 A  
HETATM   17  C   UNL     1      -9.661  11.451  65.035  1.00  0.00    -0.286 A  
HETATM   18  C   UNL     1      -9.218  10.144  65.246  1.00  0.00    -0.257 A  
HETATM   19  C   UNL     1      -9.752   9.379  66.282  1.00  0.00    -0.264 A  
HETATM   20  C   UNL     1     -10.751   9.918  67.097  1.00  0.00    -0.276 A  
HETATM   21  C   UNL     1     -11.213  11.222  66.863  1.00  0.00    -0.300 A  
BRANCH  19  22
HETATM   22  S   UNL     1      -9.272   7.669  66.444  1.00  0.00    -0.157 S  
HETATM   23  O   UNL     1     -10.458   6.925  66.819  1.00  0.00    -0.257 OA 
HETATM   24  O   UNL     1      -8.512   7.286  65.275  1.00  0.00    -0.133 OA 
BRANCH  22  25
HETATM   25  N   UNL     1      -8.286   7.620  67.794  1.00  0.00    -0.118 N  
HETATM   26  H   UNL     1      -7.383   7.152  67.716  1.00  0.00     0.000 HD 
BRANCH  25  27
HETATM   27  C   UNL     1      -8.629   8.179  69.009  1.00  0.00    -0.133 C  
HETATM   28  O   UNL     1      -8.222   9.273  69.370  1.00  0.00    -0.103 OA 
BRANCH  27  29
HETATM   29  N   UNL     1      -9.468   7.413  69.784  1.00  0.00    -0.160 N  
HETATM   30  H   UNL     1      -9.100   6.658  70.362  1.00  0.00     0.000 HD 
BRANCH  29  31
HETATM   31  C   UNL     1     -10.899   7.707  69.760  1.00  0.00    -0.217 C  
HETATM   32  C   UNL     1     -11.754   6.584  70.360  1.00  0.00    -0.439 C  
HETATM   33  C   UNL     1     -11.911   6.637  71.879  1.00  0.00    -0.386 C  
HETATM   34  C   UNL     1     -12.279   8.028  72.407  1.00  0.00    -0.337 C  
HETATM   35  C   UNL     1     -11.270   9.060  71.894  1.00  0.00    -0.438 C  
HETATM   36  C   UNL     1     -13.722   8.420  72.062  1.00  0.00    -0.415 C  
HETATM   37  C   UNL     1     -11.190   9.087  70.369  1.00  0.00    -0.275 C  
ENDBRANCH  29  31
ENDBRANCH  27  29
ENDBRANCH  25  27
ENDBRANCH  22  25
ENDBRANCH  19  22
ENDBRANCH  15  16
ENDBRANCH  14  15
ENDBRANCH  12  14
ENDBRANCH  10  12
ENDBRANCH   7  10
ENDBRANCH   2   3
TORSDOF 11
ENDMDL
MODEL       57
REMARK 921   NORMALIZED FREE ENERGY PREDICTED BY IDOCK:   -6.12 KCAL/MOL
REMARK 922        TOTAL FREE ENERGY PREDICTED BY IDOCK:  -12.37 KCAL/MOL
REMARK 923 INTER-LIGAND FREE ENERGY PREDICTED BY IDOCK:  -11.04 KCAL/MOL
REMARK 924 INTRA-LIGAND FREE ENERGY PREDICTED BY IDOCK:   -1.32 KCAL/MOL
REMARK 927      BINDING AFFINITY PREDICTED BY RF-SCORE:    0.00 PKD
ROOT
HETATM    1  C   UNL     1      -9.265  20.025  66.122  1.00  0.00    -0.389 C  
HETATM    2  C   UNL     1     -10.427  19.081  66.393  1.00  0.00    -0.524 C  
ENDROOT
BRANCH   2   3
HETATM    3  C   UNL     1     -10.041  17.660  66.184  1.00  0.00    -0.307 C  
HETATM    4  C   UNL     1      -9.139  16.886  66.805  1.00  0.00    -0.266 C  
HETATM    5  C   UNL     1      -9.095  15.502  66.241  1.00  0.00    -0.334 C  
HETATM    6  C   UNL     1      -8.275  17.247  67.961  1.00  0.00    -0.223 C  
HETATM    7  N   UNL     1     -10.152  15.538  65.267  1.00  0.00    -0.338 N  
HETATM    8  O   UNL     1     -11.520  17.214  64.358  1.00  0.00    -1.013 OA 
HETATM    9  C   UNL     1     -10.684  16.817  65.154  1.00  0.00    -0.143 C  
BRANCH   7  10
HETATM   10  C   UNL     1     -10.655  14.366  64.733  1.00  0.00    -0.393 C  
HETATM   11  O   UNL     1      -9.930  13.487  64.273  1.00  0.00    -0.270 OA 
BRANCH  10  12
HETATM   12  N   UNL     1     -12.020  14.241  64.794  1.00  0.00    -0.417 N  
HETATM   13  H   UNL     1     -12.569  14.507  63.976  1.00  0.00     0.000 HD 
BRANCH  12  14
HETATM   14  C   UNL     1     -12.718  13.751  65.965  1.00  0.00    -0.354 C  
BRANCH  14  15
HETATM   15  C   UNL     1     -11.984  14.061  67.281  1.00  0.00    -0.448 C  
BRANCH  15  16
HETATM   16  C   UNL     1     -12.024  12.939  68.304  1.00  0.00    -0.297 A  
HETATM   17  C   UNL     1     -12.309  13.187  69.655  1.00  0.00    -0.129 A  
HETATM   18  C   UNL     1     -12.287  12.156  70.596  1.00  0.00    -0.385 A  
HETATM   19  C   UNL     1     -12.048  10.842  70.194  1.00  0.00    -0.349 A  
HETATM   20  C   UNL     1     -11.807  10.564  68.845  1.00  0.00    -0.136 A  
HETATM   21  C   UNL     1     -11.803  11.608  67.908  1.00  0.00    -0.273 A  
BRANCH  19  22
HETATM   22  S   UNL     1     -11.885   9.565  71.427  1.00  0.00    -0.414 S  
HETATM   23  O   UNL     1     -10.470   9.293  71.578  1.00  0.00    -0.334 OA 
HETATM   24  O   UNL     1     -12.683   9.925  72.578  1.00  0.00    -0.196 OA 
BRANCH  22  25
HETATM   25  N   UNL     1     -12.517   8.190  70.716  1.00  0.00    -0.494 N  
HETATM   26  H   UNL     1     -13.357   8.284  70.144  1.00  0.00     0.000 HD 
BRANCH  25  27
HETATM   27  C   UNL     1     -11.963   6.933  70.861  1.00  0.00    -0.381 C  
HETATM   28  O   UNL     1     -11.762   6.424  71.953  1.00  0.00    -0.304 OA 
BRANCH  27  29
HETATM   29  N   UNL     1     -11.655   6.296  69.683  1.00  0.00    -0.526 N  
HETATM   30  H   UNL     1     -12.375   5.810  69.149  1.00  0.00     0.000 HD 
BRANCH  29  31
HETATM   31  C   UNL     1     -10.271   6.331  69.214  1.00  0.00    -0.193 C  
HETATM   32  C   UNL     1      -9.813   5.006  68.592  1.00  0.00    -0.227 C  
HETATM   33  C   UNL     1     -10.162   4.833  67.115  1.00  0.00    -0.181 C  
HETATM   34  C   UNL     1      -9.816   6.057  66.259  1.00  0.00    -0.102 C  
HETATM   35  C   UNL     1     -10.459   7.310  66.863  1.00  0.00    -0.369 C  
HETATM   36  C   UNL     1      -8.304   6.226  66.069  1.00  0.00    -0.138 C  
HETATM   37  C   UNL     1     -10.025   7.547  68.308  1.00  0.00    -0.193 C  
ENDBRANCH  29  31
ENDBRANCH  27  29
ENDBRANCH  25  27
ENDBRANCH  22  25
ENDBRANCH  19  22
ENDBRANCH  15  16
ENDBRANCH  14  15
ENDBRANCH  12  14
ENDBRANCH  10  12
ENDBRANCH   7  10
ENDBRANCH   2   3
TORSDOF 11
ENDMDL
MODEL       58
REMARK 921   NORMALIZED FREE ENERGY PREDICTED BY IDOCK:   -6.12 KCAL/MOL
REMARK 922        TOTAL FREE ENERGY PREDICTED BY IDOCK:  -12.35 KCAL/MOL
REMARK 923 INTER-LIGAND FREE ENERGY PREDICTED BY IDOCK:   -9.98 KCAL/MOL
REMARK 924 INTRA-LIGAND FREE ENERGY PREDICTED BY IDOCK:   -2.38 KCAL/MOL
REMARK 927      BINDING AFFINITY PREDICTED BY RF-SCORE:    0.00 PKD
ROOT
HETATM    1  C   UNL     1     -10.721   5.097  66.080  1.00  0.00    -0.199 C  
HETATM    2  C   UNL     1     -11.020   6.326  66.926  1.00  0.00    -0.404 C  
ENDROOT
BRANCH   2   3
HETATM    3  C   UNL     1      -9.921   6.613  67.886  1.00  0.00    -0.152 C  
HETATM    4  C   UNL     1      -8.779   7.302  67.746  1.00  0.00    -0.126 C  
HETATM    5  C   UNL     1      -7.969   7.318  69.002  1.00  0.00    -0.119 C  
HETATM    6  C   UNL     1      -8.307   8.044  66.545  1.00  0.00    -0.121 C  
HETATM    7  N   UNL     1      -8.825   6.624  69.924  1.00  0.00    -0.143 N  
HETATM    8  O   UNL     1     -10.829   5.415  69.746  1.00  0.00    -0.297 OA 
HETATM    9  C   UNL     1      -9.954   6.129  69.282  1.00  0.00    -0.158 C  
BRANCH   7  10
HETATM   10  C   UNL     1      -8.591   6.689  71.286  1.00  0.00    -0.126 C  
HETATM   11  O   UNL     1      -7.493   6.440  71.778  1.00  0.00    -0.091 OA 
BRANCH  10  12
HETATM   12  N   UNL     1      -9.664   7.092  72.039  1.00  0.00    -0.158 N  
HETATM   13  H   UNL     1     -10.289   6.379  72.415  1.00  0.00     0.000 HD 
BRANCH  12  14
HETATM   14  C   UNL     1      -9.952   8.483  72.325  1.00  0.00    -0.315 C  
BRANCH  14  15
HETATM   15  C   UNL     1     -11.388   8.892  71.952  1.00  0.00    -0.446 C  
BRANCH  15  16
HETATM   16  C   UNL     1     -11.479   9.938  70.854  1.00  0.00    -0.456 A  
HETATM   17  C   UNL     1     -10.903   9.731  69.592  1.00  0.00    -0.274 A  
HETATM   18  C   UNL     1     -10.944  10.722  68.610  1.00  0.00    -0.285 A  
HETATM   19  C   UNL     1     -11.623  11.918  68.847  1.00  0.00    -0.311 A  
HETATM   20  C   UNL     1     -12.245  12.128  70.081  1.00  0.00    -0.308 A  
HETATM   21  C   UNL     1     -12.177  11.139  71.074  1.00  0.00    -0.438 A  
BRANCH  19  22
HETATM   22  S   UNL     1     -11.544  13.224  67.635  1.00  0.00    -0.366 S  
HETATM   23  O   UNL     1     -10.155  13.621  67.525  1.00  0.00    -0.233 OA 
HETATM   24  O   UNL     1     -12.280  12.813  66.459  1.00  0.00    -0.494 OA 
BRANCH  22  25
HETATM   25  N   UNL     1     -12.312  14.527  68.349  1.00  0.00    -0.605 N  
HETATM   26  H   UNL     1     -13.330  14.507  68.422  1.00  0.00     0.000 HD 
BRANCH  25  27
HETATM   27  C   UNL     1     -11.643  15.628  68.845  1.00  0.00    -0.383 C  
HETATM   28  O   UNL     1     -11.597  15.889  70.037  1.00  0.00    -0.323 OA 
BRANCH  27  29
HETATM   29  N   UNL     1     -11.027  16.408  67.895  1.00  0.00    -0.328 N  
HETATM   30  H   UNL     1     -11.324  16.375  66.920  1.00  0.00     0.000 HD 
BRANCH  29  31
HETATM   31  C   UNL     1      -9.937  17.286  68.316  1.00  0.00    -0.313 C  
HETATM   32  C   UNL     1      -8.654  17.085  67.500  1.00  0.00    -0.212 C  
HETATM   33  C   UNL     1      -8.594  17.871  66.191  1.00  0.00    -0.130 C  
HETATM   34  C   UNL     1      -8.992  19.344  66.345  1.00  0.00    -0.395 C  
HETATM   35  C   UNL     1     -10.365  19.442  67.017  1.00  0.00    -0.547 C  
HETATM   36  C   UNL     1      -7.930  20.159  67.094  1.00  0.00    -0.363 C  
HETATM   37  C   UNL     1     -10.398  18.750  68.377  1.00  0.00    -0.360 C  
ENDBRANCH  29  31
ENDBRANCH  27  29
ENDBRANCH  25  27
ENDBRANCH  22  25
ENDBRANCH  19  22
ENDBRANCH  15  16
ENDBRANCH  14  15
ENDBRANCH  12  14
ENDBRANCH  10  12
ENDBRANCH   7  10
ENDBRANCH   2   3
TORSDOF 11
ENDMDL
MODEL       59
REMARK 921   NORMALIZED FREE ENERGY PREDICTED BY IDOCK:   -6.12 KCAL/MOL
REMARK 922        TOTAL FREE ENERGY PREDICTED BY IDOCK:  -12.35 KCAL/MOL
REMARK 923 INTER-LIGAND FREE ENERGY PREDICTED BY IDOCK:  -11.06 KCAL/MOL
REMARK 924 INTRA-LIGAND FREE ENERGY PREDICTED BY IDOCK:   -1.29 KCAL/MOL
REMARK 927      BINDING AFFINITY PREDICTED BY RF-SCORE:    0.00 PKD
ROOT
HETATM    1  C   UNL     1     -12.982   8.434  71.903  1.00  0.00    -0.381 C  
HETATM    2  C   UNL     1     -12.321   7.065  71.976  1.00  0.00    -0.302 C  
ENDROOT
BRANCH   2   3
HETATM    3  C   UNL     1     -10.958   7.081  71.382  1.00  0.00    -0.266 C  
HETATM    4  C   UNL     1      -9.791   7.544  71.853  1.00  0.00    -0.196 C  
HETATM    5  C   UNL     1      -8.669   7.343  70.886  1.00  0.00    -0.144 C  
HETATM    6  C   UNL     1      -9.526   8.154  73.184  1.00  0.00    -0.316 C  
HETATM    7  N   UNL     1      -9.311   6.620  69.822  1.00  0.00    -0.145 N  
HETATM    8  O   UNL     1     -11.527   6.047  69.301  1.00  0.00    -0.345 OA 
HETATM    9  C   UNL     1     -10.679   6.511  70.047  1.00  0.00    -0.249 C  
BRANCH   7  10
HETATM   10  C   UNL     1      -8.560   5.962  68.865  1.00  0.00    -0.110 C  
HETATM   11  O   UNL     1      -8.250   4.778  68.971  1.00  0.00    -0.081 OA 
BRANCH  10  12
HETATM   12  N   UNL     1      -8.224   6.720  67.772  1.00  0.00    -0.119 N  
HETATM   13  H   UNL     1      -7.246   6.981  67.645  1.00  0.00     0.000 HD 
BRANCH  12  14
HETATM   14  C   UNL     1      -9.192   7.167  66.791  1.00  0.00    -0.158 C  
BRANCH  14  15
HETATM   15  C   UNL     1      -8.584   8.089  65.720  1.00  0.00    -0.174 C  
BRANCH  15  16
HETATM   16  C   UNL     1      -9.356   9.378  65.488  1.00  0.00    -0.315 A  
HETATM   17  C   UNL     1     -10.083   9.994  66.517  1.00  0.00    -0.296 A  
HETATM   18  C   UNL     1     -10.834  11.146  66.277  1.00  0.00    -0.266 A  
HETATM   19  C   UNL     1     -10.817  11.746  65.018  1.00  0.00    -0.295 A  
HETATM   20  C   UNL     1     -10.062  11.176  63.989  1.00  0.00    -0.392 A  
HETATM   21  C   UNL     1      -9.331  10.002  64.229  1.00  0.00    -0.345 A  
BRANCH  19  22
HETATM   22  S   UNL     1     -11.891  13.132  64.695  1.00  0.00    -0.394 S  
HETATM   23  O   UNL     1     -12.588  12.855  63.455  1.00  0.00    -0.711 OA 
HETATM   24  O   UNL     1     -12.637  13.434  65.897  1.00  0.00    -0.426 OA 
BRANCH  22  25
HETATM   25  N   UNL     1     -10.865  14.404  64.340  1.00  0.00    -0.617 N  
HETATM   26  H   UNL     1      -9.979  14.196  63.878  1.00  0.00     0.000 HD 
BRANCH  25  27
HETATM   27  C   UNL     1     -11.153  15.722  64.637  1.00  0.00    -0.361 C  
HETATM   28  O   UNL     1     -11.643  16.489  63.824  1.00  0.00    -1.109 OA 
BRANCH  27  29
HETATM   29  N   UNL     1     -10.849  16.106  65.922  1.00  0.00    -0.234 N  
HETATM   30  H   UNL     1     -11.387  15.753  66.713  1.00  0.00     0.000 HD 
BRANCH  29  31
HETATM   31  C   UNL     1      -9.736  17.030  66.127  1.00  0.00    -0.261 C  
HETATM   32  C   UNL     1     -10.190  18.475  66.365  1.00  0.00    -0.449 C  
HETATM   33  C   UNL     1     -10.548  18.807  67.813  1.00  0.00    -0.452 C  
HETATM   34  C   UNL     1      -9.504  18.324  68.826  1.00  0.00    -0.298 C  
HETATM   35  C   UNL     1      -9.238  16.829  68.623  1.00  0.00    -0.257 C  
HETATM   36  C   UNL     1      -8.211  19.147  68.767  1.00  0.00    -0.382 C  
HETATM   37  C   UNL     1      -8.774  16.508  67.204  1.00  0.00    -0.216 C  
ENDBRANCH  29  31
ENDBRANCH  27  29
ENDBRANCH  25  27
ENDBRANCH  22  25
ENDBRANCH  19  22
ENDBRANCH  15  16
ENDBRANCH  14  15
ENDBRANCH  12  14
ENDBRANCH  10  12
ENDBRANCH   7  10
ENDBRANCH   2   3
TORSDOF 11
ENDMDL
MODEL       60
REMARK 921   NORMALIZED FREE ENERGY PREDICTED BY IDOCK:   -6.09 KCAL/MOL
REMARK 922        TOTAL FREE ENERGY PREDICTED BY IDOCK:  -12.31 KCAL/MOL
REMARK 923 INTER-LIGAND FREE ENERGY PREDICTED BY IDOCK:   -9.30 KCAL/MOL
REMARK 924 INTRA-LIGAND FREE ENERGY PREDICTED BY IDOCK:   -3.01 KCAL/MOL
REMARK 927      BINDING AFFINITY PREDICTED BY RF-SCORE:    0.00 PKD
ROOT
HETATM    1  C   UNL     1     -10.665   6.840  67.080  1.00  0.00    -0.441 C  
HETATM    2  C   UNL     1      -9.670   7.978  67.254  1.00  0.00    -0.232 C  
ENDROOT
BRANCH   2   3
HETATM    3  C   UNL     1      -9.283   8.574  65.947  1.00  0.00    -0.245 C  
HETATM    4  C   UNL     1      -8.432   8.155  64.999  1.00  0.00    -0.117 C  
HETATM    5  C   UNL     1      -8.362   9.100  63.843  1.00  0.00    -0.181 C  
HETATM    6  C   UNL     1      -7.646   6.892  64.977  1.00  0.00    -0.104 C  
HETATM    7  N   UNL     1      -9.349  10.084  64.195  1.00  0.00    -0.278 N  
HETATM    8  O   UNL     1     -10.637  10.539  66.103  1.00  0.00    -0.200 OA 
HETATM    9  C   UNL     1      -9.861   9.846  65.465  1.00  0.00    -0.311 C  
BRANCH   7  10
HETATM   10  C   UNL     1      -9.825  10.972  63.248  1.00  0.00    -0.368 C  
HETATM   11  O   UNL     1      -9.083  11.557  62.461  1.00  0.00    -0.320 OA 
BRANCH  10  12
HETATM   12  N   UNL     1     -11.188  11.120  63.226  1.00  0.00    -0.769 N  
HETATM   13  H   UNL     1     -11.767  10.281  63.179  1.00  0.00     0.000 HD 
BRANCH  12  14
HETATM   14  C   UNL     1     -11.845  12.410  63.266  1.00  0.00    -0.402 C  
BRANCH  14  15
HETATM   15  C   UNL     1     -12.583  12.672  64.591  1.00  0.00    -0.517 C  
BRANCH  15  16
HETATM   16  C   UNL     1     -11.975  13.773  65.444  1.00  0.00    -0.395 A  
HETATM   17  C   UNL     1     -11.156  14.766  64.886  1.00  0.00    -0.416 A  
HETATM   18  C   UNL     1     -10.558  15.739  65.689  1.00  0.00    -0.393 A  
HETATM   19  C   UNL     1     -10.821  15.780  67.059  1.00  0.00    -0.273 A  
HETATM   20  C   UNL     1     -11.671  14.828  67.629  1.00  0.00    -0.364 A  
HETATM   21  C   UNL     1     -12.248  13.836  66.822  1.00  0.00    -0.440 A  
BRANCH  19  22
HETATM   22  S   UNL     1      -9.939  16.940  68.085  1.00  0.00    -0.300 S  
HETATM   23  O   UNL     1     -10.490  18.253  67.818  1.00  0.00    -0.387 OA 
HETATM   24  O   UNL     1      -9.898  16.429  69.438  1.00  0.00    -0.244 OA 
BRANCH  22  25
HETATM   25  N   UNL     1      -8.389  16.985  67.458  1.00  0.00    -0.187 N  
HETATM   26  H   UNL     1      -8.266  17.301  66.496  1.00  0.00     0.000 HD 
BRANCH  25  27
HETATM   27  C   UNL     1      -7.266  16.618  68.174  1.00  0.00    -0.157 C  
HETATM   28  O   UNL     1      -6.815  17.295  69.084  1.00  0.00    -0.233 OA 
BRANCH  27  29
HETATM   29  N   UNL     1      -6.695  15.429  67.786  1.00  0.00    -0.151 N  
HETATM   30  H   UNL     1      -6.119  15.376  66.946  1.00  0.00     0.000 HD 
BRANCH  29  31
HETATM   31  C   UNL     1      -6.932  14.244  68.607  1.00  0.00    -0.105 C  
HETATM   32  C   UNL     1      -8.258  13.544  68.284  1.00  0.00    -0.157 C  
HETATM   33  C   UNL     1      -8.199  12.556  67.121  1.00  0.00    -0.168 C  
HETATM   34  C   UNL     1      -7.008  11.593  67.199  1.00  0.00    -0.144 C  
HETATM   35  C   UNL     1      -5.708  12.388  67.349  1.00  0.00    -0.134 C  
HETATM   36  C   UNL     1      -7.173  10.552  68.313  1.00  0.00    -0.083 C  
HETATM   37  C   UNL     1      -5.721  13.299  68.575  1.00  0.00    -0.083 C  
ENDBRANCH  29  31
ENDBRANCH  27  29
ENDBRANCH  25  27
ENDBRANCH  22  25
ENDBRANCH  19  22
ENDBRANCH  15  16
ENDBRANCH  14  15
ENDBRANCH  12  14
ENDBRANCH  10  12
ENDBRANCH   7  10
ENDBRANCH   2   3
TORSDOF 11
ENDMDL
MODEL       61
REMARK 921   NORMALIZED FREE ENERGY PREDICTED BY IDOCK:   -6.09 KCAL/MOL
REMARK 922        TOTAL FREE ENERGY PREDICTED BY IDOCK:  -12.31 KCAL/MOL
REMARK 923 INTER-LIGAND FREE ENERGY PREDICTED BY IDOCK:  -11.05 KCAL/MOL
REMARK 924 INTRA-LIGAND FREE ENERGY PREDICTED BY IDOCK:   -1.26 KCAL/MOL
REMARK 927      BINDING AFFINITY PREDICTED BY RF-SCORE:    0.00 PKD
ROOT
HETATM    1  C   UNL     1      -7.823  18.380  68.563  1.00  0.00    -0.325 C  
HETATM    2  C   UNL     1      -8.068  16.894  68.781  1.00  0.00    -0.251 C  
ENDROOT
BRANCH   2   3
HETATM    3  C   UNL     1      -9.242  16.411  68.006  1.00  0.00    -0.204 C  
HETATM    4  C   UNL     1     -10.470  16.040  68.396  1.00  0.00    -0.263 C  
HETATM    5  C   UNL     1     -11.326  15.616  67.247  1.00  0.00    -0.122 C  
HETATM    6  C   UNL     1     -11.031  16.062  69.774  1.00  0.00    -0.334 C  
HETATM    7  N   UNL     1     -10.470  15.871  66.121  1.00  0.00    -0.315 N  
HETATM    8  O   UNL     1      -8.218  16.471  65.845  1.00  0.00    -0.345 OA 
HETATM    9  C   UNL     1      -9.206  16.271  66.535  1.00  0.00    -0.269 C  
BRANCH   7  10
HETATM   10  C   UNL     1     -10.988  15.909  64.838  1.00  0.00    -0.411 C  
HETATM   11  O   UNL     1     -11.315  16.959  64.291  1.00  0.00    -1.202 OA 
BRANCH  10  12
HETATM   12  N   UNL     1     -11.069  14.692  64.211  1.00  0.00    -0.605 N  
HETATM   13  H   UNL     1     -10.226  14.310  63.780  1.00  0.00     0.000 HD 
BRANCH  12  14
HETATM   14  C   UNL     1     -12.295  13.923  64.130  1.00  0.00    -0.335 C  
BRANCH  14  15
HETATM   15  C   UNL     1     -12.051  12.417  63.936  1.00  0.00    -0.587 C  
BRANCH  15  16
HETATM   16  C   UNL     1     -11.388  11.728  65.117  1.00  0.00    -0.281 A  
HETATM   17  C   UNL     1     -10.394  10.755  64.936  1.00  0.00    -0.369 A  
HETATM   18  C   UNL     1      -9.833  10.089  66.028  1.00  0.00    -0.321 A  
HETATM   19  C   UNL     1     -10.205  10.432  67.328  1.00  0.00    -0.211 A  
HETATM   20  C   UNL     1     -11.159  11.432  67.534  1.00  0.00    -0.339 A  
HETATM   21  C   UNL     1     -11.740  12.079  66.432  1.00  0.00    -0.326 A  
BRANCH  19  22
HETATM   22  S   UNL     1      -9.582   9.475  68.697  1.00  0.00    -0.149 S  
HETATM   23  O   UNL     1     -10.217   8.175  68.635  1.00  0.00    -0.199 OA 
HETATM   24  O   UNL     1      -8.139   9.580  68.721  1.00  0.00    -0.093 OA 
BRANCH  22  25
HETATM   25  N   UNL     1     -10.218  10.203  70.062  1.00  0.00    -0.359 N  
HETATM   26  H   UNL     1      -9.904  11.145  70.298  1.00  0.00     0.000 HD 
BRANCH  25  27
HETATM   27  C   UNL     1     -11.145   9.597  70.887  1.00  0.00    -0.352 C  
HETATM   28  O   UNL     1     -12.329   9.516  70.600  1.00  0.00    -0.210 OA 
BRANCH  27  29
HETATM   29  N   UNL     1     -10.634   9.088  72.057  1.00  0.00    -0.325 N  
HETATM   30  H   UNL     1     -10.808   9.552  72.948  1.00  0.00     0.000 HD 
BRANCH  29  31
HETATM   31  C   UNL     1      -9.836   7.866  71.994  1.00  0.00    -0.192 C  
HETATM   32  C   UNL     1      -9.181   7.505  73.333  1.00  0.00    -0.280 C  
HETATM   33  C   UNL     1     -10.067   6.709  74.289  1.00  0.00    -0.378 C  
HETATM   34  C   UNL     1     -10.776   5.525  73.622  1.00  0.00    -0.321 C  
HETATM   35  C   UNL     1     -11.545   6.010  72.388  1.00  0.00    -0.349 C  
HETATM   36  C   UNL     1      -9.810   4.384  73.280  1.00  0.00    -0.167 C  
HETATM   37  C   UNL     1     -10.640   6.711  71.378  1.00  0.00    -0.255 C  
ENDBRANCH  29  31
ENDBRANCH  27  29
ENDBRANCH  25  27
ENDBRANCH  22  25
ENDBRANCH  19  22
ENDBRANCH  15  16
ENDBRANCH  14  15
ENDBRANCH  12  14
ENDBRANCH  10  12
ENDBRANCH   7  10
ENDBRANCH   2   3
TORSDOF 11
ENDMDL
MODEL       62
REMARK 921   NORMALIZED FREE ENERGY PREDICTED BY IDOCK:   -6.07 KCAL/MOL
REMARK 922        TOTAL FREE ENERGY PREDICTED BY IDOCK:  -12.29 KCAL/MOL
REMARK 923 INTER-LIGAND FREE ENERGY PREDICTED BY IDOCK:  -10.38 KCAL/MOL
REMARK 924 INTRA-LIGAND FREE ENERGY PREDICTED BY IDOCK:   -1.91 KCAL/MOL
REMARK 927      BINDING AFFINITY PREDICTED BY RF-SCORE:    0.00 PKD
ROOT
HETATM    1  C   UNL     1     -12.508  15.733  74.035  1.00  0.00    -0.775 C  
HETATM    2  C   UNL     1     -13.298  15.824  72.739  1.00  0.00    -0.636 C  
ENDROOT
BRANCH   2   3
HETATM    3  C   UNL     1     -12.874  14.786  71.762  1.00  0.00    -0.396 C  
HETATM    4  C   UNL     1     -12.040  14.843  70.713  1.00  0.00    -0.377 C  
HETATM    5  C   UNL     1     -11.924  13.530  70.008  1.00  0.00    -0.340 C  
HETATM    6  C   UNL     1     -11.237  16.008  70.254  1.00  0.00    -0.397 C  
HETATM    7  N   UNL     1     -12.729  12.671  70.833  1.00  0.00    -0.246 N  
HETATM    8  O   UNL     1     -14.190  12.993  72.642  1.00  0.00    -0.609 OA 
HETATM    9  C   UNL     1     -13.365  13.394  71.836  1.00  0.00    -0.451 C  
BRANCH   7  10
HETATM   10  C   UNL     1     -12.641  11.296  70.713  1.00  0.00    -0.332 C  
HETATM   11  O   UNL     1     -12.333  10.746  69.657  1.00  0.00    -0.316 OA 
BRANCH  10  12
HETATM   12  N   UNL     1     -12.883  10.597  71.868  1.00  0.00    -0.432 N  
HETATM   13  H   UNL     1     -12.916  11.111  72.749  1.00  0.00     0.000 HD 
BRANCH  12  14
HETATM   14  C   UNL     1     -13.092   9.164  71.896  1.00  0.00    -0.411 C  
BRANCH  14  15
HETATM   15  C   UNL     1     -11.933   8.396  72.555  1.00  0.00    -0.418 C  
BRANCH  15  16
HETATM   16  C   UNL     1     -11.112   7.550  71.597  1.00  0.00    -0.270 A  
HETATM   17  C   UNL     1      -9.756   7.817  71.358  1.00  0.00    -0.194 A  
HETATM   18  C   UNL     1      -9.027   7.067  70.433  1.00  0.00    -0.155 A  
HETATM   19  C   UNL     1      -9.623   5.990  69.776  1.00  0.00    -0.150 A  
HETATM   20  C   UNL     1     -10.960   5.677  70.032  1.00  0.00    -0.311 A  
HETATM   21  C   UNL     1     -11.696   6.450  70.943  1.00  0.00    -0.366 A  
BRANCH  19  22
HETATM   22  S   UNL     1      -8.719   5.137  68.498  1.00  0.00    -0.097 S  
HETATM   23  O   UNL     1      -7.341   5.044  68.936  1.00  0.00    -0.057 OA 
HETATM   24  O   UNL     1      -9.447   3.943  68.130  1.00  0.00    -0.166 OA 
BRANCH  22  25
HETATM   25  N   UNL     1      -8.691   6.196  67.203  1.00  0.00    -0.107 N  
HETATM   26  H   UNL     1      -7.787   6.438  66.797  1.00  0.00     0.000 HD 
BRANCH  25  27
HETATM   27  C   UNL     1      -9.826   6.759  66.655  1.00  0.00    -0.152 C  
HETATM   28  O   UNL     1     -10.939   6.281  66.809  1.00  0.00    -0.347 OA 
BRANCH  27  29
HETATM   29  N   UNL     1      -9.610   7.902  65.922  1.00  0.00    -0.425 N  
HETATM   30  H   UNL     1      -9.002   7.890  65.104  1.00  0.00     0.000 HD 
BRANCH  29  31
HETATM   31  C   UNL     1     -10.273   9.134  66.344  1.00  0.00    -0.230 C  
HETATM   32  C   UNL     1      -9.865   9.584  67.752  1.00  0.00    -0.196 C  
HETATM   33  C   UNL     1      -8.586  10.416  67.817  1.00  0.00    -0.122 C  
HETATM   34  C   UNL     1      -8.538  11.545  66.782  1.00  0.00    -0.170 C  
HETATM   35  C   UNL     1      -8.788  10.975  65.382  1.00  0.00    -0.157 C  
HETATM   36  C   UNL     1      -9.510  12.684  67.116  1.00  0.00    -0.214 C  
HETATM   37  C   UNL     1     -10.120  10.235  65.284  1.00  0.00    -0.359 C  
ENDBRANCH  29  31
ENDBRANCH  27  29
ENDBRANCH  25  27
ENDBRANCH  22  25
ENDBRANCH  19  22
ENDBRANCH  15  16
ENDBRANCH  14  15
ENDBRANCH  12  14
ENDBRANCH  10  12
ENDBRANCH   7  10
ENDBRANCH   2   3
TORSDOF 11
ENDMDL
MODEL       63
REMARK 921   NORMALIZED FREE ENERGY PREDICTED BY IDOCK:   -6.07 KCAL/MOL
REMARK 922        TOTAL FREE ENERGY PREDICTED BY IDOCK:  -12.28 KCAL/MOL
REMARK 923 INTER-LIGAND FREE ENERGY PREDICTED BY IDOCK:   -9.72 KCAL/MOL
REMARK 924 INTRA-LIGAND FREE ENERGY PREDICTED BY IDOCK:   -2.56 KCAL/MOL
REMARK 927      BINDING AFFINITY PREDICTED BY RF-SCORE:    0.00 PKD
ROOT
HETATM    1  C   UNL     1      -9.947   9.652  65.797  1.00  0.00    -0.342 C  
HETATM    2  C   UNL     1      -9.788  10.863  64.890  1.00  0.00    -0.339 C  
ENDROOT
BRANCH   2   3
HETATM    3  C   UNL     1     -10.551  12.034  65.398  1.00  0.00    -0.319 C  
HETATM    4  C   UNL     1     -11.711  12.578  65.000  1.00  0.00    -0.407 C  
HETATM    5  C   UNL     1     -12.089  13.769  65.820  1.00  0.00    -0.429 C  
HETATM    6  C   UNL     1     -12.615  12.097  63.921  1.00  0.00    -0.545 C  
HETATM    7  N   UNL     1     -11.046  13.802  66.808  1.00  0.00    -0.304 N  
HETATM    8  O   UNL     1      -9.020  12.660  67.127  1.00  0.00    -0.191 OA 
HETATM    9  C   UNL     1     -10.080  12.838  66.546  1.00  0.00    -0.258 C  
BRANCH   7  10
HETATM   10  C   UNL     1     -11.185  14.566  67.952  1.00  0.00    -0.295 C  
HETATM   11  O   UNL     1     -11.519  15.749  67.917  1.00  0.00    -0.316 OA 
BRANCH  10  12
HETATM   12  N   UNL     1     -10.963  13.895  69.127  1.00  0.00    -0.315 N  
HETATM   13  H   UNL     1     -10.040  13.960  69.557  1.00  0.00     0.000 HD 
BRANCH  12  14
HETATM   14  C   UNL     1     -11.977  13.097  69.786  1.00  0.00    -0.314 C  
BRANCH  14  15
HETATM   15  C   UNL     1     -12.074  11.665  69.231  1.00  0.00    -0.323 C  
BRANCH  15  16
HETATM   16  C   UNL     1     -11.318  10.624  70.038  1.00  0.00    -0.400 A  
HETATM   17  C   UNL     1     -11.936   9.903  71.071  1.00  0.00    -0.456 A  
HETATM   18  C   UNL     1     -11.214   8.990  71.842  1.00  0.00    -0.438 A  
HETATM   19  C   UNL     1      -9.875   8.728  71.553  1.00  0.00    -0.301 A  
HETATM   20  C   UNL     1      -9.250   9.401  70.498  1.00  0.00    -0.314 A  
HETATM   21  C   UNL     1      -9.973  10.338  69.743  1.00  0.00    -0.222 A  
BRANCH  19  22
HETATM   22  S   UNL     1      -8.937   7.667  72.635  1.00  0.00    -0.171 S  
HETATM   23  O   UNL     1      -7.537   7.991  72.445  1.00  0.00    -0.096 OA 
HETATM   24  O   UNL     1      -9.522   7.716  73.957  1.00  0.00    -0.249 OA 
BRANCH  22  25
HETATM   25  N   UNL     1      -9.115   6.130  72.001  1.00  0.00    -0.143 N  
HETATM   26  H   UNL     1      -8.274   5.584  71.813  1.00  0.00     0.000 HD 
BRANCH  25  27
HETATM   27  C   UNL     1     -10.341   5.560  71.718  1.00  0.00    -0.216 C  
HETATM   28  O   UNL     1     -11.102   5.168  72.589  1.00  0.00    -0.247 OA 
BRANCH  27  29
HETATM   29  N   UNL     1     -10.643   5.469  70.380  1.00  0.00    -0.287 N  
HETATM   30  H   UNL     1     -11.579   5.207  70.073  1.00  0.00     0.000 HD 
BRANCH  29  31
HETATM   31  C   UNL     1      -9.591   5.758  69.408  1.00  0.00    -0.140 C  
HETATM   32  C   UNL     1      -8.977   4.495  68.793  1.00  0.00    -0.149 C  
HETATM   33  C   UNL     1      -9.735   3.930  67.593  1.00  0.00    -0.156 C  
HETATM   34  C   UNL     1     -10.110   4.991  66.553  1.00  0.00    -0.278 C  
HETATM   35  C   UNL     1     -10.870   6.136  67.231  1.00  0.00    -0.438 C  
HETATM   36  C   UNL     1      -8.891   5.499  65.773  1.00  0.00    -0.154 C  
HETATM   37  C   UNL     1     -10.069   6.776  68.362  1.00  0.00    -0.168 C  
ENDBRANCH  29  31
ENDBRANCH  27  29
ENDBRANCH  25  27
ENDBRANCH  22  25
ENDBRANCH  19  22
ENDBRANCH  15  16
ENDBRANCH  14  15
ENDBRANCH  12  14
ENDBRANCH  10  12
ENDBRANCH   7  10
ENDBRANCH   2   3
TORSDOF 11
ENDMDL
MODEL       64
REMARK 921   NORMALIZED FREE ENERGY PREDICTED BY IDOCK:   -6.06 KCAL/MOL
REMARK 922        TOTAL FREE ENERGY PREDICTED BY IDOCK:  -12.26 KCAL/MOL
REMARK 923 INTER-LIGAND FREE ENERGY PREDICTED BY IDOCK:  -10.40 KCAL/MOL
REMARK 924 INTRA-LIGAND FREE ENERGY PREDICTED BY IDOCK:   -1.86 KCAL/MOL
REMARK 927      BINDING AFFINITY PREDICTED BY RF-SCORE:    0.00 PKD
ROOT
HETATM    1  C   UNL     1     -11.638  15.774  71.408  1.00  0.00    -0.511 C  
HETATM    2  C   UNL     1     -12.481  15.426  70.191  1.00  0.00    -0.370 C  
ENDROOT
BRANCH   2   3
HETATM    3  C   UNL     1     -11.637  15.020  69.035  1.00  0.00    -0.342 C  
HETATM    4  C   UNL     1     -11.202  13.816  68.635  1.00  0.00    -0.308 C  
HETATM    5  C   UNL     1     -10.363  13.899  67.401  1.00  0.00    -0.252 C  
HETATM    6  C   UNL     1     -11.505  12.493  69.244  1.00  0.00    -0.353 C  
HETATM    7  N   UNL     1     -10.436  15.297  67.077  1.00  0.00    -0.285 N  
HETATM    8  O   UNL     1     -11.275  17.211  68.146  1.00  0.00    -0.236 OA 
HETATM    9  C   UNL     1     -11.119  16.003  68.060  1.00  0.00    -0.334 C  
BRANCH   7  10
HETATM   10  C   UNL     1     -10.052  15.750  65.828  1.00  0.00    -0.371 C  
HETATM   11  O   UNL     1      -9.351  16.749  65.676  1.00  0.00    -0.511 OA 
BRANCH  10  12
HETATM   12  N   UNL     1     -10.477  14.979  64.777  1.00  0.00    -0.532 N  
HETATM   13  H   UNL     1      -9.777  14.594  64.142  1.00  0.00     0.000 HD 
BRANCH  12  14
HETATM   14  C   UNL     1     -11.874  14.686  64.524  1.00  0.00    -0.431 C  
BRANCH  14  15
HETATM   15  C   UNL     1     -12.088  13.346  63.799  1.00  0.00    -0.516 C  
BRANCH  15  16
HETATM   16  C   UNL     1     -11.107  12.254  64.191  1.00  0.00    -0.423 A  
HETATM   17  C   UNL     1     -10.074  11.852  63.331  1.00  0.00    -0.464 A  
HETATM   18  C   UNL     1      -9.214  10.809  63.679  1.00  0.00    -0.268 A  
HETATM   19  C   UNL     1      -9.326  10.191  64.924  1.00  0.00    -0.254 A  
HETATM   20  C   UNL     1     -10.318  10.606  65.816  1.00  0.00    -0.287 A  
HETATM   21  C   UNL     1     -11.198  11.637  65.451  1.00  0.00    -0.262 A  
BRANCH  19  22
HETATM   22  S   UNL     1      -8.312   8.771  65.291  1.00  0.00    -0.168 S  
HETATM   23  O   UNL     1      -7.780   8.288  64.032  1.00  0.00    -0.124 OA 
HETATM   24  O   UNL     1      -7.417   9.105  66.378  1.00  0.00    -0.091 OA 
BRANCH  22  25
HETATM   25  N   UNL     1      -9.383   7.588  65.791  1.00  0.00    -0.396 N  
HETATM   26  H   UNL     1     -10.291   7.531  65.329  1.00  0.00     0.000 HD 
BRANCH  25  27
HETATM   27  C   UNL     1      -9.103   6.683  66.796  1.00  0.00    -0.142 C  
HETATM   28  O   UNL     1      -8.913   5.496  66.580  1.00  0.00    -0.115 OA 
BRANCH  27  29
HETATM   29  N   UNL     1      -9.053   7.219  68.061  1.00  0.00    -0.134 N  
HETATM   30  H   UNL     1      -8.202   7.160  68.619  1.00  0.00     0.000 HD 
BRANCH  29  31
HETATM   31  C   UNL     1     -10.247   7.877  68.586  1.00  0.00    -0.205 C  
HETATM   32  C   UNL     1     -11.113   6.951  69.449  1.00  0.00    -0.249 C  
HETATM   33  C   UNL     1     -10.692   6.857  70.914  1.00  0.00    -0.258 C  
HETATM   34  C   UNL     1     -10.429   8.220  71.563  1.00  0.00    -0.289 C  
HETATM   35  C   UNL     1      -9.421   9.009  70.721  1.00  0.00    -0.308 C  
HETATM   36  C   UNL     1     -11.721   9.013  71.797  1.00  0.00    -0.440 C  
HETATM   37  C   UNL     1      -9.890   9.200  69.280  1.00  0.00    -0.175 C  
ENDBRANCH  29  31
ENDBRANCH  27  29
ENDBRANCH  25  27
ENDBRANCH  22  25
ENDBRANCH  19  22
ENDBRANCH  15  16
ENDBRANCH  14  15
ENDBRANCH  12  14
ENDBRANCH  10  12
ENDBRANCH   7  10
ENDBRANCH   2   3
TORSDOF 11
ENDMDL
MODEL       65
REMARK 921   NORMALIZED FREE ENERGY PREDICTED BY IDOCK:   -6.06 KCAL/MOL
REMARK 922        TOTAL FREE ENERGY PREDICTED BY IDOCK:  -12.26 KCAL/MOL
REMARK 923 INTER-LIGAND FREE ENERGY PREDICTED BY IDOCK:  -10.35 KCAL/MOL
REMARK 924 INTRA-LIGAND FREE ENERGY PREDICTED BY IDOCK:   -1.91 KCAL/MOL
REMARK 927      BINDING AFFINITY PREDICTED BY RF-SCORE:    0.00 PKD
ROOT
HETATM    1  C   UNL     1     -12.495  11.959  63.564  1.00  0.00    -0.609 C  
HETATM    2  C   UNL     1     -11.511  12.486  64.599  1.00  0.00    -0.377 C  
ENDROOT
BRANCH   2   3
HETATM    3  C   UNL     1     -10.864  11.381  65.356  1.00  0.00    -0.292 C  
HETATM    4  C   UNL     1     -10.017  10.417  64.968  1.00  0.00    -0.399 C  
HETATM    5  C   UNL     1      -9.632   9.513  66.094  1.00  0.00    -0.239 C  
HETATM    6  C   UNL     1      -9.428  10.216  63.616  1.00  0.00    -0.320 C  
HETATM    7  N   UNL     1     -10.294  10.125  67.214  1.00  0.00    -0.222 N  
HETATM    8  O   UNL     1     -11.856  11.856  67.480  1.00  0.00    -0.552 OA 
HETATM    9  C   UNL     1     -11.090  11.188  66.804  1.00  0.00    -0.214 C  
BRANCH   7  10
HETATM   10  C   UNL     1      -9.947   9.783  68.508  1.00  0.00    -0.160 C  
HETATM   11  O   UNL     1     -10.402   8.790  69.071  1.00  0.00    -0.207 OA 
BRANCH  10  12
HETATM   12  N   UNL     1      -9.027  10.611  69.099  1.00  0.00    -0.288 N  
HETATM   13  H   UNL     1      -9.347  11.254  69.824  1.00  0.00     0.000 HD 
BRANCH  12  14
HETATM   14  C   UNL     1      -7.622  10.616  68.743  1.00  0.00    -0.109 C  
BRANCH  14  15
HETATM   15  C   UNL     1      -6.895  11.903  69.169  1.00  0.00    -0.099 C  
BRANCH  15  16
HETATM   16  C   UNL     1      -7.513  13.183  68.631  1.00  0.00    -0.092 A  
HETATM   17  C   UNL     1      -7.513  14.370  69.378  1.00  0.00    -0.022 A  
HETATM   18  C   UNL     1      -8.134  15.523  68.896  1.00  0.00    -0.194 A  
HETATM   19  C   UNL     1      -8.709  15.534  67.625  1.00  0.00    -0.175 A  
HETATM   20  C   UNL     1      -8.680  14.376  66.843  1.00  0.00    -0.218 A  
HETATM   21  C   UNL     1      -8.078  13.211  67.343  1.00  0.00    -0.181 A  
BRANCH  19  22
HETATM   22  S   UNL     1      -9.617  16.970  67.087  1.00  0.00    -0.261 S  
HETATM   23  O   UNL     1      -8.892  18.135  67.554  1.00  0.00    -0.253 OA 
HETATM   24  O   UNL     1      -9.931  16.824  65.683  1.00  0.00    -0.538 OA 
BRANCH  22  25
HETATM   25  N   UNL     1     -11.030  16.952  67.982  1.00  0.00    -0.329 N  
HETATM   26  H   UNL     1     -11.308  17.808  68.462  1.00  0.00     0.000 HD 
BRANCH  25  27
HETATM   27  C   UNL     1     -11.840  15.841  68.104  1.00  0.00    -0.044 C  
HETATM   28  O   UNL     1     -11.863  14.947  67.273  1.00  0.00    -0.345 OA 
BRANCH  27  29
HETATM   29  N   UNL     1     -12.620  15.814  69.237  1.00  0.00    -0.434 N  
HETATM   30  H   UNL     1     -13.492  16.339  69.282  1.00  0.00     0.000 HD 
BRANCH  29  31
HETATM   31  C   UNL     1     -12.168  15.014  70.373  1.00  0.00    -0.341 C  
HETATM   32  C   UNL     1     -11.181  15.761  71.279  1.00  0.00    -0.376 C  
HETATM   33  C   UNL     1     -11.826  16.649  72.340  1.00  0.00    -0.249 C  
HETATM   34  C   UNL     1     -12.954  15.956  73.113  1.00  0.00    -0.653 C  
HETATM   35  C   UNL     1     -13.983  15.388  72.130  1.00  0.00    -0.649 C  
HETATM   36  C   UNL     1     -12.428  14.881  74.073  1.00  0.00    -0.516 C  
HETATM   37  C   UNL     1     -13.359  14.413  71.134  1.00  0.00    -0.392 C  
ENDBRANCH  29  31
ENDBRANCH  27  29
ENDBRANCH  25  27
ENDBRANCH  22  25
ENDBRANCH  19  22
ENDBRANCH  15  16
ENDBRANCH  14  15
ENDBRANCH  12  14
ENDBRANCH  10  12
ENDBRANCH   7  10
ENDBRANCH   2   3
TORSDOF 11
ENDMDL
MODEL       66
REMARK 921   NORMALIZED FREE ENERGY PREDICTED BY IDOCK:   -6.05 KCAL/MOL
REMARK 922        TOTAL FREE ENERGY PREDICTED BY IDOCK:  -12.25 KCAL/MOL
REMARK 923 INTER-LIGAND FREE ENERGY PREDICTED BY IDOCK:  -10.67 KCAL/MOL
REMARK 924 INTRA-LIGAND FREE ENERGY PREDICTED BY IDOCK:   -1.59 KCAL/MOL
REMARK 927      BINDING AFFINITY PREDICTED BY RF-SCORE:    0.00 PKD
ROOT
HETATM    1  C   UNL     1      -8.594  19.910  66.153  1.00  0.00    -0.348 C  
HETATM    2  C   UNL     1     -10.066  19.546  66.021  1.00  0.00    -0.521 C  
ENDROOT
BRANCH   2   3
HETATM    3  C   UNL     1     -10.393  18.301  66.766  1.00  0.00    -0.403 C  
HETATM    4  C   UNL     1     -10.709  17.069  66.340  1.00  0.00    -0.075 C  
HETATM    5  C   UNL     1     -10.967  16.127  67.471  1.00  0.00    -0.238 C  
HETATM    6  C   UNL     1     -10.769  16.583  64.935  1.00  0.00    -0.168 C  
HETATM    7  N   UNL     1     -10.674  16.942  68.618  1.00  0.00    -0.348 N  
HETATM    8  O   UNL     1     -10.214  19.217  68.969  1.00  0.00    -0.358 OA 
HETATM    9  C   UNL     1     -10.404  18.253  68.244  1.00  0.00    -0.357 C  
BRANCH   7  10
HETATM   10  C   UNL     1     -10.486  16.365  69.861  1.00  0.00    -0.201 C  
HETATM   11  O   UNL     1      -9.612  15.528  70.073  1.00  0.00    -0.228 OA 
BRANCH  10  12
HETATM   12  N   UNL     1     -11.321  16.828  70.846  1.00  0.00    -0.375 N  
HETATM   13  H   UNL     1     -11.454  17.835  70.936  1.00  0.00     0.000 HD 
BRANCH  12  14
HETATM   14  C   UNL     1     -12.021  15.954  71.765  1.00  0.00    -0.494 C  
BRANCH  14  15
HETATM   15  C   UNL     1     -13.132  15.132  71.090  1.00  0.00    -0.515 C  
BRANCH  15  16
HETATM   16  C   UNL     1     -12.908  13.629  71.115  1.00  0.00    -0.399 A  
HETATM   17  C   UNL     1     -13.547  12.807  72.056  1.00  0.00    -0.460 A  
HETATM   18  C   UNL     1     -13.289  11.436  72.105  1.00  0.00    -0.271 A  
HETATM   19  C   UNL     1     -12.438  10.846  71.170  1.00  0.00    -0.405 A  
HETATM   20  C   UNL     1     -11.826  11.638  70.195  1.00  0.00    -0.428 A  
HETATM   21  C   UNL     1     -12.068  13.021  70.166  1.00  0.00    -0.377 A  
BRANCH  19  22
HETATM   22  S   UNL     1     -12.014   9.123  71.338  1.00  0.00    -0.362 S  
HETATM   23  O   UNL     1     -10.764   9.059  72.068  1.00  0.00    -0.349 OA 
HETATM   24  O   UNL     1     -13.173   8.402  71.816  1.00  0.00    -0.335 OA 
BRANCH  22  25
HETATM   25  N   UNL     1     -11.637   8.614  69.790  1.00  0.00    -0.350 N  
HETATM   26  H   UNL     1     -12.351   8.699  69.066  1.00  0.00     0.000 HD 
BRANCH  25  27
HETATM   27  C   UNL     1     -10.411   8.086  69.439  1.00  0.00    -0.217 C  
HETATM   28  O   UNL     1      -9.956   7.076  69.953  1.00  0.00    -0.175 OA 
BRANCH  27  29
HETATM   29  N   UNL     1      -9.738   8.782  68.462  1.00  0.00    -0.159 N  
HETATM   30  H   UNL     1      -8.793   9.128  68.625  1.00  0.00     0.000 HD 
BRANCH  29  31
HETATM   31  C   UNL     1     -10.409   9.012  67.184  1.00  0.00    -0.272 C  
HETATM   32  C   UNL     1     -10.801  10.478  66.967  1.00  0.00    -0.288 C  
HETATM   33  C   UNL     1      -9.698  11.360  66.386  1.00  0.00    -0.231 C  
HETATM   34  C   UNL     1      -8.989  10.736  65.178  1.00  0.00    -0.215 C  
HETATM   35  C   UNL     1      -8.481   9.337  65.542  1.00  0.00    -0.151 C  
HETATM   36  C   UNL     1      -9.878  10.713  63.929  1.00  0.00    -0.398 C  
HETATM   37  C   UNL     1      -9.602   8.417  66.021  1.00  0.00    -0.196 C  
ENDBRANCH  29  31
ENDBRANCH  27  29
ENDBRANCH  25  27
ENDBRANCH  22  25
ENDBRANCH  19  22
ENDBRANCH  15  16
ENDBRANCH  14  15
ENDBRANCH  12  14
ENDBRANCH  10  12
ENDBRANCH   7  10
ENDBRANCH   2   3
TORSDOF 11
ENDMDL
MODEL       67
REMARK 921   NORMALIZED FREE ENERGY PREDICTED BY IDOCK:   -6.04 KCAL/MOL
REMARK 922        TOTAL FREE ENERGY PREDICTED BY IDOCK:  -12.23 KCAL/MOL
REMARK 923 INTER-LIGAND FREE ENERGY PREDICTED BY IDOCK:   -9.80 KCAL/MOL
REMARK 924 INTRA-LIGAND FREE ENERGY PREDICTED BY IDOCK:   -2.43 KCAL/MOL
REMARK 927      BINDING AFFINITY PREDICTED BY RF-SCORE:    0.00 PKD
ROOT
HETATM    1  C   UNL     1     -11.052  15.624  64.715  1.00  0.00    -0.426 C  
HETATM    2  C   UNL     1     -12.135  14.566  64.563  1.00  0.00    -0.501 C  
ENDROOT
BRANCH   2   3
HETATM    3  C   UNL     1     -11.756  13.292  65.230  1.00  0.00    -0.357 C  
HETATM    4  C   UNL     1     -11.248  12.151  64.741  1.00  0.00    -0.373 C  
HETATM    5  C   UNL     1     -11.031  11.125  65.805  1.00  0.00    -0.091 C  
HETATM    6  C   UNL     1     -10.861  11.860  63.334  1.00  0.00    -0.469 C  
HETATM    7  N   UNL     1     -11.394  11.841  66.997  1.00  0.00    -0.323 N  
HETATM    8  O   UNL     1     -12.384  13.920  67.451  1.00  0.00    -0.316 OA 
HETATM    9  C   UNL     1     -11.897  13.100  66.689  1.00  0.00    -0.391 C  
BRANCH   7  10
HETATM   10  C   UNL     1     -11.042  11.357  68.243  1.00  0.00    -0.244 C  
HETATM   11  O   UNL     1      -9.915  11.499  68.711  1.00  0.00    -0.205 OA 
BRANCH  10  12
HETATM   12  N   UNL     1     -12.056  10.742  68.933  1.00  0.00    -0.492 N  
HETATM   13  H   UNL     1     -12.643  10.070  68.438  1.00  0.00     0.000 HD 
BRANCH  12  14
HETATM   14  C   UNL     1     -12.334  11.004  70.331  1.00  0.00    -0.356 C  
BRANCH  14  15
HETATM   15  C   UNL     1     -13.194   9.911  70.990  1.00  0.00    -0.375 C  
BRANCH  15  16
HETATM   16  C   UNL     1     -12.402   8.756  71.578  1.00  0.00    -0.380 A  
HETATM   17  C   UNL     1     -11.185   8.963  72.244  1.00  0.00    -0.269 A  
HETATM   18  C   UNL     1     -10.439   7.888  72.730  1.00  0.00    -0.412 A  
HETATM   19  C   UNL     1     -10.928   6.586  72.620  1.00  0.00    -0.255 A  
HETATM   20  C   UNL     1     -12.161   6.359  72.001  1.00  0.00    -0.353 A  
HETATM   21  C   UNL     1     -12.894   7.441  71.490  1.00  0.00    -0.416 A  
BRANCH  19  22
HETATM   22  S   UNL     1      -9.898   5.219  73.119  1.00  0.00    -0.157 S  
HETATM   23  O   UNL     1      -8.523   5.607  72.873  1.00  0.00    -0.122 OA 
HETATM   24  O   UNL     1     -10.306   4.784  74.437  1.00  0.00    -0.236 OA 
BRANCH  22  25
HETATM   25  N   UNL     1     -10.211   4.009  72.008  1.00  0.00    -0.155 N  
HETATM   26  H   UNL     1     -10.914   3.307  72.243  1.00  0.00     0.000 HD 
BRANCH  25  27
HETATM   27  C   UNL     1      -9.570   3.908  70.789  1.00  0.00    -0.188 C  
HETATM   28  O   UNL     1      -8.541   3.269  70.636  1.00  0.00    -0.066 OA 
BRANCH  27  29
HETATM   29  N   UNL     1     -10.180   4.582  69.756  1.00  0.00    -0.111 N  
HETATM   30  H   UNL     1     -11.194   4.578  69.658  1.00  0.00     0.000 HD 
BRANCH  29  31
HETATM   31  C   UNL     1      -9.338   5.302  68.804  1.00  0.00    -0.121 C  
HETATM   32  C   UNL     1      -9.806   5.148  67.351  1.00  0.00    -0.193 C  
HETATM   33  C   UNL     1     -10.894   6.128  66.918  1.00  0.00    -0.411 C  
HETATM   34  C   UNL     1     -10.598   7.581  67.309  1.00  0.00    -0.394 C  
HETATM   35  C   UNL     1     -10.310   7.664  68.811  1.00  0.00    -0.218 C  
HETATM   36  C   UNL     1      -9.464   8.189  66.475  1.00  0.00    -0.286 C  
HETATM   37  C   UNL     1      -9.148   6.766  69.231  1.00  0.00    -0.139 C  
ENDBRANCH  29  31
ENDBRANCH  27  29
ENDBRANCH  25  27
ENDBRANCH  22  25
ENDBRANCH  19  22
ENDBRANCH  15  16
ENDBRANCH  14  15
ENDBRANCH  12  14
ENDBRANCH  10  12
ENDBRANCH   7  10
ENDBRANCH   2   3
TORSDOF 11
ENDMDL
MODEL       68
REMARK 921   NORMALIZED FREE ENERGY PREDICTED BY IDOCK:   -6.03 KCAL/MOL
REMARK 922        TOTAL FREE ENERGY PREDICTED BY IDOCK:  -12.22 KCAL/MOL
REMARK 923 INTER-LIGAND FREE ENERGY PREDICTED BY IDOCK:  -10.28 KCAL/MOL
REMARK 924 INTRA-LIGAND FREE ENERGY PREDICTED BY IDOCK:   -1.94 KCAL/MOL
REMARK 927      BINDING AFFINITY PREDICTED BY RF-SCORE:    0.00 PKD
ROOT
HETATM    1  C   UNL     1      -7.486  20.158  65.657  1.00  0.00    -0.240 C  
HETATM    2  C   UNL     1      -8.598  20.000  66.683  1.00  0.00    -0.382 C  
ENDROOT
BRANCH   2   3
HETATM    3  C   UNL     1      -8.538  18.679  67.361  1.00  0.00    -0.281 C  
HETATM    4  C   UNL     1      -7.785  18.238  68.381  1.00  0.00    -0.312 C  
HETATM    5  C   UNL     1      -8.072  16.812  68.722  1.00  0.00    -0.252 C  
HETATM    6  C   UNL     1      -6.794  19.011  69.178  1.00  0.00    -0.342 C  
HETATM    7  N   UNL     1      -9.154  16.498  67.830  1.00  0.00    -0.204 N  
HETATM    8  O   UNL     1     -10.187  17.580  66.022  1.00  0.00    -0.440 OA 
HETATM    9  C   UNL     1      -9.407  17.552  66.961  1.00  0.00    -0.259 C  
BRANCH   7  10
HETATM   10  C   UNL     1      -9.928  15.369  68.033  1.00  0.00    -0.221 C  
HETATM   11  O   UNL     1      -9.526  14.402  68.676  1.00  0.00    -0.203 OA 
BRANCH  10  12
HETATM   12  N   UNL     1     -11.190  15.429  67.500  1.00  0.00    -0.324 N  
HETATM   13  H   UNL     1     -11.554  16.339  67.215  1.00  0.00     0.000 HD 
BRANCH  12  14
HETATM   14  C   UNL     1     -12.031  14.262  67.323  1.00  0.00    -0.405 C  
BRANCH  14  15
HETATM   15  C   UNL     1     -11.879  13.614  65.936  1.00  0.00    -0.406 C  
BRANCH  15  16
HETATM   16  C   UNL     1     -11.248  12.231  65.953  1.00  0.00    -0.381 A  
HETATM   17  C   UNL     1     -11.195  11.462  67.125  1.00  0.00    -0.363 A  
HETATM   18  C   UNL     1     -10.563  10.218  67.140  1.00  0.00    -0.320 A  
HETATM   19  C   UNL     1     -10.030   9.686  65.966  1.00  0.00    -0.274 A  
HETATM   20  C   UNL     1     -10.112  10.414  64.776  1.00  0.00    -0.387 A  
HETATM   21  C   UNL     1     -10.725  11.676  64.772  1.00  0.00    -0.365 A  
BRANCH  19  22
HETATM   22  S   UNL     1      -9.105   8.163  66.037  1.00  0.00    -0.133 S  
HETATM   23  O   UNL     1      -8.535   7.946  64.722  1.00  0.00    -0.108 OA 
HETATM   24  O   UNL     1      -8.251   8.190  67.204  1.00  0.00    -0.117 OA 
BRANCH  22  25
HETATM   25  N   UNL     1     -10.256   6.962  66.214  1.00  0.00    -0.437 N  
HETATM   26  H   UNL     1     -10.862   6.754  65.420  1.00  0.00     0.000 HD 
BRANCH  25  27
HETATM   27  C   UNL     1     -10.428   6.237  67.376  1.00  0.00    -0.248 C  
HETATM   28  O   UNL     1     -10.126   5.058  67.469  1.00  0.00    -0.174 OA 
BRANCH  27  29
HETATM   29  N   UNL     1     -10.965   6.945  68.426  1.00  0.00    -0.450 N  
HETATM   30  H   UNL     1     -11.835   7.465  68.315  1.00  0.00     0.000 HD 
BRANCH  29  31
HETATM   31  C   UNL     1     -10.258   6.934  69.705  1.00  0.00    -0.196 C  
HETATM   32  C   UNL     1      -9.957   8.341  70.238  1.00  0.00    -0.188 C  
HETATM   33  C   UNL     1     -11.092   8.986  71.030  1.00  0.00    -0.356 C  
HETATM   34  C   UNL     1     -11.707   8.057  72.084  1.00  0.00    -0.399 C  
HETATM   35  C   UNL     1     -12.134   6.740  71.427  1.00  0.00    -0.415 C  
HETATM   36  C   UNL     1     -10.767   7.822  73.273  1.00  0.00    -0.335 C  
HETATM   37  C   UNL     1     -10.974   6.037  70.725  1.00  0.00    -0.364 C  
ENDBRANCH  29  31
ENDBRANCH  27  29
ENDBRANCH  25  27
ENDBRANCH  22  25
ENDBRANCH  19  22
ENDBRANCH  15  16
ENDBRANCH  14  15
ENDBRANCH  12  14
ENDBRANCH  10  12
ENDBRANCH   7  10
ENDBRANCH   2   3
TORSDOF 11
ENDMDL
MODEL       69
REMARK 921   NORMALIZED FREE ENERGY PREDICTED BY IDOCK:   -6.02 KCAL/MOL
REMARK 922        TOTAL FREE ENERGY PREDICTED BY IDOCK:  -12.21 KCAL/MOL
REMARK 923 INTER-LIGAND FREE ENERGY PREDICTED BY IDOCK:   -9.98 KCAL/MOL
REMARK 924 INTRA-LIGAND FREE ENERGY PREDICTED BY IDOCK:   -2.23 KCAL/MOL
REMARK 927      BINDING AFFINITY PREDICTED BY RF-SCORE:    0.00 PKD
ROOT
HETATM    1  C   UNL     1     -10.430  18.882  66.112  1.00  0.00    -0.521 C  
HETATM    2  C   UNL     1      -9.539  17.760  66.626  1.00  0.00    -0.311 C  
ENDROOT
BRANCH   2   3
HETATM    3  C   UNL     1     -10.321  16.534  66.936  1.00  0.00    -0.300 C  
HETATM    4  C   UNL     1     -10.808  16.062  68.093  1.00  0.00    -0.322 C  
HETATM    5  C   UNL     1     -11.536  14.769  67.916  1.00  0.00    -0.351 C  
HETATM    6  C   UNL     1     -10.732  16.697  69.437  1.00  0.00    -0.331 C  
HETATM    7  N   UNL     1     -11.492  14.589  66.491  1.00  0.00    -0.354 N  
HETATM    8  O   UNL     1     -10.398  15.658  64.712  1.00  0.00    -0.422 OA 
HETATM    9  C   UNL     1     -10.720  15.573  65.886  1.00  0.00    -0.339 C  
BRANCH   7  10
HETATM   10  C   UNL     1     -12.322  13.671  65.873  1.00  0.00    -0.471 C  
HETATM   11  O   UNL     1     -13.313  14.007  65.229  1.00  0.00    -0.741 OA 
BRANCH  10  12
HETATM   12  N   UNL     1     -11.931  12.362  65.997  1.00  0.00    -0.403 N  
HETATM   13  H   UNL     1     -12.523  11.727  66.535  1.00  0.00     0.000 HD 
BRANCH  12  14
HETATM   14  C   UNL     1     -10.718  11.838  65.403  1.00  0.00    -0.283 C  
BRANCH  14  15
HETATM   15  C   UNL     1      -9.558  11.714  66.406  1.00  0.00    -0.236 C  
BRANCH  15  16
HETATM   16  C   UNL     1      -9.129  10.286  66.700  1.00  0.00    -0.163 A  
HETATM   17  C   UNL     1      -9.860   9.187  66.225  1.00  0.00    -0.359 A  
HETATM   18  C   UNL     1      -9.488   7.882  66.550  1.00  0.00    -0.277 A  
HETATM   19  C   UNL     1      -8.336   7.645  67.299  1.00  0.00    -0.115 A  
HETATM   20  C   UNL     1      -7.565   8.723  67.744  1.00  0.00    -0.097 A  
HETATM   21  C   UNL     1      -7.959  10.035  67.438  1.00  0.00    -0.106 A  
BRANCH  19  22
HETATM   22  S   UNL     1      -7.957   5.983  67.820  1.00  0.00    -0.106 S  
HETATM   23  O   UNL     1      -7.593   5.234  66.634  1.00  0.00    -0.086 OA 
HETATM   24  O   UNL     1      -7.053   6.042  68.948  1.00  0.00    -0.075 OA 
BRANCH  22  25
HETATM   25  N   UNL     1      -9.419   5.335  68.310  1.00  0.00    -0.118 N  
HETATM   26  H   UNL     1     -10.067   5.008  67.592  1.00  0.00     0.000 HD 
BRANCH  25  27
HETATM   27  C   UNL     1      -9.797   5.220  69.633  1.00  0.00    -0.204 C  
HETATM   28  O   UNL     1      -9.956   4.141  70.181  1.00  0.00    -0.209 OA 
BRANCH  27  29
HETATM   29  N   UNL     1      -9.978   6.414  70.290  1.00  0.00    -0.167 N  
HETATM   30  H   UNL     1      -9.310   6.730  70.993  1.00  0.00     0.000 HD 
BRANCH  29  31
HETATM   31  C   UNL     1     -11.151   7.220  69.958  1.00  0.00    -0.240 C  
HETATM   32  C   UNL     1     -12.323   7.003  70.922  1.00  0.00    -0.361 C  
HETATM   33  C   UNL     1     -12.276   7.849  72.193  1.00  0.00    -0.353 C  
HETATM   34  C   UNL     1     -11.973   9.328  71.931  1.00  0.00    -0.433 C  
HETATM   35  C   UNL     1     -10.689   9.455  71.104  1.00  0.00    -0.417 C  
HETATM   36  C   UNL     1     -13.150  10.057  71.272  1.00  0.00    -0.493 C  
HETATM   37  C   UNL     1     -10.774   8.698  69.780  1.00  0.00    -0.215 C  
ENDBRANCH  29  31
ENDBRANCH  27  29
ENDBRANCH  25  27
ENDBRANCH  22  25
ENDBRANCH  19  22
ENDBRANCH  15  16
ENDBRANCH  14  15
ENDBRANCH  12  14
ENDBRANCH  10  12
ENDBRANCH   7  10
ENDBRANCH   2   3
TORSDOF 11
ENDMDL
MODEL       70
REMARK 921   NORMALIZED FREE ENERGY PREDICTED BY IDOCK:   -6.01 KCAL/MOL
REMARK 922        TOTAL FREE ENERGY PREDICTED BY IDOCK:  -12.19 KCAL/MOL
REMARK 923 INTER-LIGAND FREE ENERGY PREDICTED BY IDOCK:  -10.76 KCAL/MOL
REMARK 924 INTRA-LIGAND FREE ENERGY PREDICTED BY IDOCK:   -1.43 KCAL/MOL
REMARK 927      BINDING AFFINITY PREDICTED BY RF-SCORE:    0.00 PKD
ROOT
HETATM    1  C   UNL     1     -11.034   3.551  73.419  1.00  0.00    -0.308 C  
HETATM    2  C   UNL     1     -10.536   4.484  74.512  1.00  0.00    -0.298 C  
ENDROOT
BRANCH   2   3
HETATM    3  C   UNL     1      -9.496   5.419  74.005  1.00  0.00    -0.136 C  
HETATM    4  C   UNL     1      -8.165   5.293  73.900  1.00  0.00    -0.111 C  
HETATM    5  C   UNL     1      -7.523   6.515  73.328  1.00  0.00    -0.085 C  
HETATM    6  C   UNL     1      -7.337   4.103  74.233  1.00  0.00    -0.071 C  
HETATM    7  N   UNL     1      -8.660   7.343  73.028  1.00  0.00    -0.122 N  
HETATM    8  O   UNL     1     -10.961   7.235  73.476  1.00  0.00    -0.345 OA 
HETATM    9  C   UNL     1      -9.837   6.759  73.481  1.00  0.00    -0.223 C  
BRANCH   7  10
HETATM   10  C   UNL     1      -8.530   8.440  72.196  1.00  0.00    -0.181 C  
HETATM   11  O   UNL     1      -7.445   8.976  71.977  1.00  0.00    -0.337 OA 
BRANCH  10  12
HETATM   12  N   UNL     1      -9.694   8.859  71.605  1.00  0.00    -0.306 N  
HETATM   13  H   UNL     1     -10.581   8.583  72.028  1.00  0.00     0.000 HD 
BRANCH  12  14
HETATM   14  C   UNL     1      -9.725   9.675  70.408  1.00  0.00    -0.245 C  
BRANCH  14  15
HETATM   15  C   UNL     1     -11.105  10.297  70.135  1.00  0.00    -0.385 C  
BRANCH  15  16
HETATM   16  C   UNL     1     -11.218  11.023  68.806  1.00  0.00    -0.327 A  
HETATM   17  C   UNL     1     -11.664  12.351  68.729  1.00  0.00    -0.379 A  
HETATM   18  C   UNL     1     -11.817  12.989  67.497  1.00  0.00    -0.408 A  
HETATM   19  C   UNL     1     -11.461  12.334  66.318  1.00  0.00    -0.380 A  
HETATM   20  C   UNL     1     -10.971  11.026  66.373  1.00  0.00    -0.202 A  
HETATM   21  C   UNL     1     -10.845  10.380  67.612  1.00  0.00    -0.361 A  
BRANCH  19  22
HETATM   22  S   UNL     1     -11.796  13.113  64.749  1.00  0.00    -0.394 S  
HETATM   23  O   UNL     1     -10.545  13.162  64.020  1.00  0.00    -0.402 OA 
HETATM   24  O   UNL     1     -12.959  12.488  64.158  1.00  0.00    -0.740 OA 
BRANCH  22  25
HETATM   25  N   UNL     1     -12.144  14.706  65.120  1.00  0.00    -0.342 N  
HETATM   26  H   UNL     1     -13.008  14.907  65.625  1.00  0.00     0.000 HD 
BRANCH  25  27
HETATM   27  C   UNL     1     -11.326  15.764  64.778  1.00  0.00    -0.314 C  
HETATM   28  O   UNL     1     -11.500  16.434  63.772  1.00  0.00    -1.002 OA 
BRANCH  27  29
HETATM   29  N   UNL     1     -10.298  16.010  65.658  1.00  0.00    -0.374 N  
HETATM   30  H   UNL     1      -9.377  15.597  65.514  1.00  0.00     0.000 HD 
BRANCH  29  31
HETATM   31  C   UNL     1     -10.558  16.877  66.805  1.00  0.00    -0.201 C  
HETATM   32  C   UNL     1      -9.662  16.566  68.010  1.00  0.00    -0.236 C  
HETATM   33  C   UNL     1      -8.293  17.243  67.986  1.00  0.00    -0.228 C  
HETATM   34  C   UNL     1      -8.357  18.737  67.647  1.00  0.00    -0.291 C  
HETATM   35  C   UNL     1      -9.125  18.938  66.337  1.00  0.00    -0.317 C  
HETATM   36  C   UNL     1      -8.950  19.569  68.791  1.00  0.00    -0.364 C  
HETATM   37  C   UNL     1     -10.536  18.358  66.396  1.00  0.00    -0.342 C  
ENDBRANCH  29  31
ENDBRANCH  27  29
ENDBRANCH  25  27
ENDBRANCH  22  25
ENDBRANCH  19  22
ENDBRANCH  15  16
ENDBRANCH  14  15
ENDBRANCH  12  14
ENDBRANCH  10  12
ENDBRANCH   7  10
ENDBRANCH   2   3
TORSDOF 11
ENDMDL
MODEL       71
REMARK 921   NORMALIZED FREE ENERGY PREDICTED BY IDOCK:   -6.01 KCAL/MOL
REMARK 922        TOTAL FREE ENERGY PREDICTED BY IDOCK:  -12.19 KCAL/MOL
REMARK 923 INTER-LIGAND FREE ENERGY PREDICTED BY IDOCK:  -10.57 KCAL/MOL
REMARK 924 INTRA-LIGAND FREE ENERGY PREDICTED BY IDOCK:   -1.62 KCAL/MOL
REMARK 927      BINDING AFFINITY PREDICTED BY RF-SCORE:    0.00 PKD
ROOT
HETATM    1  C   UNL     1      -6.459  19.068  65.871  1.00  0.00    -0.256 C  
HETATM    2  C   UNL     1      -7.259  19.852  66.901  1.00  0.00    -0.257 C  
ENDROOT
BRANCH   2   3
HETATM    3  C   UNL     1      -8.475  19.113  67.332  1.00  0.00    -0.308 C  
HETATM    4  C   UNL     1      -9.755  19.209  66.945  1.00  0.00    -0.389 C  
HETATM    5  C   UNL     1     -10.641  18.249  67.672  1.00  0.00    -0.405 C  
HETATM    6  C   UNL     1     -10.321  20.092  65.889  1.00  0.00    -0.529 C  
HETATM    7  N   UNL     1      -9.700  17.515  68.473  1.00  0.00    -0.305 N  
HETATM    8  O   UNL     1      -7.415  17.726  68.968  1.00  0.00    -0.251 OA 
HETATM    9  C   UNL     1      -8.421  18.046  68.354  1.00  0.00    -0.298 C  
BRANCH   7  10
HETATM   10  C   UNL     1     -10.064  16.321  69.068  1.00  0.00    -0.259 C  
HETATM   11  O   UNL     1     -10.771  16.273  70.072  1.00  0.00    -0.321 OA 
BRANCH  10  12
HETATM   12  N   UNL     1      -9.611  15.195  68.428  1.00  0.00    -0.207 N  
HETATM   13  H   UNL     1      -8.801  14.710  68.814  1.00  0.00     0.000 HD 
BRANCH  12  14
HETATM   14  C   UNL     1     -10.230  14.662  67.231  1.00  0.00    -0.241 C  
BRANCH  14  15
HETATM   15  C   UNL     1     -11.612  14.038  67.492  1.00  0.00    -0.397 C  
BRANCH  15  16
HETATM   16  C   UNL     1     -11.611  12.906  68.506  1.00  0.00    -0.358 A  
HETATM   17  C   UNL     1     -10.983  11.681  68.238  1.00  0.00    -0.273 A  
HETATM   18  C   UNL     1     -11.039  10.629  69.155  1.00  0.00    -0.309 A  
HETATM   19  C   UNL     1     -11.665  10.804  70.389  1.00  0.00    -0.351 A  
HETATM   20  C   UNL     1     -12.258  12.032  70.696  1.00  0.00    -0.409 A  
HETATM   21  C   UNL     1     -12.223  13.077  69.760  1.00  0.00    -0.242 A  
BRANCH  19  22
HETATM   22  S   UNL     1     -11.847   9.409  71.484  1.00  0.00    -0.407 S  
HETATM   23  O   UNL     1     -10.528   9.090  71.993  1.00  0.00    -0.346 OA 
HETATM   24  O   UNL     1     -12.935   9.673  72.399  1.00  0.00    -0.377 OA 
BRANCH  22  25
HETATM   25  N   UNL     1     -12.250   8.125  70.491  1.00  0.00    -0.469 N  
HETATM   26  H   UNL     1     -12.763   8.322  69.631  1.00  0.00     0.000 HD 
BRANCH  25  27
HETATM   27  C   UNL     1     -11.924   6.813  70.772  1.00  0.00    -0.378 C  
HETATM   28  O   UNL     1     -12.126   6.303  71.863  1.00  0.00    -0.334 OA 
BRANCH  27  29
HETATM   29  N   UNL     1     -11.357   6.120  69.728  1.00  0.00    -0.426 N  
HETATM   30  H   UNL     1     -11.462   5.109  69.655  1.00  0.00     0.000 HD 
BRANCH  29  31
HETATM   31  C   UNL     1     -10.599   6.868  68.728  1.00  0.00    -0.220 C  
HETATM   32  C   UNL     1      -9.083   6.673  68.852  1.00  0.00    -0.132 C  
HETATM   33  C   UNL     1      -8.532   5.437  68.141  1.00  0.00    -0.097 C  
HETATM   34  C   UNL     1      -9.050   5.277  66.707  1.00  0.00    -0.118 C  
HETATM   35  C   UNL     1     -10.581   5.313  66.702  1.00  0.00    -0.334 C  
HETATM   36  C   UNL     1      -8.451   6.316  65.752  1.00  0.00    -0.148 C  
HETATM   37  C   UNL     1     -11.135   6.599  67.313  1.00  0.00    -0.418 C  
ENDBRANCH  29  31
ENDBRANCH  27  29
ENDBRANCH  25  27
ENDBRANCH  22  25
ENDBRANCH  19  22
ENDBRANCH  15  16
ENDBRANCH  14  15
ENDBRANCH  12  14
ENDBRANCH  10  12
ENDBRANCH   7  10
ENDBRANCH   2   3
TORSDOF 11
ENDMDL
MODEL       72
REMARK 921   NORMALIZED FREE ENERGY PREDICTED BY IDOCK:   -6.01 KCAL/MOL
REMARK 922        TOTAL FREE ENERGY PREDICTED BY IDOCK:  -12.19 KCAL/MOL
REMARK 923 INTER-LIGAND FREE ENERGY PREDICTED BY IDOCK:   -9.04 KCAL/MOL
REMARK 924 INTRA-LIGAND FREE ENERGY PREDICTED BY IDOCK:   -3.14 KCAL/MOL
REMARK 927      BINDING AFFINITY PREDICTED BY RF-SCORE:    0.00 PKD
ROOT
HETATM    1  C   UNL     1     -11.316  11.525  65.767  1.00  0.00    -0.160 C  
HETATM    2  C   UNL     1     -10.137  12.384  65.335  1.00  0.00    -0.289 C  
ENDROOT
BRANCH   2   3
HETATM    3  C   UNL     1     -10.161  13.720  65.987  1.00  0.00    -0.320 C  
HETATM    4  C   UNL     1     -10.859  14.831  65.708  1.00  0.00    -0.334 C  
HETATM    5  C   UNL     1     -10.546  15.949  66.648  1.00  0.00    -0.305 C  
HETATM    6  C   UNL     1     -11.887  15.014  64.647  1.00  0.00    -0.378 C  
HETATM    7  N   UNL     1      -9.638  15.325  67.571  1.00  0.00    -0.206 N  
HETATM    8  O   UNL     1      -8.522  13.262  67.668  1.00  0.00    -0.164 OA 
HETATM    9  C   UNL     1      -9.330  14.030  67.170  1.00  0.00    -0.242 C  
BRANCH   7  10
HETATM   10  C   UNL     1      -9.345  15.923  68.783  1.00  0.00    -0.220 C  
HETATM   11  O   UNL     1      -8.772  17.008  68.861  1.00  0.00    -0.263 OA 
BRANCH  10  12
HETATM   12  N   UNL     1      -9.779  15.235  69.887  1.00  0.00    -0.470 N  
HETATM   13  H   UNL     1      -9.145  14.564  70.322  1.00  0.00     0.000 HD 
BRANCH  12  14
HETATM   14  C   UNL     1     -11.095  15.417  70.466  1.00  0.00    -0.335 C  
BRANCH  14  15
HETATM   15  C   UNL     1     -12.174  14.547  69.798  1.00  0.00    -0.360 C  
BRANCH  15  16
HETATM   16  C   UNL     1     -12.175  13.094  70.241  1.00  0.00    -0.376 A  
HETATM   17  C   UNL     1     -12.869  12.676  71.387  1.00  0.00    -0.358 A  
HETATM   18  C   UNL     1     -12.815  11.348  71.816  1.00  0.00    -0.449 A  
HETATM   19  C   UNL     1     -12.123  10.396  71.069  1.00  0.00    -0.385 A  
HETATM   20  C   UNL     1     -11.462  10.780  69.898  1.00  0.00    -0.398 A  
HETATM   21  C   UNL     1     -11.496  12.121  69.486  1.00  0.00    -0.334 A  
BRANCH  19  22
HETATM   22  S   UNL     1     -11.950   8.740  71.707  1.00  0.00    -0.377 S  
HETATM   23  O   UNL     1     -12.748   8.661  72.914  1.00  0.00    -0.289 OA 
HETATM   24  O   UNL     1     -12.166   7.800  70.629  1.00  0.00    -0.121 OA 
BRANCH  22  25
HETATM   25  N   UNL     1     -10.364   8.637  72.229  1.00  0.00    -0.328 N  
HETATM   26  H   UNL     1     -10.113   9.097  73.105  1.00  0.00     0.000 HD 
BRANCH  25  27
HETATM   27  C   UNL     1      -9.377   7.963  71.538  1.00  0.00    -0.143 C  
HETATM   28  O   UNL     1      -8.908   6.904  71.924  1.00  0.00    -0.127 OA 
BRANCH  27  29
HETATM   29  N   UNL     1      -8.961   8.573  70.378  1.00  0.00    -0.145 N  
HETATM   30  H   UNL     1      -8.950   9.590  70.298  1.00  0.00     0.000 HD 
BRANCH  29  31
HETATM   31  C   UNL     1      -8.536   7.730  69.263  1.00  0.00    -0.138 C  
HETATM   32  C   UNL     1      -9.710   7.144  68.469  1.00  0.00    -0.143 C  
HETATM   33  C   UNL     1     -10.272   8.058  67.382  1.00  0.00    -0.330 C  
HETATM   34  C   UNL     1      -9.191   8.684  66.493  1.00  0.00    -0.236 C  
HETATM   35  C   UNL     1      -8.151   9.394  67.364  1.00  0.00    -0.110 C  
HETATM   36  C   UNL     1      -8.545   7.660  65.552  1.00  0.00    -0.112 C  
HETATM   37  C   UNL     1      -7.507   8.456  68.383  1.00  0.00    -0.095 C  
ENDBRANCH  29  31
ENDBRANCH  27  29
ENDBRANCH  25  27
ENDBRANCH  22  25
ENDBRANCH  19  22
ENDBRANCH  15  16
ENDBRANCH  14  15
ENDBRANCH  12  14
ENDBRANCH  10  12
ENDBRANCH   7  10
ENDBRANCH   2   3
TORSDOF 11
ENDMDL
MODEL       73
REMARK 921   NORMALIZED FREE ENERGY PREDICTED BY IDOCK:   -6.00 KCAL/MOL
REMARK 922        TOTAL FREE ENERGY PREDICTED BY IDOCK:  -12.17 KCAL/MOL
REMARK 923 INTER-LIGAND FREE ENERGY PREDICTED BY IDOCK:  -10.29 KCAL/MOL
REMARK 924 INTRA-LIGAND FREE ENERGY PREDICTED BY IDOCK:   -1.88 KCAL/MOL
REMARK 927      BINDING AFFINITY PREDICTED BY RF-SCORE:    0.00 PKD
ROOT
HETATM    1  C   UNL     1      -9.296  19.998  66.145  1.00  0.00    -0.415 C  
HETATM    2  C   UNL     1     -10.447  19.058  66.469  1.00  0.00    -0.522 C  
ENDROOT
BRANCH   2   3
HETATM    3  C   UNL     1     -10.048  17.632  66.331  1.00  0.00    -0.356 C  
HETATM    4  C   UNL     1      -9.248  16.858  67.079  1.00  0.00    -0.246 C  
HETATM    5  C   UNL     1      -9.138  15.468  66.541  1.00  0.00    -0.302 C  
HETATM    6  C   UNL     1      -8.550  17.226  68.340  1.00  0.00    -0.251 C  
HETATM    7  N   UNL     1     -10.049  15.501  65.429  1.00  0.00    -0.361 N  
HETATM    8  O   UNL     1     -11.264  17.176  64.322  1.00  0.00    -1.126 OA 
HETATM    9  C   UNL     1     -10.549  16.782  65.230  1.00  0.00    -0.168 C  
BRANCH   7  10
HETATM   10  C   UNL     1     -10.484  14.326  64.842  1.00  0.00    -0.430 C  
HETATM   11  O   UNL     1      -9.708  13.511  64.347  1.00  0.00    -0.047 OA 
BRANCH  10  12
HETATM   12  N   UNL     1     -11.839  14.122  64.891  1.00  0.00    -0.381 N  
HETATM   13  H   UNL     1     -12.432  14.640  64.242  1.00  0.00     0.000 HD 
BRANCH  12  14
HETATM   14  C   UNL     1     -12.468  13.205  65.820  1.00  0.00    -0.377 C  
BRANCH  14  15
HETATM   15  C   UNL     1     -11.966  13.370  67.265  1.00  0.00    -0.393 C  
BRANCH  15  16
HETATM   16  C   UNL     1     -11.532  12.076  67.933  1.00  0.00    -0.396 A  
HETATM   17  C   UNL     1     -11.713  11.862  69.307  1.00  0.00    -0.389 A  
HETATM   18  C   UNL     1     -11.259  10.692  69.919  1.00  0.00    -0.378 A  
HETATM   19  C   UNL     1     -10.676   9.681  69.155  1.00  0.00    -0.217 A  
HETATM   20  C   UNL     1     -10.527   9.852  67.776  1.00  0.00    -0.292 A  
HETATM   21  C   UNL     1     -10.960  11.042  67.171  1.00  0.00    -0.344 A  
BRANCH  19  22
HETATM   22  S   UNL     1      -9.977   8.259  69.974  1.00  0.00    -0.191 S  
HETATM   23  O   UNL     1     -11.077   7.384  70.326  1.00  0.00    -0.259 OA 
HETATM   24  O   UNL     1      -8.875   7.760  69.182  1.00  0.00    -0.138 OA 
BRANCH  22  25
HETATM   25  N   UNL     1      -9.400   8.837  71.434  1.00  0.00    -0.234 N  
HETATM   26  H   UNL     1      -9.530   9.826  71.647  1.00  0.00     0.000 HD 
BRANCH  25  27
HETATM   27  C   UNL     1      -8.757   8.046  72.365  1.00  0.00    -0.167 C  
HETATM   28  O   UNL     1      -8.209   8.507  73.355  1.00  0.00    -0.379 OA 
BRANCH  27  29
HETATM   29  N   UNL     1      -8.782   6.698  72.097  1.00  0.00    -0.130 N  
HETATM   30  H   UNL     1      -8.661   6.353  71.146  1.00  0.00     0.000 HD 
BRANCH  29  31
HETATM   31  C   UNL     1      -8.986   5.772  73.209  1.00  0.00    -0.127 C  
HETATM   32  C   UNL     1     -10.419   5.794  73.755  1.00  0.00    -0.291 C  
HETATM   33  C   UNL     1     -11.406   4.897  73.010  1.00  0.00    -0.354 C  
HETATM   34  C   UNL     1     -10.874   3.481  72.758  1.00  0.00    -0.068 C  
HETATM   35  C   UNL     1      -9.515   3.556  72.055  1.00  0.00    -0.198 C  
HETATM   36  C   UNL     1     -10.807   2.647  74.043  1.00  0.00    -0.265 C  
HETATM   37  C   UNL     1      -8.492   4.362  72.852  1.00  0.00    -0.102 C  
ENDBRANCH  29  31
ENDBRANCH  27  29
ENDBRANCH  25  27
ENDBRANCH  22  25
ENDBRANCH  19  22
ENDBRANCH  15  16
ENDBRANCH  14  15
ENDBRANCH  12  14
ENDBRANCH  10  12
ENDBRANCH   7  10
ENDBRANCH   2   3
TORSDOF 11
ENDMDL
MODEL       74
REMARK 921   NORMALIZED FREE ENERGY PREDICTED BY IDOCK:   -5.98 KCAL/MOL
REMARK 922        TOTAL FREE ENERGY PREDICTED BY IDOCK:  -12.14 KCAL/MOL
REMARK 923 INTER-LIGAND FREE ENERGY PREDICTED BY IDOCK:  -11.14 KCAL/MOL
REMARK 924 INTRA-LIGAND FREE ENERGY PREDICTED BY IDOCK:   -1.00 KCAL/MOL
REMARK 927      BINDING AFFINITY PREDICTED BY RF-SCORE:    0.00 PKD
ROOT
HETATM    1  C   UNL     1     -11.824   6.637  71.739  1.00  0.00    -0.380 C  
HETATM    2  C   UNL     1     -11.736   6.490  70.227  1.00  0.00    -0.430 C  
ENDROOT
BRANCH   2   3
HETATM    3  C   UNL     1     -10.326   6.488  69.756  1.00  0.00    -0.234 C  
HETATM    4  C   UNL     1      -9.461   5.484  69.547  1.00  0.00    -0.185 C  
HETATM    5  C   UNL     1      -8.132   5.971  69.069  1.00  0.00    -0.107 C  
HETATM    6  C   UNL     1      -9.713   4.025  69.692  1.00  0.00    -0.245 C  
HETATM    7  N   UNL     1      -8.355   7.385  68.938  1.00  0.00    -0.128 N  
HETATM    8  O   UNL     1     -10.085   8.857  69.528  1.00  0.00    -0.187 OA 
HETATM    9  C   UNL     1      -9.616   7.737  69.405  1.00  0.00    -0.156 C  
BRANCH   7  10
HETATM   10  C   UNL     1      -7.471   8.173  68.224  1.00  0.00    -0.097 C  
HETATM   11  O   UNL     1      -6.798   9.054  68.755  1.00  0.00    -0.060 OA 
BRANCH  10  12
HETATM   12  N   UNL     1      -7.373   7.871  66.890  1.00  0.00    -0.088 N  
HETATM   13  H   UNL     1      -6.451   7.657  66.507  1.00  0.00     0.000 HD 
BRANCH  12  14
HETATM   14  C   UNL     1      -8.515   7.840  65.999  1.00  0.00    -0.139 C  
BRANCH  14  15
HETATM   15  C   UNL     1      -8.445   8.905  64.890  1.00  0.00    -0.195 C  
BRANCH  15  16
HETATM   16  C   UNL     1      -9.371  10.091  65.096  1.00  0.00    -0.302 A  
HETATM   17  C   UNL     1      -9.593  11.035  64.082  1.00  0.00    -0.306 A  
HETATM   18  C   UNL     1     -10.401  12.151  64.303  1.00  0.00    -0.363 A  
HETATM   19  C   UNL     1     -11.060  12.312  65.522  1.00  0.00    -0.307 A  
HETATM   20  C   UNL     1     -10.891  11.360  66.531  1.00  0.00    -0.334 A  
HETATM   21  C   UNL     1     -10.055  10.254  66.314  1.00  0.00    -0.300 A  
BRANCH  19  22
HETATM   22  S   UNL     1     -11.972  13.812  65.832  1.00  0.00    -0.433 S  
HETATM   23  O   UNL     1     -11.017  14.902  65.832  1.00  0.00    -0.324 OA 
HETATM   24  O   UNL     1     -13.119  13.851  64.952  1.00  0.00    -0.704 OA 
BRANCH  22  25
HETATM   25  N   UNL     1     -12.488  13.688  67.418  1.00  0.00    -0.317 N  
HETATM   26  H   UNL     1     -13.381  13.229  67.601  1.00  0.00     0.000 HD 
BRANCH  25  27
HETATM   27  C   UNL     1     -11.770  14.174  68.493  1.00  0.00    -0.345 C  
HETATM   28  O   UNL     1     -10.550  14.212  68.508  1.00  0.00    -0.239 OA 
BRANCH  27  29
HETATM   29  N   UNL     1     -12.534  14.617  69.548  1.00  0.00    -0.564 N  
HETATM   30  H   UNL     1     -13.359  15.193  69.388  1.00  0.00     0.000 HD 
BRANCH  29  31
HETATM   31  C   UNL     1     -12.133  14.240  70.902  1.00  0.00    -0.347 C  
HETATM   32  C   UNL     1     -11.169  15.244  71.545  1.00  0.00    -0.369 C  
HETATM   33  C   UNL     1     -11.839  16.436  72.225  1.00  0.00    -0.531 C  
HETATM   34  C   UNL     1     -13.003  16.041  73.141  1.00  0.00    -0.627 C  
HETATM   35  C   UNL     1     -14.004  15.180  72.364  1.00  0.00    -0.616 C  
HETATM   36  C   UNL     1     -12.527  15.347  74.422  1.00  0.00    -0.717 C  
HETATM   37  C   UNL     1     -13.359  13.928  71.774  1.00  0.00    -0.461 C  
ENDBRANCH  29  31
ENDBRANCH  27  29
ENDBRANCH  25  27
ENDBRANCH  22  25
ENDBRANCH  19  22
ENDBRANCH  15  16
ENDBRANCH  14  15
ENDBRANCH  12  14
ENDBRANCH  10  12
ENDBRANCH   7  10
ENDBRANCH   2   3
TORSDOF 11
ENDMDL
MODEL       75
REMARK 921   NORMALIZED FREE ENERGY PREDICTED BY IDOCK:   -5.98 KCAL/MOL
REMARK 922        TOTAL FREE ENERGY PREDICTED BY IDOCK:  -12.13 KCAL/MOL
REMARK 923 INTER-LIGAND FREE ENERGY PREDICTED BY IDOCK:   -9.69 KCAL/MOL
REMARK 924 INTRA-LIGAND FREE ENERGY PREDICTED BY IDOCK:   -2.44 KCAL/MOL
REMARK 927      BINDING AFFINITY PREDICTED BY RF-SCORE:    0.00 PKD
ROOT
HETATM    1  C   UNL     1     -12.538  15.872  74.172  1.00  0.00    -0.741 C  
HETATM    2  C   UNL     1     -13.260  16.001  72.840  1.00  0.00    -0.549 C  
ENDROOT
BRANCH   2   3
HETATM    3  C   UNL     1     -12.774  15.003  71.851  1.00  0.00    -0.407 C  
HETATM    4  C   UNL     1     -11.917  15.116  70.825  1.00  0.00    -0.376 C  
HETATM    5  C   UNL     1     -11.734  13.825  70.094  1.00  0.00    -0.233 C  
HETATM    6  C   UNL     1     -11.148  16.321  70.412  1.00  0.00    -0.322 C  
HETATM    7  N   UNL     1     -12.526  12.917  70.879  1.00  0.00    -0.351 N  
HETATM    8  O   UNL     1     -14.041  13.142  72.657  1.00  0.00    -0.701 OA 
HETATM    9  C   UNL     1     -13.213  13.592  71.881  1.00  0.00    -0.422 C  
BRANCH   7  10
HETATM   10  C   UNL     1     -12.382  11.550  70.730  1.00  0.00    -0.375 C  
HETATM   11  O   UNL     1     -11.607  11.054  69.915  1.00  0.00    -0.279 OA 
BRANCH  10  12
HETATM   12  N   UNL     1     -13.138  10.792  71.588  1.00  0.00    -0.449 N  
HETATM   13  H   UNL     1     -13.575  11.252  72.386  1.00  0.00     0.000 HD 
BRANCH  12  14
HETATM   14  C   UNL     1     -13.344   9.368  71.413  1.00  0.00    -0.346 C  
BRANCH  14  15
HETATM   15  C   UNL     1     -12.783   8.529  72.575  1.00  0.00    -0.329 C  
BRANCH  15  16
HETATM   16  C   UNL     1     -11.615   7.634  72.199  1.00  0.00    -0.354 A  
HETATM   17  C   UNL     1     -11.702   6.718  71.140  1.00  0.00    -0.394 A  
HETATM   18  C   UNL     1     -10.642   5.861  70.841  1.00  0.00    -0.319 A  
HETATM   19  C   UNL     1      -9.445   5.949  71.552  1.00  0.00    -0.152 A  
HETATM   20  C   UNL     1      -9.318   6.886  72.582  1.00  0.00    -0.155 A  
HETATM   21  C   UNL     1     -10.397   7.727  72.896  1.00  0.00    -0.396 A  
BRANCH  19  22
HETATM   22  S   UNL     1      -8.157   4.754  71.249  1.00  0.00    -0.103 S  
HETATM   23  O   UNL     1      -7.606   4.382  72.536  1.00  0.00    -0.076 OA 
HETATM   24  O   UNL     1      -8.666   3.738  70.354  1.00  0.00    -0.073 OA 
BRANCH  22  25
HETATM   25  N   UNL     1      -6.938   5.610  70.488  1.00  0.00    -0.055 N  
HETATM   26  H   UNL     1      -6.295   6.152  71.065  1.00  0.00     0.000 HD 
BRANCH  25  27
HETATM   27  C   UNL     1      -6.756   5.622  69.119  1.00  0.00    -0.060 C  
HETATM   28  O   UNL     1      -5.651   5.587  68.601  1.00  0.00    -0.007 OA 
BRANCH  27  29
HETATM   29  N   UNL     1      -7.915   5.674  68.380  1.00  0.00    -0.099 N  
HETATM   30  H   UNL     1      -8.637   4.963  68.491  1.00  0.00     0.000 HD 
BRANCH  29  31
HETATM   31  C   UNL     1      -8.087   6.773  67.432  1.00  0.00    -0.118 C  
HETATM   32  C   UNL     1      -9.377   6.661  66.610  1.00  0.00    -0.192 C  
HETATM   33  C   UNL     1     -10.621   7.235  67.285  1.00  0.00    -0.395 C  
HETATM   34  C   UNL     1     -10.403   8.628  67.886  1.00  0.00    -0.286 C  
HETATM   35  C   UNL     1      -9.195   8.602  68.827  1.00  0.00    -0.142 C  
HETATM   36  C   UNL     1     -10.265   9.712  66.810  1.00  0.00    -0.308 C  
HETATM   37  C   UNL     1      -7.921   8.133  68.126  1.00  0.00    -0.127 C  
ENDBRANCH  29  31
ENDBRANCH  27  29
ENDBRANCH  25  27
ENDBRANCH  22  25
ENDBRANCH  19  22
ENDBRANCH  15  16
ENDBRANCH  14  15
ENDBRANCH  12  14
ENDBRANCH  10  12
ENDBRANCH   7  10
ENDBRANCH   2   3
TORSDOF 11
ENDMDL
MODEL       76
REMARK 921   NORMALIZED FREE ENERGY PREDICTED BY IDOCK:   -5.97 KCAL/MOL
REMARK 922        TOTAL FREE ENERGY PREDICTED BY IDOCK:  -12.12 KCAL/MOL
REMARK 923 INTER-LIGAND FREE ENERGY PREDICTED BY IDOCK:   -9.85 KCAL/MOL
REMARK 924 INTRA-LIGAND FREE ENERGY PREDICTED BY IDOCK:   -2.27 KCAL/MOL
REMARK 927      BINDING AFFINITY PREDICTED BY RF-SCORE:    0.00 PKD
ROOT
HETATM    1  C   UNL     1     -10.410   5.177  66.608  1.00  0.00    -0.325 C  
HETATM    2  C   UNL     1     -10.799   6.191  67.673  1.00  0.00    -0.421 C  
ENDROOT
BRANCH   2   3
HETATM    3  C   UNL     1      -9.762   6.299  68.735  1.00  0.00    -0.141 C  
HETATM    4  C   UNL     1      -8.594   6.957  68.770  1.00  0.00    -0.124 C  
HETATM    5  C   UNL     1      -7.875   6.766  70.066  1.00  0.00    -0.111 C  
HETATM    6  C   UNL     1      -8.017   7.840  67.720  1.00  0.00    -0.124 C  
HETATM    7  N   UNL     1      -8.814   5.984  70.822  1.00  0.00    -0.138 N  
HETATM    8  O   UNL     1     -10.834   4.889  70.342  1.00  0.00     0.022 OA 
HETATM    9  C   UNL     1      -9.908   5.627  70.043  1.00  0.00    -0.186 C  
BRANCH   7  10
HETATM   10  C   UNL     1      -8.675   5.849  72.191  1.00  0.00    -0.136 C  
HETATM   11  O   UNL     1      -7.593   5.611  72.723  1.00  0.00    -0.095 OA 
BRANCH  10  12
HETATM   12  N   UNL     1      -9.826   6.041  72.912  1.00  0.00    -0.166 N  
HETATM   13  H   UNL     1     -10.384   5.224  73.163  1.00  0.00     0.000 HD 
BRANCH  12  14
HETATM   14  C   UNL     1     -10.288   7.348  73.332  1.00  0.00    -0.360 C  
BRANCH  14  15
HETATM   15  C   UNL     1     -11.656   7.726  72.737  1.00  0.00    -0.368 C  
BRANCH  15  16
HETATM   16  C   UNL     1     -11.630   8.932  71.814  1.00  0.00    -0.422 A  
HETATM   17  C   UNL     1     -12.669   9.874  71.806  1.00  0.00    -0.523 A  
HETATM   18  C   UNL     1     -12.661  10.947  70.912  1.00  0.00    -0.464 A  
HETATM   19  C   UNL     1     -11.578  11.139  70.054  1.00  0.00    -0.338 A  
HETATM   20  C   UNL     1     -10.509  10.239  70.077  1.00  0.00    -0.293 A  
HETATM   21  C   UNL     1     -10.535   9.147  70.957  1.00  0.00    -0.368 A  
BRANCH  19  22
HETATM   22  S   UNL     1     -11.652  12.430  68.827  1.00  0.00    -0.345 S  
HETATM   23  O   UNL     1     -12.126  11.827  67.598  1.00  0.00    -0.598 OA 
HETATM   24  O   UNL     1     -12.342  13.569  69.391  1.00  0.00    -0.262 OA 
BRANCH  22  25
HETATM   25  N   UNL     1     -10.058  12.836  68.525  1.00  0.00    -0.326 N  
HETATM   26  H   UNL     1      -9.343  12.497  69.168  1.00  0.00     0.000 HD 
BRANCH  25  27
HETATM   27  C   UNL     1      -9.658  13.604  67.449  1.00  0.00    -0.226 C  
HETATM   28  O   UNL     1      -9.550  13.152  66.320  1.00  0.00    -0.268 OA 
BRANCH  27  29
HETATM   29  N   UNL     1      -9.394  14.921  67.745  1.00  0.00    -0.192 N  
HETATM   30  H   UNL     1      -8.559  15.181  68.268  1.00  0.00     0.000 HD 
BRANCH  29  31
HETATM   31  C   UNL     1     -10.339  15.939  67.290  1.00  0.00    -0.293 C  
HETATM   32  C   UNL     1     -10.822  16.858  68.419  1.00  0.00    -0.347 C  
HETATM   33  C   UNL     1      -9.906  18.043  68.720  1.00  0.00    -0.360 C  
HETATM   34  C   UNL     1      -9.461  18.804  67.466  1.00  0.00    -0.326 C  
HETATM   35  C   UNL     1      -8.835  17.829  66.463  1.00  0.00    -0.283 C  
HETATM   36  C   UNL     1     -10.603  19.613  66.839  1.00  0.00    -0.603 C  
HETATM   37  C   UNL     1      -9.789  16.702  66.076  1.00  0.00    -0.335 C  
ENDBRANCH  29  31
ENDBRANCH  27  29
ENDBRANCH  25  27
ENDBRANCH  22  25
ENDBRANCH  19  22
ENDBRANCH  15  16
ENDBRANCH  14  15
ENDBRANCH  12  14
ENDBRANCH  10  12
ENDBRANCH   7  10
ENDBRANCH   2   3
TORSDOF 11
ENDMDL
MODEL       77
REMARK 921   NORMALIZED FREE ENERGY PREDICTED BY IDOCK:   -5.95 KCAL/MOL
REMARK 922        TOTAL FREE ENERGY PREDICTED BY IDOCK:  -12.08 KCAL/MOL
REMARK 923 INTER-LIGAND FREE ENERGY PREDICTED BY IDOCK:  -10.50 KCAL/MOL
REMARK 924 INTRA-LIGAND FREE ENERGY PREDICTED BY IDOCK:   -1.58 KCAL/MOL
REMARK 927      BINDING AFFINITY PREDICTED BY RF-SCORE:    0.00 PKD
ROOT
HETATM    1  C   UNL     1      -6.162  18.696  67.405  1.00  0.00    -0.187 C  
HETATM    2  C   UNL     1      -7.158  19.106  68.480  1.00  0.00    -0.335 C  
ENDROOT
BRANCH   2   3
HETATM    3  C   UNL     1      -8.538  18.664  68.147  1.00  0.00    -0.332 C  
HETATM    4  C   UNL     1      -9.551  19.299  67.539  1.00  0.00    -0.390 C  
HETATM    5  C   UNL     1     -10.772  18.444  67.427  1.00  0.00    -0.361 C  
HETATM    6  C   UNL     1      -9.546  20.671  66.961  1.00  0.00    -0.484 C  
HETATM    7  N   UNL     1     -10.316  17.193  67.968  1.00  0.00    -0.336 N  
HETATM    8  O   UNL     1      -8.382  16.467  69.082  1.00  0.00    -0.235 OA 
HETATM    9  C   UNL     1      -9.025  17.306  68.471  1.00  0.00    -0.273 C  
BRANCH   7  10
HETATM   10  C   UNL     1     -11.043  16.034  67.766  1.00  0.00    -0.273 C  
HETATM   11  O   UNL     1     -11.097  15.473  66.673  1.00  0.00    -0.293 OA 
BRANCH  10  12
HETATM   12  N   UNL     1     -11.661  15.535  68.884  1.00  0.00    -0.389 N  
HETATM   13  H   UNL     1     -11.880  16.178  69.645  1.00  0.00     0.000 HD 
BRANCH  12  14
HETATM   14  C   UNL     1     -12.018  14.139  69.035  1.00  0.00    -0.340 C  
BRANCH  14  15
HETATM   15  C   UNL     1     -12.318  13.746  70.492  1.00  0.00    -0.429 C  
BRANCH  15  16
HETATM   16  C   UNL     1     -12.277  12.252  70.762  1.00  0.00    -0.354 A  
HETATM   17  C   UNL     1     -13.039  11.670  71.786  1.00  0.00    -0.487 A  
HETATM   18  C   UNL     1     -12.949  10.304  72.062  1.00  0.00    -0.503 A  
HETATM   19  C   UNL     1     -12.147   9.479  71.273  1.00  0.00    -0.360 A  
HETATM   20  C   UNL     1     -11.415  10.029  70.218  1.00  0.00    -0.372 A  
HETATM   21  C   UNL     1     -11.487  11.407  69.962  1.00  0.00    -0.331 A  
BRANCH  19  22
HETATM   22  S   UNL     1     -11.938   7.768  71.728  1.00  0.00    -0.310 S  
HETATM   23  O   UNL     1     -11.524   7.741  73.116  1.00  0.00    -0.330 OA 
HETATM   24  O   UNL     1     -13.105   7.027  71.303  1.00  0.00    -0.369 OA 
BRANCH  22  25
HETATM   25  N   UNL     1     -10.602   7.248  70.867  1.00  0.00    -0.218 N  
HETATM   26  H   UNL     1      -9.676   7.500  71.214  1.00  0.00     0.000 HD 
BRANCH  25  27
HETATM   27  C   UNL     1     -10.685   6.495  69.713  1.00  0.00    -0.269 C  
HETATM   28  O   UNL     1     -10.545   5.282  69.705  1.00  0.00    -0.307 OA 
BRANCH  27  29
HETATM   29  N   UNL     1     -10.940   7.215  68.569  1.00  0.00    -0.444 N  
HETATM   30  H   UNL     1     -11.860   7.622  68.403  1.00  0.00     0.000 HD 
BRANCH  29  31
HETATM   31  C   UNL     1      -9.862   7.381  67.597  1.00  0.00    -0.154 C  
HETATM   32  C   UNL     1     -10.217   8.355  66.466  1.00  0.00    -0.277 C  
HETATM   33  C   UNL     1      -9.969   9.828  66.784  1.00  0.00    -0.278 C  
HETATM   34  C   UNL     1      -8.593  10.095  67.406  1.00  0.00    -0.122 C  
HETATM   35  C   UNL     1      -8.396   9.198  68.631  1.00  0.00    -0.126 C  
HETATM   36  C   UNL     1      -7.454   9.935  66.391  1.00  0.00    -0.101 C  
HETATM   37  C   UNL     1      -8.535   7.715  68.295  1.00  0.00    -0.125 C  
ENDBRANCH  29  31
ENDBRANCH  27  29
ENDBRANCH  25  27
ENDBRANCH  22  25
ENDBRANCH  19  22
ENDBRANCH  15  16
ENDBRANCH  14  15
ENDBRANCH  12  14
ENDBRANCH  10  12
ENDBRANCH   7  10
ENDBRANCH   2   3
TORSDOF 11
ENDMDL
MODEL       78
REMARK 921   NORMALIZED FREE ENERGY PREDICTED BY IDOCK:   -5.94 KCAL/MOL
REMARK 922        TOTAL FREE ENERGY PREDICTED BY IDOCK:  -12.07 KCAL/MOL
REMARK 923 INTER-LIGAND FREE ENERGY PREDICTED BY IDOCK:   -9.68 KCAL/MOL
REMARK 924 INTRA-LIGAND FREE ENERGY PREDICTED BY IDOCK:   -2.38 KCAL/MOL
REMARK 927      BINDING AFFINITY PREDICTED BY RF-SCORE:    0.00 PKD
ROOT
HETATM    1  C   UNL     1      -6.606   5.433  66.248  1.00  0.00    -0.052 C  
HETATM    2  C   UNL     1      -7.734   6.103  65.478  1.00  0.00    -0.094 C  
ENDROOT
BRANCH   2   3
HETATM    3  C   UNL     1      -8.922   6.343  66.341  1.00  0.00    -0.162 C  
HETATM    4  C   UNL     1     -10.069   5.663  66.481  1.00  0.00    -0.225 C  
HETATM    5  C   UNL     1     -10.985   6.295  67.478  1.00  0.00    -0.350 C  
HETATM    6  C   UNL     1     -10.458   4.392  65.812  1.00  0.00    -0.211 C  
HETATM    7  N   UNL     1     -10.190   7.386  67.972  1.00  0.00    -0.183 N  
HETATM    8  O   UNL     1      -8.141   8.357  67.368  1.00  0.00    -0.105 OA 
HETATM    9  C   UNL     1      -8.994   7.490  67.271  1.00  0.00    -0.124 C  
BRANCH   7  10
HETATM   10  C   UNL     1     -10.544   8.043  69.136  1.00  0.00    -0.169 C  
HETATM   11  O   UNL     1     -10.961   7.447  70.128  1.00  0.00    -0.253 OA 
BRANCH  10  12
HETATM   12  N   UNL     1     -10.355   9.401  69.115  1.00  0.00    -0.205 N  
HETATM   13  H   UNL     1      -9.497   9.778  69.519  1.00  0.00     0.000 HD 
BRANCH  12  14
HETATM   14  C   UNL     1     -11.316  10.325  68.547  1.00  0.00    -0.168 C  
BRANCH  14  15
HETATM   15  C   UNL     1     -11.003  10.701  67.089  1.00  0.00    -0.312 C  
BRANCH  15  16
HETATM   16  C   UNL     1     -10.769  12.185  66.857  1.00  0.00    -0.271 A  
HETATM   17  C   UNL     1     -11.817  13.046  66.497  1.00  0.00    -0.464 A  
HETATM   18  C   UNL     1     -11.579  14.395  66.232  1.00  0.00    -0.377 A  
HETATM   19  C   UNL     1     -10.299  14.928  66.388  1.00  0.00    -0.286 A  
HETATM   20  C   UNL     1      -9.249  14.099  66.790  1.00  0.00    -0.282 A  
HETATM   21  C   UNL     1      -9.487  12.737  67.029  1.00  0.00    -0.233 A  
BRANCH  19  22
HETATM   22  S   UNL     1      -9.991  16.617  65.909  1.00  0.00    -0.257 S  
HETATM   23  O   UNL     1      -8.561  16.752  65.712  1.00  0.00    -0.485 OA 
HETATM   24  O   UNL     1     -10.908  16.977  64.850  1.00  0.00    -0.717 OA 
BRANCH  22  25
HETATM   25  N   UNL     1     -10.327  17.525  67.273  1.00  0.00    -0.332 N  
HETATM   26  H   UNL     1     -10.785  18.429  67.151  1.00  0.00     0.000 HD 
BRANCH  25  27
HETATM   27  C   UNL     1     -10.018  17.116  68.555  1.00  0.00    -0.309 C  
HETATM   28  O   UNL     1      -8.869  17.016  68.956  1.00  0.00    -0.232 OA 
BRANCH  27  29
HETATM   29  N   UNL     1     -11.104  16.833  69.351  1.00  0.00    -0.321 N  
HETATM   30  H   UNL     1     -12.001  17.291  69.192  1.00  0.00     0.000 HD 
BRANCH  29  31
HETATM   31  C   UNL     1     -10.941  15.860  70.429  1.00  0.00    -0.350 C  
HETATM   32  C   UNL     1     -11.768  16.199  71.675  1.00  0.00    -0.558 C  
HETATM   33  C   UNL     1     -13.215  15.709  71.640  1.00  0.00    -0.554 C  
HETATM   34  C   UNL     1     -13.354  14.248  71.198  1.00  0.00    -0.363 C  
HETATM   35  C   UNL     1     -12.641  14.042  69.858  1.00  0.00    -0.195 C  
HETATM   36  C   UNL     1     -12.856  13.266  72.266  1.00  0.00    -0.259 C  
HETATM   37  C   UNL     1     -11.165  14.428  69.919  1.00  0.00    -0.226 C  
ENDBRANCH  29  31
ENDBRANCH  27  29
ENDBRANCH  25  27
ENDBRANCH  22  25
ENDBRANCH  19  22
ENDBRANCH  15  16
ENDBRANCH  14  15
ENDBRANCH  12  14
ENDBRANCH  10  12
ENDBRANCH   7  10
ENDBRANCH   2   3
TORSDOF 11
ENDMDL
MODEL       79
REMARK 921   NORMALIZED FREE ENERGY PREDICTED BY IDOCK:   -5.92 KCAL/MOL
REMARK 922        TOTAL FREE ENERGY PREDICTED BY IDOCK:  -12.04 KCAL/MOL
REMARK 923 INTER-LIGAND FREE ENERGY PREDICTED BY IDOCK:   -9.79 KCAL/MOL
REMARK 924 INTRA-LIGAND FREE ENERGY PREDICTED BY IDOCK:   -2.24 KCAL/MOL
REMARK 927      BINDING AFFINITY PREDICTED BY RF-SCORE:    0.00 PKD
ROOT
HETATM    1  C   UNL     1      -6.535  10.978  70.296  1.00  0.00    -0.076 C  
HETATM    2  C   UNL     1      -7.653  10.866  69.270  1.00  0.00    -0.113 C  
ENDROOT
BRANCH   2   3
HETATM    3  C   UNL     1      -8.141   9.467  69.139  1.00  0.00    -0.103 C  
HETATM    4  C   UNL     1      -9.227   8.856  69.636  1.00  0.00    -0.152 C  
HETATM    5  C   UNL     1      -9.302   7.418  69.237  1.00  0.00    -0.154 C  
HETATM    6  C   UNL     1     -10.315   9.461  70.452  1.00  0.00    -0.318 C  
HETATM    7  N   UNL     1      -8.165   7.286  68.366  1.00  0.00    -0.124 N  
HETATM    8  O   UNL     1      -6.344   8.649  67.789  1.00  0.00    -0.055 OA 
HETATM    9  C   UNL     1      -7.415   8.455  68.343  1.00  0.00    -0.095 C  
BRANCH   7  10
HETATM   10  C   UNL     1      -8.043   6.190  67.532  1.00  0.00    -0.109 C  
HETATM   11  O   UNL     1      -8.199   5.038  67.931  1.00  0.00    -0.097 OA 
BRANCH  10  12
HETATM   12  N   UNL     1      -7.776   6.488  66.220  1.00  0.00    -0.093 N  
HETATM   13  H   UNL     1      -6.860   6.244  65.843  1.00  0.00     0.000 HD 
BRANCH  12  14
HETATM   14  C   UNL     1      -8.734   7.134  65.345  1.00  0.00     0.037 C  
BRANCH  14  15
HETATM   15  C   UNL     1      -8.213   8.452  64.747  1.00  0.00    -0.162 C  
BRANCH  15  16
HETATM   16  C   UNL     1      -9.171   9.624  64.877  1.00  0.00    -0.306 A  
HETATM   17  C   UNL     1      -9.429  10.485  63.799  1.00  0.00    -0.342 A  
HETATM   18  C   UNL     1     -10.267  11.591  63.947  1.00  0.00    -0.411 A  
HETATM   19  C   UNL     1     -10.920  11.822  65.158  1.00  0.00    -0.294 A  
HETATM   20  C   UNL     1     -10.714  10.951  66.232  1.00  0.00    -0.241 A  
HETATM   21  C   UNL     1      -9.849   9.856  66.087  1.00  0.00    -0.324 A  
BRANCH  19  22
HETATM   22  S   UNL     1     -11.872  13.314  65.369  1.00  0.00    -0.384 S  
HETATM   23  O   UNL     1     -13.095  13.153  64.609  1.00  0.00    -0.699 OA 
HETATM   24  O   UNL     1     -11.929  13.636  66.778  1.00  0.00    -0.383 OA 
BRANCH  22  25
HETATM   25  N   UNL     1     -11.012  14.498  64.559  1.00  0.00    -0.608 N  
HETATM   26  H   UNL     1     -10.339  14.206  63.849  1.00  0.00     0.000 HD 
BRANCH  25  27
HETATM   27  C   UNL     1     -11.164  15.849  64.798  1.00  0.00    -0.355 C  
HETATM   28  O   UNL     1     -11.640  16.615  63.975  1.00  0.00    -1.197 OA 
BRANCH  27  29
HETATM   29  N   UNL     1     -10.742  16.269  66.038  1.00  0.00    -0.262 N  
HETATM   30  H   UNL     1     -11.137  15.867  66.888  1.00  0.00     0.000 HD 
BRANCH  29  31
HETATM   31  C   UNL     1      -9.714  17.305  66.108  1.00  0.00    -0.224 C  
HETATM   32  C   UNL     1     -10.290  18.711  66.314  1.00  0.00    -0.483 C  
HETATM   33  C   UNL     1     -10.568  19.086  67.769  1.00  0.00    -0.488 C  
HETATM   34  C   UNL     1      -9.408  18.761  68.716  1.00  0.00    -0.357 C  
HETATM   35  C   UNL     1      -9.012  17.289  68.564  1.00  0.00    -0.273 C  
HETATM   36  C   UNL     1      -8.211  19.698  68.514  1.00  0.00    -0.332 C  
HETATM   37  C   UNL     1      -8.626  16.936  67.129  1.00  0.00    -0.217 C  
ENDBRANCH  29  31
ENDBRANCH  27  29
ENDBRANCH  25  27
ENDBRANCH  22  25
ENDBRANCH  19  22
ENDBRANCH  15  16
ENDBRANCH  14  15
ENDBRANCH  12  14
ENDBRANCH  10  12
ENDBRANCH   7  10
ENDBRANCH   2   3
TORSDOF 11
ENDMDL
MODEL       80
REMARK 921   NORMALIZED FREE ENERGY PREDICTED BY IDOCK:   -5.92 KCAL/MOL
REMARK 922        TOTAL FREE ENERGY PREDICTED BY IDOCK:  -12.03 KCAL/MOL
REMARK 923 INTER-LIGAND FREE ENERGY PREDICTED BY IDOCK:   -9.97 KCAL/MOL
REMARK 924 INTRA-LIGAND FREE ENERGY PREDICTED BY IDOCK:   -2.06 KCAL/MOL
REMARK 927      BINDING AFFINITY PREDICTED BY RF-SCORE:    0.00 PKD
ROOT
HETATM    1  C   UNL     1     -10.307   7.856  67.190  1.00  0.00    -0.398 C  
HETATM    2  C   UNL     1     -11.024   6.518  67.299  1.00  0.00    -0.475 C  
ENDROOT
BRANCH   2   3
HETATM    3  C   UNL     1     -10.423   5.656  68.351  1.00  0.00    -0.263 C  
HETATM    4  C   UNL     1      -9.416   4.772  68.304  1.00  0.00    -0.191 C  
HETATM    5  C   UNL     1      -9.164   4.128  69.629  1.00  0.00    -0.141 C  
HETATM    6  C   UNL     1      -8.554   4.438  67.137  1.00  0.00    -0.104 C  
HETATM    7  N   UNL     1     -10.095   4.815  70.482  1.00  0.00    -0.235 N  
HETATM    8  O   UNL     1     -11.859   6.326  70.143  1.00  0.00    -0.349 OA 
HETATM    9  C   UNL     1     -10.907   5.672  69.748  1.00  0.00    -0.300 C  
BRANCH   7  10
HETATM   10  C   UNL     1      -9.974   4.742  71.858  1.00  0.00    -0.190 C  
HETATM   11  O   UNL     1      -9.026   4.186  72.407  1.00  0.00    -0.108 OA 
BRANCH  10  12
HETATM   12  N   UNL     1     -10.970   5.372  72.560  1.00  0.00    -0.248 N  
HETATM   13  H   UNL     1     -11.936   5.094  72.389  1.00  0.00     0.000 HD 
BRANCH  12  14
HETATM   14  C   UNL     1     -10.713   6.415  73.533  1.00  0.00    -0.244 C  
BRANCH  14  15
HETATM   15  C   UNL     1      -9.582   7.369  73.112  1.00  0.00    -0.259 C  
BRANCH  15  16
HETATM   16  C   UNL     1      -9.973   8.375  72.043  1.00  0.00    -0.354 A  
HETATM   17  C   UNL     1      -9.074   8.770  71.041  1.00  0.00    -0.272 A  
HETATM   18  C   UNL     1      -9.426   9.738  70.099  1.00  0.00    -0.277 A  
HETATM   19  C   UNL     1     -10.711  10.281  70.096  1.00  0.00    -0.278 A  
HETATM   20  C   UNL     1     -11.639   9.869  71.056  1.00  0.00    -0.470 A  
HETATM   21  C   UNL     1     -11.271   8.916  72.018  1.00  0.00    -0.422 A  
BRANCH  19  22
HETATM   22  S   UNL     1     -11.094  11.614  68.975  1.00  0.00    -0.248 S  
HETATM   23  O   UNL     1      -9.849  12.029  68.361  1.00  0.00    -0.207 OA 
HETATM   24  O   UNL     1     -12.216  11.221  68.150  1.00  0.00    -0.622 OA 
BRANCH  22  25
HETATM   25  N   UNL     1     -11.542  12.893  69.955  1.00  0.00    -0.525 N  
HETATM   26  H   UNL     1     -11.695  12.710  70.947  1.00  0.00     0.000 HD 
BRANCH  25  27
HETATM   27  C   UNL     1     -11.714  14.183  69.494  1.00  0.00    -0.312 C  
HETATM   28  O   UNL     1     -12.684  14.864  69.787  1.00  0.00    -0.174 OA 
BRANCH  27  29
HETATM   29  N   UNL     1     -10.709  14.646  68.678  1.00  0.00    -0.242 N  
HETATM   30  H   UNL     1      -9.897  14.065  68.470  1.00  0.00     0.000 HD 
BRANCH  29  31
HETATM   31  C   UNL     1     -10.831  15.990  68.118  1.00  0.00    -0.322 C  
HETATM   32  C   UNL     1     -10.019  17.039  68.887  1.00  0.00    -0.285 C  
HETATM   33  C   UNL     1      -8.554  17.151  68.471  1.00  0.00    -0.258 C  
HETATM   34  C   UNL     1      -8.354  17.223  66.953  1.00  0.00    -0.253 C  
HETATM   35  C   UNL     1      -9.058  16.039  66.281  1.00  0.00    -0.379 C  
HETATM   36  C   UNL     1      -8.811  18.565  66.368  1.00  0.00    -0.267 C  
HETATM   37  C   UNL     1     -10.549  15.987  66.608  1.00  0.00    -0.297 C  
ENDBRANCH  29  31
ENDBRANCH  27  29
ENDBRANCH  25  27
ENDBRANCH  22  25
ENDBRANCH  19  22
ENDBRANCH  15  16
ENDBRANCH  14  15
ENDBRANCH  12  14
ENDBRANCH  10  12
ENDBRANCH   7  10
ENDBRANCH   2   3
TORSDOF 11
ENDMDL
MODEL       81
REMARK 921   NORMALIZED FREE ENERGY PREDICTED BY IDOCK:   -5.92 KCAL/MOL
REMARK 922        TOTAL FREE ENERGY PREDICTED BY IDOCK:  -12.03 KCAL/MOL
REMARK 923 INTER-LIGAND FREE ENERGY PREDICTED BY IDOCK:  -10.63 KCAL/MOL
REMARK 924 INTRA-LIGAND FREE ENERGY PREDICTED BY IDOCK:   -1.40 KCAL/MOL
REMARK 927      BINDING AFFINITY PREDICTED BY RF-SCORE:    0.00 PKD
ROOT
HETATM    1  C   UNL     1     -12.111   6.966  72.117  1.00  0.00    -0.278 C  
HETATM    2  C   UNL     1     -12.023   6.815  70.606  1.00  0.00    -0.418 C  
ENDROOT
BRANCH   2   3
HETATM    3  C   UNL     1     -10.612   6.781  70.137  1.00  0.00    -0.254 C  
HETATM    4  C   UNL     1      -9.668   5.832  70.232  1.00  0.00    -0.223 C  
HETATM    5  C   UNL     1      -8.376   6.253  69.610  1.00  0.00    -0.125 C  
HETATM    6  C   UNL     1      -9.805   4.471  70.818  1.00  0.00    -0.280 C  
HETATM    7  N   UNL     1      -8.710   7.538  69.058  1.00  0.00    -0.136 N  
HETATM    8  O   UNL     1     -10.557   8.979  69.195  1.00  0.00    -0.227 OA 
HETATM    9  C   UNL     1      -9.999   7.915  69.413  1.00  0.00    -0.189 C  
BRANCH   7  10
HETATM   10  C   UNL     1      -7.883   8.138  68.126  1.00  0.00    -0.122 C  
HETATM   11  O   UNL     1      -7.295   9.194  68.350  1.00  0.00    -0.076 OA 
BRANCH  10  12
HETATM   12  N   UNL     1      -7.736   7.446  66.951  1.00  0.00    -0.108 N  
HETATM   13  H   UNL     1      -6.919   6.845  66.841  1.00  0.00     0.000 HD 
BRANCH  12  14
HETATM   14  C   UNL     1      -8.686   7.528  65.861  1.00  0.00    -0.147 C  
BRANCH  14  15
HETATM   15  C   UNL     1      -8.292   8.564  64.793  1.00  0.00    -0.163 C  
BRANCH  15  16
HETATM   16  C   UNL     1      -9.239   9.747  64.683  1.00  0.00    -0.312 A  
HETATM   17  C   UNL     1      -9.415  10.438  63.475  1.00  0.00    -0.356 A  
HETATM   18  C   UNL     1     -10.244  11.558  63.401  1.00  0.00    -0.462 A  
HETATM   19  C   UNL     1     -10.971  11.970  64.518  1.00  0.00    -0.318 A  
HETATM   20  C   UNL     1     -10.848  11.269  65.721  1.00  0.00    -0.257 A  
HETATM   21  C   UNL     1      -9.991  10.160  65.797  1.00  0.00    -0.339 A  
BRANCH  19  22
HETATM   22  S   UNL     1     -11.913  13.482  64.441  1.00  0.00    -0.434 S  
HETATM   23  O   UNL     1     -12.438  13.590  63.095  1.00  0.00    -0.759 OA 
HETATM   24  O   UNL     1     -12.807  13.533  65.577  1.00  0.00    -0.549 OA 
BRANCH  22  25
HETATM   25  N   UNL     1     -10.781  14.707  64.564  1.00  0.00    -0.610 N  
HETATM   26  H   UNL     1      -9.793  14.459  64.514  1.00  0.00     0.000 HD 
BRANCH  25  27
HETATM   27  C   UNL     1     -11.113  16.037  64.729  1.00  0.00    -0.365 C  
HETATM   28  O   UNL     1     -11.587  16.715  63.830  1.00  0.00    -1.204 OA 
BRANCH  27  29
HETATM   29  N   UNL     1     -10.874  16.543  65.985  1.00  0.00    -0.146 N  
HETATM   30  H   UNL     1     -11.540  17.173  66.429  1.00  0.00     0.000 HD 
BRANCH  29  31
HETATM   31  C   UNL     1      -9.641  16.155  66.667  1.00  0.00    -0.244 C  
HETATM   32  C   UNL     1      -8.390  16.806  66.064  1.00  0.00    -0.187 C  
HETATM   33  C   UNL     1      -8.075  18.205  66.590  1.00  0.00    -0.283 C  
HETATM   34  C   UNL     1      -8.138  18.312  68.118  1.00  0.00    -0.297 C  
HETATM   35  C   UNL     1      -9.492  17.796  68.618  1.00  0.00    -0.283 C  
HETATM   36  C   UNL     1      -6.967  17.594  68.801  1.00  0.00    -0.245 C  
HETATM   37  C   UNL     1      -9.762  16.357  68.185  1.00  0.00    -0.229 C  
ENDBRANCH  29  31
ENDBRANCH  27  29
ENDBRANCH  25  27
ENDBRANCH  22  25
ENDBRANCH  19  22
ENDBRANCH  15  16
ENDBRANCH  14  15
ENDBRANCH  12  14
ENDBRANCH  10  12
ENDBRANCH   7  10
ENDBRANCH   2   3
TORSDOF 11
ENDMDL
MODEL       82
REMARK 921   NORMALIZED FREE ENERGY PREDICTED BY IDOCK:   -5.88 KCAL/MOL
REMARK 922        TOTAL FREE ENERGY PREDICTED BY IDOCK:  -11.97 KCAL/MOL
REMARK 923 INTER-LIGAND FREE ENERGY PREDICTED BY IDOCK:  -10.58 KCAL/MOL
REMARK 924 INTRA-LIGAND FREE ENERGY PREDICTED BY IDOCK:   -1.39 KCAL/MOL
REMARK 927      BINDING AFFINITY PREDICTED BY RF-SCORE:    0.00 PKD
ROOT
HETATM    1  C   UNL     1      -9.620   5.657  74.564  1.00  0.00    -0.181 C  
HETATM    2  C   UNL     1     -10.676   5.639  73.468  1.00  0.00    -0.311 C  
ENDROOT
BRANCH   2   3
HETATM    3  C   UNL     1     -10.106   5.214  72.162  1.00  0.00    -0.247 C  
HETATM    4  C   UNL     1      -9.902   3.996  71.638  1.00  0.00    -0.253 C  
HETATM    5  C   UNL     1      -9.289   4.060  70.276  1.00  0.00    -0.163 C  
HETATM    6  C   UNL     1     -10.257   2.680  72.235  1.00  0.00    -0.195 C  
HETATM    7  N   UNL     1      -9.242   5.475  70.031  1.00  0.00    -0.137 N  
HETATM    8  O   UNL     1      -9.633   7.400  71.316  1.00  0.00    -0.162 OA 
HETATM    9  C   UNL     1      -9.647   6.191  71.152  1.00  0.00    -0.175 C  
BRANCH   7  10
HETATM   10  C   UNL     1      -9.030   5.961  68.754  1.00  0.00    -0.117 C  
HETATM   11  O   UNL     1      -8.176   5.492  68.004  1.00  0.00    -0.100 OA 
BRANCH  10  12
HETATM   12  N   UNL     1      -9.870   6.975  68.373  1.00  0.00    -0.143 N  
HETATM   13  H   UNL     1     -10.373   7.488  69.098  1.00  0.00     0.000 HD 
BRANCH  12  14
HETATM   14  C   UNL     1     -10.079   7.353  66.990  1.00  0.00    -0.258 C  
BRANCH  14  15
HETATM   15  C   UNL     1      -9.186   8.523  66.541  1.00  0.00    -0.239 C  
BRANCH  15  16
HETATM   16  C   UNL     1      -9.944   9.726  66.007  1.00  0.00    -0.342 A  
HETATM   17  C   UNL     1      -9.859  10.109  64.660  1.00  0.00    -0.361 A  
HETATM   18  C   UNL     1     -10.515  11.250  64.194  1.00  0.00    -0.431 A  
HETATM   19  C   UNL     1     -11.327  11.993  65.051  1.00  0.00    -0.310 A  
HETATM   20  C   UNL     1     -11.464  11.604  66.386  1.00  0.00    -0.238 A  
HETATM   21  C   UNL     1     -10.780  10.472  66.856  1.00  0.00    -0.281 A  
BRANCH  19  22
HETATM   22  S   UNL     1     -12.041  13.521  64.473  1.00  0.00    -0.418 S  
HETATM   23  O   UNL     1     -12.394  13.329  63.081  1.00  0.00    -0.682 OA 
HETATM   24  O   UNL     1     -13.040  13.958  65.423  1.00  0.00    -0.752 OA 
BRANCH  22  25
HETATM   25  N   UNL     1     -10.774  14.613  64.451  1.00  0.00    -0.558 N  
HETATM   26  H   UNL     1      -9.895  14.325  64.022  1.00  0.00     0.000 HD 
BRANCH  25  27
HETATM   27  C   UNL     1     -10.856  15.885  64.983  1.00  0.00    -0.426 C  
HETATM   28  O   UNL     1     -11.382  16.815  64.390  1.00  0.00    -1.089 OA 
BRANCH  27  29
HETATM   29  N   UNL     1     -10.302  16.027  66.233  1.00  0.00    -0.308 N  
HETATM   30  H   UNL     1      -9.291  16.018  66.360  1.00  0.00     0.000 HD 
BRANCH  29  31
HETATM   31  C   UNL     1     -11.199  16.191  67.376  1.00  0.00    -0.048 C  
HETATM   32  C   UNL     1     -11.602  14.859  68.020  1.00  0.00    -0.363 C  
HETATM   33  C   UNL     1     -10.614  14.317  69.051  1.00  0.00    -0.243 C  
HETATM   34  C   UNL     1     -10.155  15.368  70.068  1.00  0.00    -0.224 C  
HETATM   35  C   UNL     1      -9.609  16.596  69.333  1.00  0.00    -0.057 C  
HETATM   36  C   UNL     1     -11.264  15.742  71.060  1.00  0.00    -0.396 C  
HETATM   37  C   UNL     1     -10.634  17.207  68.380  1.00  0.00    -0.371 C  
ENDBRANCH  29  31
ENDBRANCH  27  29
ENDBRANCH  25  27
ENDBRANCH  22  25
ENDBRANCH  19  22
ENDBRANCH  15  16
ENDBRANCH  14  15
ENDBRANCH  12  14
ENDBRANCH  10  12
ENDBRANCH   7  10
ENDBRANCH   2   3
TORSDOF 11
ENDMDL
MODEL       83
REMARK 921   NORMALIZED FREE ENERGY PREDICTED BY IDOCK:   -5.88 KCAL/MOL
REMARK 922        TOTAL FREE ENERGY PREDICTED BY IDOCK:  -11.97 KCAL/MOL
REMARK 923 INTER-LIGAND FREE ENERGY PREDICTED BY IDOCK:   -9.56 KCAL/MOL
REMARK 924 INTRA-LIGAND FREE ENERGY PREDICTED BY IDOCK:   -2.41 KCAL/MOL
REMARK 927      BINDING AFFINITY PREDICTED BY RF-SCORE:    0.00 PKD
ROOT
HETATM    1  C   UNL     1     -10.485  18.805  66.673  1.00  0.00    -0.483 C  
HETATM    2  C   UNL     1      -9.637  17.592  67.027  1.00  0.00    -0.276 C  
ENDROOT
BRANCH   2   3
HETATM    3  C   UNL     1     -10.476  16.394  67.293  1.00  0.00    -0.303 C  
HETATM    4  C   UNL     1     -10.898  15.409  66.486  1.00  0.00    -0.298 C  
HETATM    5  C   UNL     1     -11.737  14.405  67.208  1.00  0.00    -0.404 C  
HETATM    6  C   UNL     1     -10.581  15.218  65.045  1.00  0.00    -0.444 C  
HETATM    7  N   UNL     1     -11.680  14.879  68.563  1.00  0.00    -0.316 N  
HETATM    8  O   UNL     1     -10.862  16.810  69.617  1.00  0.00    -0.333 OA 
HETATM    9  C   UNL     1     -11.005  16.092  68.640  1.00  0.00    -0.323 C  
BRANCH   7  10
HETATM   10  C   UNL     1     -12.068  14.063  69.610  1.00  0.00    -0.355 C  
HETATM   11  O   UNL     1     -12.939  14.392  70.413  1.00  0.00    -0.320 OA 
BRANCH  10  12
HETATM   12  N   UNL     1     -11.439  12.846  69.660  1.00  0.00    -0.462 N  
HETATM   13  H   UNL     1     -10.428  12.827  69.798  1.00  0.00     0.000 HD 
BRANCH  12  14
HETATM   14  C   UNL     1     -12.141  11.586  69.526  1.00  0.00    -0.284 C  
BRANCH  14  15
HETATM   15  C   UNL     1     -12.513  10.955  70.879  1.00  0.00    -0.507 C  
BRANCH  15  16
HETATM   16  C   UNL     1     -11.903   9.585  71.125  1.00  0.00    -0.436 A  
HETATM   17  C   UNL     1     -10.514   9.389  71.125  1.00  0.00    -0.392 A  
HETATM   18  C   UNL     1      -9.967   8.116  71.295  1.00  0.00    -0.225 A  
HETATM   19  C   UNL     1     -10.797   7.022  71.538  1.00  0.00    -0.230 A  
HETATM   20  C   UNL     1     -12.182   7.200  71.589  1.00  0.00    -0.385 A  
HETATM   21  C   UNL     1     -12.728   8.478  71.390  1.00  0.00    -0.294 A  
BRANCH  19  22
HETATM   22  S   UNL     1     -10.089   5.387  71.612  1.00  0.00    -0.209 S  
HETATM   23  O   UNL     1      -8.654   5.546  71.733  1.00  0.00    -0.132 OA 
HETATM   24  O   UNL     1     -10.819   4.607  72.588  1.00  0.00    -0.202 OA 
BRANCH  22  25
HETATM   25  N   UNL     1     -10.326   4.740  70.088  1.00  0.00    -0.197 N  
HETATM   26  H   UNL     1     -11.252   4.381  69.854  1.00  0.00     0.000 HD 
BRANCH  25  27
HETATM   27  C   UNL     1      -9.335   4.667  69.129  1.00  0.00    -0.142 C  
HETATM   28  O   UNL     1      -9.016   3.618  68.590  1.00  0.00    -0.105 OA 
BRANCH  27  29
HETATM   29  N   UNL     1      -8.735   5.865  68.823  1.00  0.00    -0.110 N  
HETATM   30  H   UNL     1      -8.184   6.366  69.520  1.00  0.00     0.000 HD 
BRANCH  29  31
HETATM   31  C   UNL     1      -8.906   6.404  67.476  1.00  0.00    -0.111 C  
HETATM   32  C   UNL     1     -10.371   6.685  67.121  1.00  0.00    -0.319 C  
HETATM   33  C   UNL     1     -10.896   8.044  67.580  1.00  0.00    -0.132 C  
HETATM   34  C   UNL     1      -9.957   9.207  67.241  1.00  0.00    -0.270 C  
HETATM   35  C   UNL     1      -8.554   8.915  67.784  1.00  0.00    -0.125 C  
HETATM   36  C   UNL     1      -9.934   9.520  65.740  1.00  0.00    -0.316 C  
HETATM   37  C   UNL     1      -7.980   7.608  67.240  1.00  0.00    -0.118 C  
ENDBRANCH  29  31
ENDBRANCH  27  29
ENDBRANCH  25  27
ENDBRANCH  22  25
ENDBRANCH  19  22
ENDBRANCH  15  16
ENDBRANCH  14  15
ENDBRANCH  12  14
ENDBRANCH  10  12
ENDBRANCH   7  10
ENDBRANCH   2   3
TORSDOF 11
ENDMDL
MODEL       84
REMARK 921   NORMALIZED FREE ENERGY PREDICTED BY IDOCK:   -5.88 KCAL/MOL
REMARK 922        TOTAL FREE ENERGY PREDICTED BY IDOCK:  -11.96 KCAL/MOL
REMARK 923 INTER-LIGAND FREE ENERGY PREDICTED BY IDOCK:   -9.27 KCAL/MOL
REMARK 924 INTRA-LIGAND FREE ENERGY PREDICTED BY IDOCK:   -2.69 KCAL/MOL
REMARK 927      BINDING AFFINITY PREDICTED BY RF-SCORE:    0.00 PKD
ROOT
HETATM    1  C   UNL     1     -10.204  14.281  65.344  1.00  0.00    -0.395 C  
HETATM    2  C   UNL     1     -10.682  15.720  65.472  1.00  0.00    -0.397 C  
ENDROOT
BRANCH   2   3
HETATM    3  C   UNL     1     -10.116  16.383  66.676  1.00  0.00    -0.290 C  
HETATM    4  C   UNL     1     -10.532  16.410  67.951  1.00  0.00    -0.307 C  
HETATM    5  C   UNL     1      -9.631  17.223  68.824  1.00  0.00    -0.269 C  
HETATM    6  C   UNL     1     -11.704  15.707  68.540  1.00  0.00    -0.339 C  
HETATM    7  N   UNL     1      -8.583  17.596  67.914  1.00  0.00    -0.233 N  
HETATM    8  O   UNL     1      -8.248  17.416  65.598  1.00  0.00    -0.491 OA 
HETATM    9  C   UNL     1      -8.873  17.180  66.620  1.00  0.00    -0.252 C  
BRANCH   7  10
HETATM   10  C   UNL     1      -7.384  18.096  68.390  1.00  0.00    -0.270 C  
HETATM   11  O   UNL     1      -7.297  19.195  68.933  1.00  0.00    -0.327 OA 
BRANCH  10  12
HETATM   12  N   UNL     1      -6.310  17.255  68.247  1.00  0.00    -0.158 N  
HETATM   13  H   UNL     1      -5.542  17.547  67.642  1.00  0.00     0.000 HD 
BRANCH  12  14
HETATM   14  C   UNL     1      -6.214  15.973  68.915  1.00  0.00    -0.126 C  
BRANCH  14  15
HETATM   15  C   UNL     1      -5.867  14.818  67.959  1.00  0.00    -0.155 C  
BRANCH  15  16
HETATM   16  C   UNL     1      -6.907  13.711  67.905  1.00  0.00    -0.155 A  
HETATM   17  C   UNL     1      -6.617  12.457  67.348  1.00  0.00    -0.157 A  
HETATM   18  C   UNL     1      -7.597  11.468  67.253  1.00  0.00    -0.143 A  
HETATM   19  C   UNL     1      -8.871  11.689  67.776  1.00  0.00    -0.159 A  
HETATM   20  C   UNL     1      -9.170  12.914  68.377  1.00  0.00    -0.137 A  
HETATM   21  C   UNL     1      -8.189  13.915  68.446  1.00  0.00    -0.153 A  
BRANCH  19  22
HETATM   22  S   UNL     1     -10.146  10.469  67.519  1.00  0.00    -0.199 S  
HETATM   23  O   UNL     1     -10.456  10.465  66.104  1.00  0.00    -0.225 OA 
HETATM   24  O   UNL     1      -9.758   9.243  68.182  1.00  0.00    -0.145 OA 
BRANCH  22  25
HETATM   25  N   UNL     1     -11.507  11.098  68.259  1.00  0.00    -0.292 N  
HETATM   26  H   UNL     1     -12.183  11.600  67.682  1.00  0.00     0.000 HD 
BRANCH  25  27
HETATM   27  C   UNL     1     -11.766  10.975  69.610  1.00  0.00    -0.329 C  
HETATM   28  O   UNL     1     -11.864  11.939  70.353  1.00  0.00    -0.332 OA 
BRANCH  27  29
HETATM   29  N   UNL     1     -11.907   9.683  70.058  1.00  0.00    -0.457 N  
HETATM   30  H   UNL     1     -12.196   8.939  69.423  1.00  0.00     0.000 HD 
BRANCH  29  31
HETATM   31  C   UNL     1     -11.634   9.400  71.465  1.00  0.00    -0.397 C  
HETATM   32  C   UNL     1     -12.641   8.427  72.090  1.00  0.00    -0.412 C  
HETATM   33  C   UNL     1     -12.324   6.948  71.877  1.00  0.00    -0.364 C  
HETATM   34  C   UNL     1     -10.865   6.587  72.177  1.00  0.00    -0.264 C  
HETATM   35  C   UNL     1      -9.930   7.500  71.377  1.00  0.00    -0.200 C  
HETATM   36  C   UNL     1     -10.552   6.624  73.678  1.00  0.00    -0.323 C  
HETATM   37  C   UNL     1     -10.171   8.979  71.670  1.00  0.00    -0.418 C  
ENDBRANCH  29  31
ENDBRANCH  27  29
ENDBRANCH  25  27
ENDBRANCH  22  25
ENDBRANCH  19  22
ENDBRANCH  15  16
ENDBRANCH  14  15
ENDBRANCH  12  14
ENDBRANCH  10  12
ENDBRANCH   7  10
ENDBRANCH   2   3
TORSDOF 11
ENDMDL
MODEL       85
REMARK 921   NORMALIZED FREE ENERGY PREDICTED BY IDOCK:   -5.86 KCAL/MOL
REMARK 922        TOTAL FREE ENERGY PREDICTED BY IDOCK:  -11.93 KCAL/MOL
REMARK 923 INTER-LIGAND FREE ENERGY PREDICTED BY IDOCK:  -10.23 KCAL/MOL
REMARK 924 INTRA-LIGAND FREE ENERGY PREDICTED BY IDOCK:   -1.70 KCAL/MOL
REMARK 927      BINDING AFFINITY PREDICTED BY RF-SCORE:    0.00 PKD
ROOT
HETATM    1  C   UNL     1     -12.123   9.864  71.558  1.00  0.00    -0.496 C  
HETATM    2  C   UNL     1     -11.658   8.564  72.196  1.00  0.00    -0.447 C  
ENDROOT
BRANCH   2   3
HETATM    3  C   UNL     1     -10.679   7.848  71.335  1.00  0.00    -0.258 C  
HETATM    4  C   UNL     1      -9.338   7.858  71.320  1.00  0.00    -0.172 C  
HETATM    5  C   UNL     1      -8.776   6.970  70.257  1.00  0.00    -0.144 C  
HETATM    6  C   UNL     1      -8.424   8.587  72.241  1.00  0.00    -0.216 C  
HETATM    7  N   UNL     1      -9.961   6.369  69.707  1.00  0.00    -0.164 N  
HETATM    8  O   UNL     1     -12.269   6.706  69.962  1.00  0.00    -0.193 OA 
HETATM    9  C   UNL     1     -11.107   6.918  70.270  1.00  0.00    -0.297 C  
BRANCH   7  10
HETATM   10  C   UNL     1      -9.871   5.246  68.904  1.00  0.00    -0.164 C  
HETATM   11  O   UNL     1      -9.890   4.106  69.362  1.00  0.00    -0.197 OA 
BRANCH  10  12
HETATM   12  N   UNL     1      -9.802   5.501  67.558  1.00  0.00    -0.135 N  
HETATM   13  H   UNL     1      -9.288   4.849  66.966  1.00  0.00     0.000 HD 
BRANCH  12  14
HETATM   14  C   UNL     1     -10.425   6.654  66.939  1.00  0.00    -0.279 C  
BRANCH  14  15
HETATM   15  C   UNL     1      -9.408   7.705  66.460  1.00  0.00    -0.241 C  
BRANCH  15  16
HETATM   16  C   UNL     1      -9.953   9.121  66.389  1.00  0.00    -0.358 A  
HETATM   17  C   UNL     1      -9.799   9.911  65.239  1.00  0.00    -0.373 A  
HETATM   18  C   UNL     1     -10.254  11.230  65.207  1.00  0.00    -0.328 A  
HETATM   19  C   UNL     1     -10.935  11.766  66.299  1.00  0.00    -0.300 A  
HETATM   20  C   UNL     1     -11.142  10.983  67.439  1.00  0.00    -0.370 A  
HETATM   21  C   UNL     1     -10.658   9.666  67.477  1.00  0.00    -0.339 A  
BRANCH  19  22
HETATM   22  S   UNL     1     -11.382  13.492  66.291  1.00  0.00    -0.318 S  
HETATM   23  O   UNL     1     -10.359  14.196  65.545  1.00  0.00    -0.316 OA 
HETATM   24  O   UNL     1     -12.773  13.611  65.909  1.00  0.00    -0.450 OA 
BRANCH  22  25
HETATM   25  N   UNL     1     -11.191  13.999  67.873  1.00  0.00    -0.262 N  
HETATM   26  H   UNL     1     -10.847  13.326  68.558  1.00  0.00     0.000 HD 
BRANCH  25  27
HETATM   27  C   UNL     1     -11.475  15.281  68.301  1.00  0.00    -0.347 C  
HETATM   28  O   UNL     1     -12.082  15.512  69.335  1.00  0.00    -0.336 OA 
BRANCH  27  29
HETATM   29  N   UNL     1     -11.017  16.282  67.477  1.00  0.00    -0.260 N  
HETATM   30  H   UNL     1     -11.191  16.251  66.473  1.00  0.00     0.000 HD 
BRANCH  29  31
HETATM   31  C   UNL     1     -10.277  17.392  68.074  1.00  0.00    -0.345 C  
HETATM   32  C   UNL     1      -8.757  17.248  67.929  1.00  0.00    -0.231 C  
HETATM   33  C   UNL     1      -8.185  17.762  66.609  1.00  0.00    -0.287 C  
HETATM   34  C   UNL     1      -8.704  19.150  66.218  1.00  0.00    -0.304 C  
HETATM   35  C   UNL     1     -10.236  19.152  66.225  1.00  0.00    -0.527 C  
HETATM   36  C   UNL     1      -8.128  20.259  67.108  1.00  0.00    -0.379 C  
HETATM   37  C   UNL     1     -10.812  18.744  67.579  1.00  0.00    -0.396 C  
ENDBRANCH  29  31
ENDBRANCH  27  29
ENDBRANCH  25  27
ENDBRANCH  22  25
ENDBRANCH  19  22
ENDBRANCH  15  16
ENDBRANCH  14  15
ENDBRANCH  12  14
ENDBRANCH  10  12
ENDBRANCH   7  10
ENDBRANCH   2   3
TORSDOF 11
ENDMDL
MODEL       86
REMARK 921   NORMALIZED FREE ENERGY PREDICTED BY IDOCK:   -5.85 KCAL/MOL
REMARK 922        TOTAL FREE ENERGY PREDICTED BY IDOCK:  -11.92 KCAL/MOL
REMARK 923 INTER-LIGAND FREE ENERGY PREDICTED BY IDOCK:   -9.87 KCAL/MOL
REMARK 924 INTRA-LIGAND FREE ENERGY PREDICTED BY IDOCK:   -2.05 KCAL/MOL
REMARK 927      BINDING AFFINITY PREDICTED BY RF-SCORE:    0.00 PKD
ROOT
HETATM    1  C   UNL     1     -10.342   8.014  66.908  1.00  0.00    -0.408 C  
HETATM    2  C   UNL     1     -11.161   6.746  67.102  1.00  0.00    -0.404 C  
ENDROOT
BRANCH   2   3
HETATM    3  C   UNL     1     -10.505   5.808  68.050  1.00  0.00    -0.286 C  
HETATM    4  C   UNL     1      -9.514   4.920  67.878  1.00  0.00    -0.172 C  
HETATM    5  C   UNL     1      -9.186   4.184  69.136  1.00  0.00    -0.147 C  
HETATM    6  C   UNL     1      -8.734   4.660  66.637  1.00  0.00    -0.111 C  
HETATM    7  N   UNL     1     -10.052   4.818  70.093  1.00  0.00    -0.252 N  
HETATM    8  O   UNL     1     -11.813   6.365  69.974  1.00  0.00    -0.404 OA 
HETATM    9  C   UNL     1     -10.897   5.731  69.474  1.00  0.00    -0.340 C  
BRANCH   7  10
HETATM   10  C   UNL     1      -9.844   4.649  71.450  1.00  0.00    -0.194 C  
HETATM   11  O   UNL     1      -8.786   4.219  71.905  1.00  0.00    -0.108 OA 
BRANCH  10  12
HETATM   12  N   UNL     1     -10.889   5.037  72.248  1.00  0.00    -0.180 N  
HETATM   13  H   UNL     1     -11.831   5.024  71.856  1.00  0.00     0.000 HD 
BRANCH  12  14
HETATM   14  C   UNL     1     -10.719   5.463  73.623  1.00  0.00    -0.293 C  
BRANCH  14  15
HETATM   15  C   UNL     1      -9.960   6.794  73.753  1.00  0.00    -0.318 C  
BRANCH  15  16
HETATM   16  C   UNL     1     -10.345   7.843  72.723  1.00  0.00    -0.399 A  
HETATM   17  C   UNL     1      -9.430   8.303  71.766  1.00  0.00    -0.274 A  
HETATM   18  C   UNL     1      -9.779   9.308  70.861  1.00  0.00    -0.346 A  
HETATM   19  C   UNL     1     -11.074   9.825  70.851  1.00  0.00    -0.357 A  
HETATM   20  C   UNL     1     -12.018   9.348  71.766  1.00  0.00    -0.452 A  
HETATM   21  C   UNL     1     -11.653   8.358  72.691  1.00  0.00    -0.367 A  
BRANCH  19  22
HETATM   22  S   UNL     1     -11.458  11.202  69.786  1.00  0.00    -0.319 S  
HETATM   23  O   UNL     1     -12.194  10.676  68.654  1.00  0.00    -0.386 OA 
HETATM   24  O   UNL     1     -12.020  12.268  70.586  1.00  0.00    -0.318 OA 
BRANCH  22  25
HETATM   25  N   UNL     1      -9.987  11.690  69.157  1.00  0.00    -0.418 N  
HETATM   26  H   UNL     1      -9.171  11.676  69.769  1.00  0.00     0.000 HD 
BRANCH  25  27
HETATM   27  C   UNL     1      -9.818  12.110  67.852  1.00  0.00    -0.199 C  
HETATM   28  O   UNL     1      -9.333  11.396  66.988  1.00  0.00    -0.170 OA 
BRANCH  27  29
HETATM   29  N   UNL     1     -10.240  13.394  67.597  1.00  0.00    -0.226 N  
HETATM   30  H   UNL     1     -11.204  13.582  67.325  1.00  0.00     0.000 HD 
BRANCH  29  31
HETATM   31  C   UNL     1      -9.272  14.481  67.725  1.00  0.00    -0.194 C  
HETATM   32  C   UNL     1      -9.103  15.291  66.434  1.00  0.00    -0.347 C  
HETATM   33  C   UNL     1     -10.124  16.410  66.237  1.00  0.00    -0.346 C  
HETATM   34  C   UNL     1     -10.319  17.285  67.480  1.00  0.00    -0.346 C  
HETATM   35  C   UNL     1     -10.653  16.402  68.687  1.00  0.00    -0.305 C  
HETATM   36  C   UNL     1      -9.111  18.189  67.752  1.00  0.00    -0.265 C  
HETATM   37  C   UNL     1      -9.578  15.351  68.954  1.00  0.00    -0.220 C  
ENDBRANCH  29  31
ENDBRANCH  27  29
ENDBRANCH  25  27
ENDBRANCH  22  25
ENDBRANCH  19  22
ENDBRANCH  15  16
ENDBRANCH  14  15
ENDBRANCH  12  14
ENDBRANCH  10  12
ENDBRANCH   7  10
ENDBRANCH   2   3
TORSDOF 11
ENDMDL
MODEL       87
REMARK 921   NORMALIZED FREE ENERGY PREDICTED BY IDOCK:   -5.84 KCAL/MOL
REMARK 922        TOTAL FREE ENERGY PREDICTED BY IDOCK:  -11.91 KCAL/MOL
REMARK 923 INTER-LIGAND FREE ENERGY PREDICTED BY IDOCK:   -9.28 KCAL/MOL
REMARK 924 INTRA-LIGAND FREE ENERGY PREDICTED BY IDOCK:   -2.62 KCAL/MOL
REMARK 927      BINDING AFFINITY PREDICTED BY RF-SCORE:    0.00 PKD
ROOT
HETATM    1  C   UNL     1      -9.247   7.821  73.615  1.00  0.00    -0.344 C  
HETATM    2  C   UNL     1     -10.393   6.824  73.535  1.00  0.00    -0.342 C  
ENDROOT
BRANCH   2   3
HETATM    3  C   UNL     1     -10.593   6.325  72.148  1.00  0.00    -0.256 C  
HETATM    4  C   UNL     1     -11.423   6.723  71.173  1.00  0.00    -0.361 C  
HETATM    5  C   UNL     1     -11.270   5.907  69.930  1.00  0.00    -0.268 C  
HETATM    6  C   UNL     1     -12.380   7.861  71.204  1.00  0.00    -0.248 C  
HETATM    7  N   UNL     1     -10.179   5.035  70.272  1.00  0.00    -0.266 N  
HETATM    8  O   UNL     1      -8.982   4.558  72.233  1.00  0.00    -0.122 OA 
HETATM    9  C   UNL     1      -9.802   5.203  71.599  1.00  0.00    -0.173 C  
BRANCH   7  10
HETATM   10  C   UNL     1      -9.511   4.328  69.289  1.00  0.00    -0.184 C  
HETATM   11  O   UNL     1      -9.193   3.148  69.428  1.00  0.00    -0.124 OA 
BRANCH  10  12
HETATM   12  N   UNL     1      -9.267   5.028  68.136  1.00  0.00    -0.115 N  
HETATM   13  H   UNL     1     -10.042   5.186  67.491  1.00  0.00     0.000 HD 
BRANCH  12  14
HETATM   14  C   UNL     1      -7.962   5.553  67.789  1.00  0.00    -0.101 C  
BRANCH  14  15
HETATM   15  C   UNL     1      -7.460   6.623  68.775  1.00  0.00    -0.096 C  
BRANCH  15  16
HETATM   16  C   UNL     1      -8.383   7.820  68.929  1.00  0.00    -0.128 A  
HETATM   17  C   UNL     1      -8.365   8.618  70.082  1.00  0.00    -0.126 A  
HETATM   18  C   UNL     1      -9.257   9.680  70.236  1.00  0.00    -0.285 A  
HETATM   19  C   UNL     1     -10.141  10.010  69.208  1.00  0.00    -0.213 A  
HETATM   20  C   UNL     1     -10.145   9.258  68.030  1.00  0.00    -0.234 A  
HETATM   21  C   UNL     1      -9.265   8.174  67.892  1.00  0.00    -0.138 A  
BRANCH  19  22
HETATM   22  S   UNL     1     -11.364  11.279  69.479  1.00  0.00    -0.302 S  
HETATM   23  O   UNL     1     -12.341  11.166  68.415  1.00  0.00    -0.556 OA 
HETATM   24  O   UNL     1     -11.786  11.231  70.862  1.00  0.00    -0.280 OA 
BRANCH  22  25
HETATM   25  N   UNL     1     -10.569  12.721  69.187  1.00  0.00    -0.439 N  
HETATM   26  H   UNL     1      -9.549  12.713  69.155  1.00  0.00     0.000 HD 
BRANCH  25  27
HETATM   27  C   UNL     1     -11.220  13.922  68.986  1.00  0.00    -0.274 C  
HETATM   28  O   UNL     1     -11.064  14.887  69.719  1.00  0.00    -0.261 OA 
BRANCH  27  29
HETATM   29  N   UNL     1     -12.056  13.953  67.895  1.00  0.00    -0.470 N  
HETATM   30  H   UNL     1     -13.053  13.763  67.996  1.00  0.00     0.000 HD 
BRANCH  29  31
HETATM   31  C   UNL     1     -11.482  14.265  66.588  1.00  0.00    -0.364 C  
HETATM   32  C   UNL     1     -10.147  13.555  66.332  1.00  0.00    -0.294 C  
HETATM   33  C   UNL     1     -10.268  12.134  65.785  1.00  0.00    -0.282 C  
HETATM   34  C   UNL     1     -11.253  12.011  64.617  1.00  0.00    -0.380 C  
HETATM   35  C   UNL     1     -12.611  12.593  65.022  1.00  0.00    -0.504 C  
HETATM   36  C   UNL     1     -10.717  12.655  63.332  1.00  0.00    -0.220 C  
HETATM   37  C   UNL     1     -12.511  14.050  65.467  1.00  0.00    -0.533 C  
ENDBRANCH  29  31
ENDBRANCH  27  29
ENDBRANCH  25  27
ENDBRANCH  22  25
ENDBRANCH  19  22
ENDBRANCH  15  16
ENDBRANCH  14  15
ENDBRANCH  12  14
ENDBRANCH  10  12
ENDBRANCH   7  10
ENDBRANCH   2   3
TORSDOF 11
ENDMDL
MODEL       88
REMARK 921   NORMALIZED FREE ENERGY PREDICTED BY IDOCK:   -5.83 KCAL/MOL
REMARK 922        TOTAL FREE ENERGY PREDICTED BY IDOCK:  -11.89 KCAL/MOL
REMARK 923 INTER-LIGAND FREE ENERGY PREDICTED BY IDOCK:  -10.27 KCAL/MOL
REMARK 924 INTRA-LIGAND FREE ENERGY PREDICTED BY IDOCK:   -1.63 KCAL/MOL
REMARK 927      BINDING AFFINITY PREDICTED BY RF-SCORE:    0.00 PKD
ROOT
HETATM    1  C   UNL     1      -9.431  19.864  66.137  1.00  0.00    -0.466 C  
HETATM    2  C   UNL     1     -10.457  18.874  66.667  1.00  0.00    -0.496 C  
ENDROOT
BRANCH   2   3
HETATM    3  C   UNL     1     -10.061  17.468  66.384  1.00  0.00    -0.346 C  
HETATM    4  C   UNL     1      -9.225  16.636  67.022  1.00  0.00    -0.234 C  
HETATM    5  C   UNL     1      -9.137  15.300  66.358  1.00  0.00    -0.312 C  
HETATM    6  C   UNL     1      -8.468  16.896  68.277  1.00  0.00    -0.229 C  
HETATM    7  N   UNL     1     -10.100  15.425  65.298  1.00  0.00    -0.342 N  
HETATM    8  O   UNL     1     -11.369  17.184  64.401  1.00  0.00    -1.115 OA 
HETATM    9  C   UNL     1     -10.612  16.716  65.237  1.00  0.00    -0.205 C  
BRANCH   7  10
HETATM   10  C   UNL     1     -10.559  14.304  64.630  1.00  0.00    -0.340 C  
HETATM   11  O   UNL     1      -9.799  13.479  64.128  1.00  0.00    -0.087 OA 
BRANCH  10  12
HETATM   12  N   UNL     1     -11.923  14.163  64.607  1.00  0.00    -0.422 N  
HETATM   13  H   UNL     1     -12.438  14.553  63.818  1.00  0.00     0.000 HD 
BRANCH  12  14
HETATM   14  C   UNL     1     -12.666  13.485  65.650  1.00  0.00    -0.421 C  
BRANCH  14  15
HETATM   15  C   UNL     1     -12.198  13.861  67.066  1.00  0.00    -0.392 C  
BRANCH  15  16
HETATM   16  C   UNL     1     -11.897  12.675  67.966  1.00  0.00    -0.376 A  
HETATM   17  C   UNL     1     -11.364  11.482  67.455  1.00  0.00    -0.366 A  
HETATM   18  C   UNL     1     -11.145  10.380  68.283  1.00  0.00    -0.338 A  
HETATM   19  C   UNL     1     -11.390  10.470  69.653  1.00  0.00    -0.281 A  
HETATM   20  C   UNL     1     -11.878  11.663  70.193  1.00  0.00    -0.428 A  
HETATM   21  C   UNL     1     -12.123  12.760  69.352  1.00  0.00    -0.248 A  
BRANCH  19  22
HETATM   22  S   UNL     1     -11.238   9.011  70.667  1.00  0.00    -0.274 S  
HETATM   23  O   UNL     1     -10.352   9.343  71.764  1.00  0.00    -0.260 OA 
HETATM   24  O   UNL     1     -12.560   8.488  70.933  1.00  0.00    -0.124 OA 
BRANCH  22  25
HETATM   25  N   UNL     1     -10.381   7.919  69.734  1.00  0.00    -0.214 N  
HETATM   26  H   UNL     1      -9.427   8.159  69.463  1.00  0.00     0.000 HD 
BRANCH  25  27
HETATM   27  C   UNL     1     -10.896   6.710  69.310  1.00  0.00    -0.289 C  
HETATM   28  O   UNL     1     -11.099   6.456  68.133  1.00  0.00    -0.311 OA 
BRANCH  27  29
HETATM   29  N   UNL     1     -11.162   5.809  70.315  1.00  0.00    -0.249 N  
HETATM   30  H   UNL     1     -12.061   5.331  70.363  1.00  0.00     0.000 HD 
BRANCH  29  31
HETATM   31  C   UNL     1     -10.124   5.554  71.312  1.00  0.00    -0.207 C  
HETATM   32  C   UNL     1     -10.674   4.958  72.613  1.00  0.00    -0.274 C  
HETATM   33  C   UNL     1     -10.843   3.440  72.605  1.00  0.00     0.025 C  
HETATM   34  C   UNL     1      -9.619   2.692  72.066  1.00  0.00    -0.205 C  
HETATM   35  C   UNL     1      -9.245   3.240  70.685  1.00  0.00    -0.207 C  
HETATM   36  C   UNL     1      -8.434   2.736  73.038  1.00  0.00    -0.071 C  
HETATM   37  C   UNL     1      -8.968   4.741  70.710  1.00  0.00    -0.163 C  
ENDBRANCH  29  31
ENDBRANCH  27  29
ENDBRANCH  25  27
ENDBRANCH  22  25
ENDBRANCH  19  22
ENDBRANCH  15  16
ENDBRANCH  14  15
ENDBRANCH  12  14
ENDBRANCH  10  12
ENDBRANCH   7  10
ENDBRANCH   2   3
TORSDOF 11
ENDMDL
MODEL       89
REMARK 921   NORMALIZED FREE ENERGY PREDICTED BY IDOCK:   -5.81 KCAL/MOL
REMARK 922        TOTAL FREE ENERGY PREDICTED BY IDOCK:  -11.86 KCAL/MOL
REMARK 923 INTER-LIGAND FREE ENERGY PREDICTED BY IDOCK:   -9.32 KCAL/MOL
REMARK 924 INTRA-LIGAND FREE ENERGY PREDICTED BY IDOCK:   -2.53 KCAL/MOL
REMARK 927      BINDING AFFINITY PREDICTED BY RF-SCORE:    0.00 PKD
ROOT
HETATM    1  C   UNL     1     -12.397  15.802  72.122  1.00  0.00    -0.539 C  
HETATM    2  C   UNL     1     -13.295  15.058  71.144  1.00  0.00    -0.510 C  
ENDROOT
BRANCH   2   3
HETATM    3  C   UNL     1     -12.636  13.834  70.615  1.00  0.00    -0.386 C  
HETATM    4  C   UNL     1     -11.882  13.634  69.524  1.00  0.00    -0.394 C  
HETATM    5  C   UNL     1     -11.437  12.212  69.395  1.00  0.00    -0.290 C  
HETATM    6  C   UNL     1     -11.438  14.647  68.529  1.00  0.00    -0.327 C  
HETATM    7  N   UNL     1     -11.955  11.622  70.600  1.00  0.00    -0.329 N  
HETATM    8  O   UNL     1     -13.392  12.330  72.315  1.00  0.00    -0.515 OA 
HETATM    9  C   UNL     1     -12.731  12.532  71.308  1.00  0.00    -0.252 C  
BRANCH   7  10
HETATM   10  C   UNL     1     -11.502  10.387  71.028  1.00  0.00    -0.219 C  
HETATM   11  O   UNL     1     -10.418   9.926  70.679  1.00  0.00    -0.292 OA 
BRANCH  10  12
HETATM   12  N   UNL     1     -12.335   9.737  71.902  1.00  0.00    -0.368 N  
HETATM   13  H   UNL     1     -12.505  10.158  72.816  1.00  0.00     0.000 HD 
BRANCH  12  14
HETATM   14  C   UNL     1     -12.985   8.480  71.589  1.00  0.00    -0.343 C  
BRANCH  14  15
HETATM   15  C   UNL     1     -12.149   7.252  71.989  1.00  0.00    -0.327 C  
BRANCH  15  16
HETATM   16  C   UNL     1     -11.423   6.582  70.834  1.00  0.00    -0.408 A  
HETATM   17  C   UNL     1     -11.769   6.840  69.500  1.00  0.00    -0.096 A  
HETATM   18  C   UNL     1     -11.134   6.175  68.450  1.00  0.00    -0.343 A  
HETATM   19  C   UNL     1     -10.090   5.287  68.710  1.00  0.00    -0.177 A  
HETATM   20  C   UNL     1      -9.697   5.048  70.030  1.00  0.00    -0.278 A  
HETATM   21  C   UNL     1     -10.358   5.699  71.083  1.00  0.00    -0.295 A  
BRANCH  19  22
HETATM   22  S   UNL     1      -9.388   4.344  67.369  1.00  0.00    -0.167 S  
HETATM   23  O   UNL     1      -8.741   3.187  67.952  1.00  0.00    -0.092 OA 
HETATM   24  O   UNL     1     -10.393   4.176  66.342  1.00  0.00    -0.097 OA 
BRANCH  22  25
HETATM   25  N   UNL     1      -8.140   5.288  66.780  1.00  0.00    -0.104 N  
HETATM   26  H   UNL     1      -7.298   5.385  67.348  1.00  0.00     0.000 HD 
BRANCH  25  27
HETATM   27  C   UNL     1      -8.187   5.943  65.565  1.00  0.00    -0.137 C  
HETATM   28  O   UNL     1      -7.596   5.540  64.576  1.00  0.00    -0.071 OA 
BRANCH  27  29
HETATM   29  N   UNL     1      -8.955   7.084  65.552  1.00  0.00    -0.373 N  
HETATM   30  H   UNL     1      -9.947   7.043  65.321  1.00  0.00     0.000 HD 
BRANCH  29  31
HETATM   31  C   UNL     1      -8.314   8.357  65.875  1.00  0.00    -0.134 C  
HETATM   32  C   UNL     1      -8.274   9.329  64.690  1.00  0.00    -0.148 C  
HETATM   33  C   UNL     1      -9.534  10.171  64.505  1.00  0.00    -0.364 C  
HETATM   34  C   UNL     1     -10.033  10.817  65.802  1.00  0.00    -0.306 C  
HETATM   35  C   UNL     1     -10.208   9.744  66.881  1.00  0.00    -0.310 C  
HETATM   36  C   UNL     1      -9.122  11.958  66.273  1.00  0.00    -0.188 C  
HETATM   37  C   UNL     1      -8.917   8.972  67.147  1.00  0.00    -0.144 C  
ENDBRANCH  29  31
ENDBRANCH  27  29
ENDBRANCH  25  27
ENDBRANCH  22  25
ENDBRANCH  19  22
ENDBRANCH  15  16
ENDBRANCH  14  15
ENDBRANCH  12  14
ENDBRANCH  10  12
ENDBRANCH   7  10
ENDBRANCH   2   3
TORSDOF 11
ENDMDL
MODEL       90
REMARK 921   NORMALIZED FREE ENERGY PREDICTED BY IDOCK:   -5.81 KCAL/MOL
REMARK 922        TOTAL FREE ENERGY PREDICTED BY IDOCK:  -11.85 KCAL/MOL
REMARK 923 INTER-LIGAND FREE ENERGY PREDICTED BY IDOCK:   -8.84 KCAL/MOL
REMARK 924 INTRA-LIGAND FREE ENERGY PREDICTED BY IDOCK:   -3.01 KCAL/MOL
REMARK 927      BINDING AFFINITY PREDICTED BY RF-SCORE:    0.00 PKD
ROOT
HETATM    1  C   UNL     1     -12.536  13.005  65.297  1.00  0.00    -0.555 C  
HETATM    2  C   UNL     1     -12.553  14.270  66.141  1.00  0.00    -0.280 C  
ENDROOT
BRANCH   2   3
HETATM    3  C   UNL     1     -11.432  14.296  67.117  1.00  0.00    -0.377 C  
HETATM    4  C   UNL     1     -11.420  14.240  68.457  1.00  0.00    -0.329 C  
HETATM    5  C   UNL     1     -10.035  14.305  69.016  1.00  0.00    -0.097 C  
HETATM    6  C   UNL     1     -12.585  14.078  69.369  1.00  0.00     0.081 C  
HETATM    7  N   UNL     1      -9.229  14.316  67.826  1.00  0.00    -0.189 N  
HETATM    8  O   UNL     1      -9.658  14.510  65.527  1.00  0.00    -0.254 OA 
HETATM    9  C   UNL     1     -10.020  14.386  66.686  1.00  0.00    -0.272 C  
BRANCH   7  10
HETATM   10  C   UNL     1      -7.872  14.058  67.894  1.00  0.00    -0.160 C  
HETATM   11  O   UNL     1      -7.156  14.528  68.776  1.00  0.00    -0.099 OA 
BRANCH  10  12
HETATM   12  N   UNL     1      -7.395  13.208  66.930  1.00  0.00    -0.284 N  
HETATM   13  H   UNL     1      -7.107  13.602  66.034  1.00  0.00     0.000 HD 
BRANCH  12  14
HETATM   14  C   UNL     1      -7.281  11.776  67.124  1.00  0.00    -0.147 C  
BRANCH  14  15
HETATM   15  C   UNL     1      -8.576  11.016  66.790  1.00  0.00    -0.152 C  
BRANCH  15  16
HETATM   16  C   UNL     1      -9.434  10.674  67.996  1.00  0.00    -0.164 A  
HETATM   17  C   UNL     1      -8.869  10.197  69.188  1.00  0.00    -0.179 A  
HETATM   18  C   UNL     1      -9.673   9.833  70.270  1.00  0.00    -0.279 A  
HETATM   19  C   UNL     1     -11.056  10.002  70.206  1.00  0.00    -0.318 A  
HETATM   20  C   UNL     1     -11.638  10.519  69.046  1.00  0.00    -0.278 A  
HETATM   21  C   UNL     1     -10.828  10.859  67.951  1.00  0.00    -0.295 A  
BRANCH  19  22
HETATM   22  S   UNL     1     -12.074   9.401  71.541  1.00  0.00    -0.403 S  
HETATM   23  O   UNL     1     -11.181   8.912  72.573  1.00  0.00    -0.200 OA 
HETATM   24  O   UNL     1     -13.070  10.401  71.855  1.00  0.00    -0.441 OA 
BRANCH  22  25
HETATM   25  N   UNL     1     -12.824   8.034  70.935  1.00  0.00    -0.506 N  
HETATM   26  H   UNL     1     -13.786   8.117  70.606  1.00  0.00     0.000 HD 
BRANCH  25  27
HETATM   27  C   UNL     1     -12.210   6.800  70.856  1.00  0.00    -0.331 C  
HETATM   28  O   UNL     1     -11.999   6.105  71.838  1.00  0.00    -0.312 OA 
BRANCH  27  29
HETATM   29  N   UNL     1     -11.857   6.409  69.586  1.00  0.00    -0.523 N  
HETATM   30  H   UNL     1     -12.535   5.962  68.970  1.00  0.00     0.000 HD 
BRANCH  29  31
HETATM   31  C   UNL     1     -10.486   6.649  69.141  1.00  0.00    -0.219 C  
HETATM   32  C   UNL     1      -9.556   5.455  69.387  1.00  0.00    -0.203 C  
HETATM   33  C   UNL     1      -9.575   4.388  68.294  1.00  0.00    -0.199 C  
HETATM   34  C   UNL     1      -9.462   4.963  66.878  1.00  0.00    -0.156 C  
HETATM   35  C   UNL     1     -10.542   6.029  66.664  1.00  0.00    -0.312 C  
HETATM   36  C   UNL     1      -8.059   5.504  66.577  1.00  0.00    -0.105 C  
HETATM   37  C   UNL     1     -10.457   7.156  67.691  1.00  0.00    -0.306 C  
ENDBRANCH  29  31
ENDBRANCH  27  29
ENDBRANCH  25  27
ENDBRANCH  22  25
ENDBRANCH  19  22
ENDBRANCH  15  16
ENDBRANCH  14  15
ENDBRANCH  12  14
ENDBRANCH  10  12
ENDBRANCH   7  10
ENDBRANCH   2   3
TORSDOF 11
ENDMDL
MODEL       91
REMARK 921   NORMALIZED FREE ENERGY PREDICTED BY IDOCK:   -5.81 KCAL/MOL
REMARK 922        TOTAL FREE ENERGY PREDICTED BY IDOCK:  -11.85 KCAL/MOL
REMARK 923 INTER-LIGAND FREE ENERGY PREDICTED BY IDOCK:  -10.02 KCAL/MOL
REMARK 924 INTRA-LIGAND FREE ENERGY PREDICTED BY IDOCK:   -1.83 KCAL/MOL
REMARK 927      BINDING AFFINITY PREDICTED BY RF-SCORE:    0.00 PKD
ROOT
HETATM    1  C   UNL     1      -9.508   2.242  68.262  1.00  0.00    -0.227 C  
HETATM    2  C   UNL     1      -8.720   3.522  68.497  1.00  0.00    -0.137 C  
ENDROOT
BRANCH   2   3
HETATM    3  C   UNL     1      -9.616   4.696  68.673  1.00  0.00    -0.226 C  
HETATM    4  C   UNL     1     -10.358   5.385  67.793  1.00  0.00    -0.226 C  
HETATM    5  C   UNL     1     -11.103   6.508  68.438  1.00  0.00    -0.254 C  
HETATM    6  C   UNL     1     -10.529   5.113  66.340  1.00  0.00    -0.356 C  
HETATM    7  N   UNL     1     -10.774   6.334  69.826  1.00  0.00    -0.263 N  
HETATM    8  O   UNL     1      -9.276   4.981  71.023  1.00  0.00    -0.139 OA 
HETATM    9  C   UNL     1      -9.839   5.319  69.994  1.00  0.00    -0.218 C  
BRANCH   7  10
HETATM   10  C   UNL     1     -11.505   6.977  70.808  1.00  0.00    -0.318 C  
HETATM   11  O   UNL     1     -12.720   6.832  70.925  1.00  0.00    -0.301 OA 
BRANCH  10  12
HETATM   12  N   UNL     1     -10.768   7.753  71.665  1.00  0.00    -0.217 N  
HETATM   13  H   UNL     1     -10.332   7.307  72.472  1.00  0.00     0.000 HD 
BRANCH  12  14
HETATM   14  C   UNL     1     -10.578   9.178  71.477  1.00  0.00    -0.358 C  
BRANCH  14  15
HETATM   15  C   UNL     1      -9.554   9.511  70.378  1.00  0.00    -0.326 C  
BRANCH  15  16
HETATM   16  C   UNL     1     -10.101  10.363  69.245  1.00  0.00    -0.248 A  
HETATM   17  C   UNL     1      -9.266  10.871  68.239  1.00  0.00    -0.161 A  
HETATM   18  C   UNL     1      -9.771  11.700  67.236  1.00  0.00    -0.192 A  
HETATM   19  C   UNL     1     -11.136  11.982  67.178  1.00  0.00    -0.290 A  
HETATM   20  C   UNL     1     -11.994  11.449  68.143  1.00  0.00    -0.201 A  
HETATM   21  C   UNL     1     -11.477  10.639  69.166  1.00  0.00    -0.349 A  
BRANCH  19  22
HETATM   22  S   UNL     1     -11.737  13.153  65.975  1.00  0.00    -0.400 S  
HETATM   23  O   UNL     1     -10.599  13.577  65.185  1.00  0.00    -0.319 OA 
HETATM   24  O   UNL     1     -12.905  12.597  65.328  1.00  0.00    -0.656 OA 
BRANCH  22  25
HETATM   25  N   UNL     1     -12.176  14.502  66.861  1.00  0.00    -0.509 N  
HETATM   26  H   UNL     1     -13.043  14.980  66.616  1.00  0.00     0.000 HD 
BRANCH  25  27
HETATM   27  C   UNL     1     -11.427  15.002  67.908  1.00  0.00    -0.340 C  
HETATM   28  O   UNL     1     -11.849  15.059  69.052  1.00  0.00    -0.305 OA 
BRANCH  27  29
HETATM   29  N   UNL     1     -10.166  15.431  67.565  1.00  0.00    -0.241 N  
HETATM   30  H   UNL     1      -9.352  14.838  67.724  1.00  0.00     0.000 HD 
BRANCH  29  31
HETATM   31  C   UNL     1     -10.020  16.756  66.968  1.00  0.00    -0.269 C  
HETATM   32  C   UNL     1     -10.732  17.857  67.764  1.00  0.00    -0.339 C  
HETATM   33  C   UNL     1      -9.922  18.442  68.919  1.00  0.00    -0.374 C  
HETATM   34  C   UNL     1      -8.484  18.807  68.533  1.00  0.00    -0.379 C  
HETATM   35  C   UNL     1      -7.795  17.594  67.899  1.00  0.00    -0.221 C  
HETATM   36  C   UNL     1      -8.419  20.040  67.624  1.00  0.00    -0.378 C  
HETATM   37  C   UNL     1      -8.546  17.072  66.676  1.00  0.00    -0.285 C  
ENDBRANCH  29  31
ENDBRANCH  27  29
ENDBRANCH  25  27
ENDBRANCH  22  25
ENDBRANCH  19  22
ENDBRANCH  15  16
ENDBRANCH  14  15
ENDBRANCH  12  14
ENDBRANCH  10  12
ENDBRANCH   7  10
ENDBRANCH   2   3
TORSDOF 11
ENDMDL
MODEL       92
REMARK 921   NORMALIZED FREE ENERGY PREDICTED BY IDOCK:   -5.81 KCAL/MOL
REMARK 922        TOTAL FREE ENERGY PREDICTED BY IDOCK:  -11.85 KCAL/MOL
REMARK 923 INTER-LIGAND FREE ENERGY PREDICTED BY IDOCK:   -9.44 KCAL/MOL
REMARK 924 INTRA-LIGAND FREE ENERGY PREDICTED BY IDOCK:   -2.41 KCAL/MOL
REMARK 927      BINDING AFFINITY PREDICTED BY RF-SCORE:    0.00 PKD
ROOT
HETATM    1  C   UNL     1     -12.398  12.152  63.478  1.00  0.00    -0.682 C  
HETATM    2  C   UNL     1     -11.073  12.634  64.049  1.00  0.00    -0.453 C  
ENDROOT
BRANCH   2   3
HETATM    3  C   UNL     1     -11.235  13.194  65.417  1.00  0.00    -0.315 C  
HETATM    4  C   UNL     1     -11.290  12.600  66.618  1.00  0.00    -0.379 C  
HETATM    5  C   UNL     1     -11.469  13.584  67.729  1.00  0.00    -0.315 C  
HETATM    6  C   UNL     1     -11.146  11.151  66.922  1.00  0.00    -0.313 C  
HETATM    7  N   UNL     1     -11.423  14.840  67.033  1.00  0.00    -0.359 N  
HETATM    8  O   UNL     1     -11.405  15.493  64.779  1.00  0.00    -0.410 OA 
HETATM    9  C   UNL     1     -11.359  14.648  65.658  1.00  0.00    -0.338 C  
BRANCH   7  10
HETATM   10  C   UNL     1     -11.239  16.023  67.727  1.00  0.00    -0.231 C  
HETATM   11  O   UNL     1     -11.767  16.235  68.816  1.00  0.00    -0.317 OA 
BRANCH  10  12
HETATM   12  N   UNL     1     -10.392  16.920  67.128  1.00  0.00    -0.304 N  
HETATM   13  H   UNL     1     -10.580  17.197  66.164  1.00  0.00     0.000 HD 
BRANCH  12  14
HETATM   14  C   UNL     1      -9.243  17.492  67.799  1.00  0.00    -0.253 C  
BRANCH  14  15
HETATM   15  C   UNL     1      -7.907  16.884  67.336  1.00  0.00    -0.192 C  
BRANCH  15  16
HETATM   16  C   UNL     1      -7.606  15.512  67.916  1.00  0.00    -0.146 A  
HETATM   17  C   UNL     1      -6.948  15.362  69.145  1.00  0.00    -0.154 A  
HETATM   18  C   UNL     1      -6.626  14.097  69.639  1.00  0.00    -0.120 A  
HETATM   19  C   UNL     1      -7.018  12.951  68.946  1.00  0.00    -0.084 A  
HETATM   20  C   UNL     1      -7.715  13.075  67.742  1.00  0.00    -0.151 A  
HETATM   21  C   UNL     1      -8.012  14.350  67.236  1.00  0.00    -0.204 A  
BRANCH  19  22
HETATM   22  S   UNL     1      -6.476  11.353  69.521  1.00  0.00    -0.129 S  
HETATM   23  O   UNL     1      -5.510  10.857  68.561  1.00  0.00    -0.041 OA 
HETATM   24  O   UNL     1      -6.123  11.456  70.920  1.00  0.00    -0.363 OA 
BRANCH  22  25
HETATM   25  N   UNL     1      -7.806  10.354  69.351  1.00  0.00    -0.153 N  
HETATM   26  H   UNL     1      -8.305  10.360  68.461  1.00  0.00     0.000 HD 
BRANCH  25  27
HETATM   27  C   UNL     1      -8.267   9.521  70.352  1.00  0.00    -0.190 C  
HETATM   28  O   UNL     1      -7.673   8.510  70.693  1.00  0.00    -0.068 OA 
BRANCH  27  29
HETATM   29  N   UNL     1      -9.445   9.918  70.940  1.00  0.00    -0.150 N  
HETATM   30  H   UNL     1      -9.448  10.615  71.684  1.00  0.00     0.000 HD 
BRANCH  29  31
HETATM   31  C   UNL     1     -10.692   9.317  70.473  1.00  0.00    -0.257 C  
HETATM   32  C   UNL     1     -11.083   8.057  71.255  1.00  0.00    -0.279 C  
HETATM   33  C   UNL     1     -11.855   8.315  72.547  1.00  0.00    -0.439 C  
HETATM   34  C   UNL     1     -13.011   9.308  72.380  1.00  0.00    -0.450 C  
HETATM   35  C   UNL     1     -12.493  10.604  71.747  1.00  0.00    -0.321 C  
HETATM   36  C   UNL     1     -14.181   8.713  71.586  1.00  0.00    -0.463 C  
HETATM   37  C   UNL     1     -11.815  10.362  70.399  1.00  0.00    -0.418 C  
ENDBRANCH  29  31
ENDBRANCH  27  29
ENDBRANCH  25  27
ENDBRANCH  22  25
ENDBRANCH  19  22
ENDBRANCH  15  16
ENDBRANCH  14  15
ENDBRANCH  12  14
ENDBRANCH  10  12
ENDBRANCH   7  10
ENDBRANCH   2   3
TORSDOF 11
ENDMDL
MODEL       93
REMARK 921   NORMALIZED FREE ENERGY PREDICTED BY IDOCK:   -5.80 KCAL/MOL
REMARK 922        TOTAL FREE ENERGY PREDICTED BY IDOCK:  -11.83 KCAL/MOL
REMARK 923 INTER-LIGAND FREE ENERGY PREDICTED BY IDOCK:  -10.08 KCAL/MOL
REMARK 924 INTRA-LIGAND FREE ENERGY PREDICTED BY IDOCK:   -1.75 KCAL/MOL
REMARK 927      BINDING AFFINITY PREDICTED BY RF-SCORE:    0.00 PKD
ROOT
HETATM    1  C   UNL     1      -8.479  19.900  65.988  1.00  0.00    -0.291 C  
HETATM    2  C   UNL     1      -9.945  19.496  66.040  1.00  0.00    -0.477 C  
ENDROOT
BRANCH   2   3
HETATM    3  C   UNL     1     -10.156  18.303  66.902  1.00  0.00    -0.377 C  
HETATM    4  C   UNL     1     -10.175  18.164  68.236  1.00  0.00    -0.402 C  
HETATM    5  C   UNL     1     -10.422  16.751  68.656  1.00  0.00    -0.333 C  
HETATM    6  C   UNL     1     -10.031  19.232  69.262  1.00  0.00    -0.277 C  
HETATM    7  N   UNL     1     -10.636  16.093  67.396  1.00  0.00    -0.311 N  
HETATM    8  O   UNL     1     -10.413  16.704  65.141  1.00  0.00    -0.647 OA 
HETATM    9  C   UNL     1     -10.414  16.962  66.334  1.00  0.00    -0.252 C  
BRANCH   7  10
HETATM   10  C   UNL     1     -11.205  14.833  67.349  1.00  0.00    -0.339 C  
HETATM   11  O   UNL     1     -11.094  14.026  68.268  1.00  0.00    -0.239 OA 
BRANCH  10  12
HETATM   12  N   UNL     1     -11.934  14.570  66.217  1.00  0.00    -0.361 N  
HETATM   13  H   UNL     1     -12.399  15.347  65.747  1.00  0.00     0.000 HD 
BRANCH  12  14
HETATM   14  C   UNL     1     -12.077  13.241  65.660  1.00  0.00    -0.441 C  
BRANCH  14  15
HETATM   15  C   UNL     1     -10.833  12.773  64.885  1.00  0.00    -0.326 C  
BRANCH  15  16
HETATM   16  C   UNL     1     -10.332  11.392  65.273  1.00  0.00    -0.336 A  
HETATM   17  C   UNL     1     -10.578  10.851  66.544  1.00  0.00    -0.295 A  
HETATM   18  C   UNL     1     -10.063   9.605  66.907  1.00  0.00    -0.290 A  
HETATM   19  C   UNL     1      -9.349   8.843  65.982  1.00  0.00    -0.242 A  
HETATM   20  C   UNL     1      -9.131   9.341  64.695  1.00  0.00    -0.177 A  
HETATM   21  C   UNL     1      -9.627  10.606  64.344  1.00  0.00    -0.349 A  
BRANCH  19  22
HETATM   22  S   UNL     1      -8.583   7.321  66.509  1.00  0.00    -0.139 S  
HETATM   23  O   UNL     1      -9.629   6.322  66.594  1.00  0.00    -0.151 OA 
HETATM   24  O   UNL     1      -7.413   7.082  65.693  1.00  0.00    -0.079 OA 
BRANCH  22  25
HETATM   25  N   UNL     1      -8.115   7.594  68.091  1.00  0.00    -0.122 N  
HETATM   26  H   UNL     1      -7.813   8.533  68.351  1.00  0.00     0.000 HD 
BRANCH  25  27
HETATM   27  C   UNL     1      -8.116   6.615  69.065  1.00  0.00    -0.116 C  
HETATM   28  O   UNL     1      -7.472   5.583  68.963  1.00  0.00    -0.078 OA 
BRANCH  27  29
HETATM   29  N   UNL     1      -8.896   6.891  70.164  1.00  0.00    -0.145 N  
HETATM   30  H   UNL     1      -8.643   6.537  71.085  1.00  0.00     0.000 HD 
BRANCH  29  31
HETATM   31  C   UNL     1     -10.096   7.704  69.978  1.00  0.00    -0.204 C  
HETATM   32  C   UNL     1     -11.391   6.884  70.028  1.00  0.00    -0.343 C  
HETATM   33  C   UNL     1     -11.945   6.639  71.430  1.00  0.00    -0.405 C  
HETATM   34  C   UNL     1     -11.992   7.902  72.297  1.00  0.00    -0.387 C  
HETATM   35  C   UNL     1     -10.610   8.562  72.328  1.00  0.00    -0.408 C  
HETATM   36  C   UNL     1     -13.082   8.881  71.842  1.00  0.00    -0.436 C  
HETATM   37  C   UNL     1     -10.100   8.909  70.931  1.00  0.00    -0.304 C  
ENDBRANCH  29  31
ENDBRANCH  27  29
ENDBRANCH  25  27
ENDBRANCH  22  25
ENDBRANCH  19  22
ENDBRANCH  15  16
ENDBRANCH  14  15
ENDBRANCH  12  14
ENDBRANCH  10  12
ENDBRANCH   7  10
ENDBRANCH   2   3
TORSDOF 11
ENDMDL
MODEL       94
REMARK 921   NORMALIZED FREE ENERGY PREDICTED BY IDOCK:   -5.79 KCAL/MOL
REMARK 922        TOTAL FREE ENERGY PREDICTED BY IDOCK:  -11.82 KCAL/MOL
REMARK 923 INTER-LIGAND FREE ENERGY PREDICTED BY IDOCK:  -10.53 KCAL/MOL
REMARK 924 INTRA-LIGAND FREE ENERGY PREDICTED BY IDOCK:   -1.30 KCAL/MOL
REMARK 927      BINDING AFFINITY PREDICTED BY RF-SCORE:    0.00 PKD
ROOT
HETATM    1  C   UNL     1     -12.384   9.668  71.713  1.00  0.00    -0.474 C  
HETATM    2  C   UNL     1     -12.047   8.335  72.365  1.00  0.00    -0.430 C  
ENDROOT
BRANCH   2   3
HETATM    3  C   UNL     1     -10.915   7.658  71.678  1.00  0.00    -0.267 C  
HETATM    4  C   UNL     1      -9.605   7.615  71.960  1.00  0.00    -0.200 C  
HETATM    5  C   UNL     1      -8.838   6.801  70.968  1.00  0.00    -0.141 C  
HETATM    6  C   UNL     1      -8.906   8.225  73.123  1.00  0.00    -0.292 C  
HETATM    7  N   UNL     1      -9.881   6.297  70.118  1.00  0.00    -0.169 N  
HETATM    8  O   UNL     1     -12.182   6.703  69.887  1.00  0.00    -0.123 OA 
HETATM    9  C   UNL     1     -11.113   6.841  70.462  1.00  0.00    -0.298 C  
BRANCH   7  10
HETATM   10  C   UNL     1      -9.637   5.245  69.253  1.00  0.00    -0.155 C  
HETATM   11  O   UNL     1      -9.905   4.080  69.541  1.00  0.00    -0.195 OA 
BRANCH  10  12
HETATM   12  N   UNL     1      -9.114   5.605  68.038  1.00  0.00    -0.108 N  
HETATM   13  H   UNL     1      -8.220   5.202  67.755  1.00  0.00     0.000 HD 
BRANCH  12  14
HETATM   14  C   UNL     1      -9.770   6.531  67.136  1.00  0.00    -0.143 C  
BRANCH  14  15
HETATM   15  C   UNL     1      -8.877   7.718  66.736  1.00  0.00    -0.154 C  
BRANCH  15  16
HETATM   16  C   UNL     1      -9.628   9.017  66.493  1.00  0.00    -0.286 A  
HETATM   17  C   UNL     1      -9.522   9.711  65.279  1.00  0.00    -0.342 A  
HETATM   18  C   UNL     1     -10.172  10.932  65.090  1.00  0.00    -0.360 A  
HETATM   19  C   UNL     1     -10.998  11.451  66.087  1.00  0.00    -0.236 A  
HETATM   20  C   UNL     1     -11.156  10.753  67.288  1.00  0.00    -0.339 A  
HETATM   21  C   UNL     1     -10.479   9.540  67.484  1.00  0.00    -0.336 A  
BRANCH  19  22
HETATM   22  S   UNL     1     -11.705  13.074  65.880  1.00  0.00    -0.417 S  
HETATM   23  O   UNL     1     -10.689  13.909  65.272  1.00  0.00    -0.309 OA 
HETATM   24  O   UNL     1     -13.005  12.942  65.260  1.00  0.00    -0.703 OA 
BRANCH  22  25
HETATM   25  N   UNL     1     -11.884  13.672  67.432  1.00  0.00    -0.381 N  
HETATM   26  H   UNL     1     -12.803  14.010  67.717  1.00  0.00     0.000 HD 
BRANCH  25  27
HETATM   27  C   UNL     1     -10.853  13.732  68.349  1.00  0.00    -0.252 C  
HETATM   28  O   UNL     1      -9.685  13.870  68.020  1.00  0.00    -0.213 OA 
BRANCH  27  29
HETATM   29  N   UNL     1     -11.240  13.628  69.664  1.00  0.00    -0.445 N  
HETATM   30  H   UNL     1     -10.765  12.987  70.299  1.00  0.00     0.000 HD 
BRANCH  29  31
HETATM   31  C   UNL     1     -12.348  14.459  70.131  1.00  0.00    -0.348 C  
HETATM   32  C   UNL     1     -13.354  13.690  70.996  1.00  0.00    -0.111 C  
HETATM   33  C   UNL     1     -12.989  13.592  72.475  1.00  0.00    -0.396 C  
HETATM   34  C   UNL     1     -12.560  14.931  73.088  1.00  0.00    -0.559 C  
HETATM   35  C   UNL     1     -11.433  15.545  72.253  1.00  0.00    -0.496 C  
HETATM   36  C   UNL     1     -13.738  15.898  73.257  1.00  0.00    -0.409 C  
HETATM   37  C   UNL     1     -11.833  15.746  70.793  1.00  0.00    -0.438 C  
ENDBRANCH  29  31
ENDBRANCH  27  29
ENDBRANCH  25  27
ENDBRANCH  22  25
ENDBRANCH  19  22
ENDBRANCH  15  16
ENDBRANCH  14  15
ENDBRANCH  12  14
ENDBRANCH  10  12
ENDBRANCH   7  10
ENDBRANCH   2   3
TORSDOF 11
ENDMDL
MODEL       95
REMARK 921   NORMALIZED FREE ENERGY PREDICTED BY IDOCK:   -5.79 KCAL/MOL
REMARK 922        TOTAL FREE ENERGY PREDICTED BY IDOCK:  -11.81 KCAL/MOL
REMARK 923 INTER-LIGAND FREE ENERGY PREDICTED BY IDOCK:   -9.46 KCAL/MOL
REMARK 924 INTRA-LIGAND FREE ENERGY PREDICTED BY IDOCK:   -2.35 KCAL/MOL
REMARK 927      BINDING AFFINITY PREDICTED BY RF-SCORE:    0.00 PKD
ROOT
HETATM    1  C   UNL     1      -9.462   3.317  65.024  1.00  0.00    -0.145 C  
HETATM    2  C   UNL     1      -8.239   3.553  65.897  1.00  0.00    -0.097 C  
ENDROOT
BRANCH   2   3
HETATM    3  C   UNL     1      -8.613   4.066  67.242  1.00  0.00    -0.106 C  
HETATM    4  C   UNL     1      -9.081   3.439  68.332  1.00  0.00    -0.206 C  
HETATM    5  C   UNL     1      -9.323   4.381  69.467  1.00  0.00    -0.156 C  
HETATM    6  C   UNL     1      -9.315   1.981  68.510  1.00  0.00    -0.244 C  
HETATM    7  N   UNL     1      -8.852   5.629  68.931  1.00  0.00    -0.109 N  
HETATM    8  O   UNL     1      -8.149   6.374  66.820  1.00  0.00    -0.107 OA 
HETATM    9  C   UNL     1      -8.494   5.496  67.595  1.00  0.00    -0.102 C  
BRANCH   7  10
HETATM   10  C   UNL     1      -8.607   6.704  69.766  1.00  0.00    -0.136 C  
HETATM   11  O   UNL     1      -7.479   6.984  70.166  1.00  0.00    -0.082 OA 
BRANCH  10  12
HETATM   12  N   UNL     1      -9.710   7.456  70.080  1.00  0.00    -0.175 N  
HETATM   13  H   UNL     1     -10.082   7.401  71.029  1.00  0.00     0.000 HD 
BRANCH  12  14
HETATM   14  C   UNL     1     -10.372   8.326  69.129  1.00  0.00    -0.217 C  
BRANCH  14  15
HETATM   15  C   UNL     1      -9.441   9.405  68.548  1.00  0.00    -0.150 C  
BRANCH  15  16
HETATM   16  C   UNL     1     -10.124  10.386  67.610  1.00  0.00    -0.223 A  
HETATM   17  C   UNL     1     -11.088  11.294  68.071  1.00  0.00    -0.325 A  
HETATM   18  C   UNL     1     -11.749  12.152  67.190  1.00  0.00    -0.372 A  
HETATM   19  C   UNL     1     -11.409  12.167  65.837  1.00  0.00    -0.356 A  
HETATM   20  C   UNL     1     -10.418  11.304  65.362  1.00  0.00    -0.326 A  
HETATM   21  C   UNL     1      -9.776  10.425  66.248  1.00  0.00    -0.256 A  
BRANCH  19  22
HETATM   22  S   UNL     1     -12.360  13.167  64.708  1.00  0.00    -0.416 S  
HETATM   23  O   UNL     1     -12.619  12.358  63.534  1.00  0.00    -0.681 OA 
HETATM   24  O   UNL     1     -13.457  13.771  65.431  1.00  0.00    -0.620 OA 
BRANCH  22  25
HETATM   25  N   UNL     1     -11.308  14.359  64.189  1.00  0.00    -0.611 N  
HETATM   26  H   UNL     1     -10.642  14.128  63.451  1.00  0.00     0.000 HD 
BRANCH  25  27
HETATM   27  C   UNL     1     -11.293  15.639  64.705  1.00  0.00    -0.343 C  
HETATM   28  O   UNL     1     -11.299  16.635  63.999  1.00  0.00    -1.120 OA 
BRANCH  27  29
HETATM   29  N   UNL     1     -11.272  15.710  66.079  1.00  0.00    -0.132 N  
HETATM   30  H   UNL     1     -12.064  15.379  66.630  1.00  0.00     0.000 HD 
BRANCH  29  31
HETATM   31  C   UNL     1     -10.090  16.271  66.729  1.00  0.00    -0.278 C  
HETATM   32  C   UNL     1     -10.224  16.351  68.254  1.00  0.00    -0.255 C  
HETATM   33  C   UNL     1      -9.855  15.071  69.002  1.00  0.00    -0.236 C  
HETATM   34  C   UNL     1      -8.529  14.456  68.541  1.00  0.00    -0.170 C  
HETATM   35  C   UNL     1      -8.552  14.253  67.022  1.00  0.00    -0.213 C  
HETATM   36  C   UNL     1      -7.316  15.281  68.988  1.00  0.00    -0.157 C  
HETATM   37  C   UNL     1      -8.813  15.554  66.266  1.00  0.00    -0.338 C  
ENDBRANCH  29  31
ENDBRANCH  27  29
ENDBRANCH  25  27
ENDBRANCH  22  25
ENDBRANCH  19  22
ENDBRANCH  15  16
ENDBRANCH  14  15
ENDBRANCH  12  14
ENDBRANCH  10  12
ENDBRANCH   7  10
ENDBRANCH   2   3
TORSDOF 11
ENDMDL
MODEL       96
REMARK 921   NORMALIZED FREE ENERGY PREDICTED BY IDOCK:   -5.77 KCAL/MOL
REMARK 922        TOTAL FREE ENERGY PREDICTED BY IDOCK:  -11.79 KCAL/MOL
REMARK 923 INTER-LIGAND FREE ENERGY PREDICTED BY IDOCK:  -10.80 KCAL/MOL
REMARK 924 INTRA-LIGAND FREE ENERGY PREDICTED BY IDOCK:   -0.99 KCAL/MOL
REMARK 927      BINDING AFFINITY PREDICTED BY RF-SCORE:    0.00 PKD
ROOT
HETATM    1  C   UNL     1      -6.113  19.181  67.960  1.00  0.00    -0.225 C  
HETATM    2  C   UNL     1      -7.304  19.302  68.899  1.00  0.00    -0.392 C  
ENDROOT
BRANCH   2   3
HETATM    3  C   UNL     1      -8.497  18.592  68.367  1.00  0.00    -0.352 C  
HETATM    4  C   UNL     1      -9.553  19.033  67.668  1.00  0.00    -0.362 C  
HETATM    5  C   UNL     1     -10.522  17.939  67.354  1.00  0.00    -0.383 C  
HETATM    6  C   UNL     1      -9.799  20.413  67.168  1.00  0.00    -0.601 C  
HETATM    7  N   UNL     1      -9.855  16.781  67.883  1.00  0.00    -0.251 N  
HETATM    8  O   UNL     1      -7.945  16.417  69.198  1.00  0.00    -0.239 OA 
HETATM    9  C   UNL     1      -8.691  17.138  68.554  1.00  0.00    -0.261 C  
BRANCH   7  10
HETATM   10  C   UNL     1     -10.266  15.509  67.527  1.00  0.00    -0.254 C  
HETATM   11  O   UNL     1      -9.916  14.507  68.147  1.00  0.00    -0.211 OA 
BRANCH  10  12
HETATM   12  N   UNL     1     -11.125  15.456  66.459  1.00  0.00    -0.276 N  
HETATM   13  H   UNL     1     -10.956  16.079  65.669  1.00  0.00     0.000 HD 
BRANCH  12  14
HETATM   14  C   UNL     1     -12.259  14.557  66.400  1.00  0.00    -0.252 C  
BRANCH  14  15
HETATM   15  C   UNL     1     -12.184  13.565  65.227  1.00  0.00    -0.474 C  
BRANCH  15  16
HETATM   16  C   UNL     1     -11.380  12.309  65.515  1.00  0.00    -0.394 A  
HETATM   17  C   UNL     1     -10.600  11.692  64.525  1.00  0.00    -0.373 A  
HETATM   18  C   UNL     1      -9.911  10.507  64.786  1.00  0.00    -0.412 A  
HETATM   19  C   UNL     1      -9.932   9.949  66.065  1.00  0.00    -0.268 A  
HETATM   20  C   UNL     1     -10.665  10.570  67.079  1.00  0.00    -0.310 A  
HETATM   21  C   UNL     1     -11.378  11.747  66.804  1.00  0.00    -0.385 A  
BRANCH  19  22
HETATM   22  S   UNL     1      -9.164   8.364  66.340  1.00  0.00    -0.214 S  
HETATM   23  O   UNL     1      -8.565   7.954  65.086  1.00  0.00    -0.127 OA 
HETATM   24  O   UNL     1      -8.359   8.438  67.540  1.00  0.00    -0.126 OA 
BRANCH  22  25
HETATM   25  N   UNL     1     -10.432   7.301  66.583  1.00  0.00    -0.506 N  
HETATM   26  H   UNL     1     -11.225   7.340  65.941  1.00  0.00     0.000 HD 
BRANCH  25  27
HETATM   27  C   UNL     1     -10.463   6.372  67.604  1.00  0.00    -0.228 C  
HETATM   28  O   UNL     1      -9.748   5.382  67.617  1.00  0.00    -0.122 OA 
BRANCH  27  29
HETATM   29  N   UNL     1     -11.359   6.647  68.610  1.00  0.00    -0.576 N  
HETATM   30  H   UNL     1     -12.226   7.146  68.415  1.00  0.00     0.000 HD 
BRANCH  29  31
HETATM   31  C   UNL     1     -11.039   6.206  69.966  1.00  0.00    -0.392 C  
HETATM   32  C   UNL     1      -9.632   6.617  70.416  1.00  0.00    -0.173 C  
HETATM   33  C   UNL     1      -9.528   8.025  71.000  1.00  0.00    -0.179 C  
HETATM   34  C   UNL     1     -10.612   8.336  72.038  1.00  0.00    -0.365 C  
HETATM   35  C   UNL     1     -11.996   8.057  71.442  1.00  0.00    -0.328 C  
HETATM   36  C   UNL     1     -10.394   7.579  73.354  1.00  0.00    -0.405 C  
HETATM   37  C   UNL     1     -12.140   6.617  70.955  1.00  0.00    -0.384 C  
ENDBRANCH  29  31
ENDBRANCH  27  29
ENDBRANCH  25  27
ENDBRANCH  22  25
ENDBRANCH  19  22
ENDBRANCH  15  16
ENDBRANCH  14  15
ENDBRANCH  12  14
ENDBRANCH  10  12
ENDBRANCH   7  10
ENDBRANCH   2   3
TORSDOF 11
ENDMDL
MODEL       97
REMARK 921   NORMALIZED FREE ENERGY PREDICTED BY IDOCK:   -5.77 KCAL/MOL
REMARK 922        TOTAL FREE ENERGY PREDICTED BY IDOCK:  -11.78 KCAL/MOL
REMARK 923 INTER-LIGAND FREE ENERGY PREDICTED BY IDOCK:  -10.00 KCAL/MOL
REMARK 924 INTRA-LIGAND FREE ENERGY PREDICTED BY IDOCK:   -1.79 KCAL/MOL
REMARK 927      BINDING AFFINITY PREDICTED BY RF-SCORE:    0.00 PKD
ROOT
HETATM    1  C   UNL     1      -9.131   5.576  68.753  1.00  0.00    -0.131 C  
HETATM    2  C   UNL     1      -8.897   6.583  69.869  1.00  0.00    -0.143 C  
ENDROOT
BRANCH   2   3
HETATM    3  C   UNL     1     -10.142   6.850  70.638  1.00  0.00    -0.208 C  
HETATM    4  C   UNL     1     -10.805   6.108  71.537  1.00  0.00    -0.313 C  
HETATM    5  C   UNL     1     -12.028   6.798  72.050  1.00  0.00    -0.317 C  
HETATM    6  C   UNL     1     -10.426   4.772  72.069  1.00  0.00    -0.225 C  
HETATM    7  N   UNL     1     -11.949   8.078  71.401  1.00  0.00    -0.293 N  
HETATM    8  O   UNL     1     -10.599   9.013  69.724  1.00  0.00    -0.220 OA 
HETATM    9  C   UNL     1     -10.888   8.119  70.504  1.00  0.00    -0.240 C  
BRANCH   7  10
HETATM   10  C   UNL     1     -12.721   9.138  71.841  1.00  0.00    -0.389 C  
HETATM   11  O   UNL     1     -13.752   8.977  72.491  1.00  0.00    -0.472 OA 
BRANCH  10  12
HETATM   12  N   UNL     1     -12.229  10.380  71.531  1.00  0.00    -0.355 N  
HETATM   13  H   UNL     1     -11.218  10.507  71.495  1.00  0.00     0.000 HD 
BRANCH  12  14
HETATM   14  C   UNL     1     -13.078  11.522  71.255  1.00  0.00    -0.184 C  
BRANCH  14  15
HETATM   15  C   UNL     1     -12.298  12.842  71.142  1.00  0.00    -0.262 C  
BRANCH  15  16
HETATM   16  C   UNL     1     -12.034  13.298  69.717  1.00  0.00    -0.391 A  
HETATM   17  C   UNL     1     -11.982  12.387  68.652  1.00  0.00    -0.272 A  
HETATM   18  C   UNL     1     -11.682  12.812  67.356  1.00  0.00    -0.425 A  
HETATM   19  C   UNL     1     -11.496  14.167  67.086  1.00  0.00    -0.353 A  
HETATM   20  C   UNL     1     -11.589  15.099  68.123  1.00  0.00    -0.358 A  
HETATM   21  C   UNL     1     -11.864  14.664  69.429  1.00  0.00    -0.368 A  
BRANCH  19  22
HETATM   22  S   UNL     1     -10.977  14.672  65.456  1.00  0.00    -0.361 S  
HETATM   23  O   UNL     1     -12.170  14.771  64.639  1.00  0.00    -0.442 OA 
HETATM   24  O   UNL     1     -10.084  15.802  65.581  1.00  0.00    -0.330 OA 
BRANCH  22  25
HETATM   25  N   UNL     1     -10.139  13.362  64.841  1.00  0.00    -0.559 N  
HETATM   26  H   UNL     1      -9.135  13.305  65.016  1.00  0.00     0.000 HD 
BRANCH  25  27
HETATM   27  C   UNL     1     -10.733  12.353  64.109  1.00  0.00    -0.379 C  
HETATM   28  O   UNL     1     -11.363  12.565  63.085  1.00  0.00    -0.401 OA 
BRANCH  27  29
HETATM   29  N   UNL     1     -10.559  11.087  64.619  1.00  0.00    -0.326 N  
HETATM   30  H   UNL     1     -11.267  10.367  64.479  1.00  0.00     0.000 HD 
BRANCH  29  31
HETATM   31  C   UNL     1      -9.336  10.800  65.365  1.00  0.00    -0.207 C  
HETATM   32  C   UNL     1      -9.579   9.934  66.607  1.00  0.00    -0.235 C  
HETATM   33  C   UNL     1      -9.607   8.429  66.346  1.00  0.00    -0.307 C  
HETATM   34  C   UNL     1      -8.440   7.937  65.482  1.00  0.00    -0.153 C  
HETATM   35  C   UNL     1      -8.380   8.748  64.184  1.00  0.00    -0.155 C  
HETATM   36  C   UNL     1      -7.104   7.965  66.235  1.00  0.00    -0.063 C  
HETATM   37  C   UNL     1      -8.242  10.247  64.440  1.00  0.00    -0.159 C  
ENDBRANCH  29  31
ENDBRANCH  27  29
ENDBRANCH  25  27
ENDBRANCH  22  25
ENDBRANCH  19  22
ENDBRANCH  15  16
ENDBRANCH  14  15
ENDBRANCH  12  14
ENDBRANCH  10  12
ENDBRANCH   7  10
ENDBRANCH   2   3
TORSDOF 11
ENDMDL
MODEL       98
REMARK 921   NORMALIZED FREE ENERGY PREDICTED BY IDOCK:   -5.72 KCAL/MOL
REMARK 922        TOTAL FREE ENERGY PREDICTED BY IDOCK:  -11.71 KCAL/MOL
REMARK 923 INTER-LIGAND FREE ENERGY PREDICTED BY IDOCK:   -9.33 KCAL/MOL
REMARK 924 INTRA-LIGAND FREE ENERGY PREDICTED BY IDOCK:   -2.38 KCAL/MOL
REMARK 927      BINDING AFFINITY PREDICTED BY RF-SCORE:    0.00 PKD
ROOT
HETATM    1  C   UNL     1     -10.774  12.721  64.232  1.00  0.00    -0.419 C  
HETATM    2  C   UNL     1     -11.845  13.770  64.496  1.00  0.00    -0.445 C  
ENDROOT
BRANCH   2   3
HETATM    3  C   UNL     1     -11.531  14.585  65.699  1.00  0.00    -0.341 C  
HETATM    4  C   UNL     1     -11.617  14.304  67.008  1.00  0.00    -0.406 C  
HETATM    5  C   UNL     1     -11.192  15.453  67.864  1.00  0.00    -0.329 C  
HETATM    6  C   UNL     1     -12.023  13.018  67.635  1.00  0.00    -0.353 C  
HETATM    7  N   UNL     1     -10.760  16.415  66.887  1.00  0.00    -0.258 N  
HETATM    8  O   UNL     1     -10.862  16.572  64.547  1.00  0.00    -0.802 OA 
HETATM    9  C   UNL     1     -11.014  15.966  65.596  1.00  0.00    -0.203 C  
BRANCH   7  10
HETATM   10  C   UNL     1      -9.999  17.507  67.264  1.00  0.00    -0.312 C  
HETATM   11  O   UNL     1     -10.471  18.456  67.885  1.00  0.00    -0.388 OA 
BRANCH  10  12
HETATM   12  N   UNL     1      -8.671  17.430  66.930  1.00  0.00    -0.236 N  
HETATM   13  H   UNL     1      -8.385  17.745  66.002  1.00  0.00     0.000 HD 
BRANCH  12  14
HETATM   14  C   UNL     1      -7.656  16.923  67.830  1.00  0.00    -0.171 C  
BRANCH  14  15
HETATM   15  C   UNL     1      -6.807  15.798  67.212  1.00  0.00    -0.220 C  
BRANCH  15  16
HETATM   16  C   UNL     1      -7.094  14.414  67.768  1.00  0.00    -0.191 A  
HETATM   17  C   UNL     1      -6.349  13.879  68.830  1.00  0.00    -0.091 A  
HETATM   18  C   UNL     1      -6.585  12.584  69.294  1.00  0.00    -0.089 A  
HETATM   19  C   UNL     1      -7.618  11.820  68.751  1.00  0.00    -0.104 A  
HETATM   20  C   UNL     1      -8.404  12.349  67.723  1.00  0.00    -0.164 A  
HETATM   21  C   UNL     1      -8.145  13.642  67.242  1.00  0.00    -0.152 A  
BRANCH  19  22
HETATM   22  S   UNL     1      -7.811  10.122  69.259  1.00  0.00    -0.148 S  
HETATM   23  O   UNL     1      -7.228   9.296  68.222  1.00  0.00    -0.076 OA 
HETATM   24  O   UNL     1      -7.366   9.992  70.629  1.00  0.00    -0.308 OA 
BRANCH  22  25
HETATM   25  N   UNL     1      -9.455   9.827  69.175  1.00  0.00    -0.178 N  
HETATM   26  H   UNL     1      -9.854   9.564  68.273  1.00  0.00     0.000 HD 
BRANCH  25  27
HETATM   27  C   UNL     1     -10.303   9.919  70.262  1.00  0.00    -0.281 C  
HETATM   28  O   UNL     1     -11.285  10.644  70.271  1.00  0.00    -0.298 OA 
BRANCH  27  29
HETATM   29  N   UNL     1      -9.959   9.130  71.334  1.00  0.00    -0.314 N  
HETATM   30  H   UNL     1      -9.009   9.138  71.704  1.00  0.00     0.000 HD 
BRANCH  29  31
HETATM   31  C   UNL     1     -10.987   8.280  71.929  1.00  0.00    -0.287 C  
HETATM   32  C   UNL     1     -11.474   7.174  70.985  1.00  0.00    -0.331 C  
HETATM   33  C   UNL     1     -10.624   5.905  70.985  1.00  0.00    -0.312 C  
HETATM   34  C   UNL     1     -10.286   5.397  72.391  1.00  0.00    -0.257 C  
HETATM   35  C   UNL     1      -9.646   6.523  73.210  1.00  0.00    -0.168 C  
HETATM   36  C   UNL     1     -11.505   4.797  73.102  1.00  0.00    -0.348 C  
HETATM   37  C   UNL     1     -10.543   7.756  73.304  1.00  0.00    -0.350 C  
ENDBRANCH  29  31
ENDBRANCH  27  29
ENDBRANCH  25  27
ENDBRANCH  22  25
ENDBRANCH  19  22
ENDBRANCH  15  16
ENDBRANCH  14  15
ENDBRANCH  12  14
ENDBRANCH  10  12
ENDBRANCH   7  10
ENDBRANCH   2   3
TORSDOF 11
ENDMDL
MODEL       99
REMARK 921   NORMALIZED FREE ENERGY PREDICTED BY IDOCK:   -5.71 KCAL/MOL
REMARK 922        TOTAL FREE ENERGY PREDICTED BY IDOCK:  -11.68 KCAL/MOL
REMARK 923 INTER-LIGAND FREE ENERGY PREDICTED BY IDOCK:  -10.85 KCAL/MOL
REMARK 924 INTRA-LIGAND FREE ENERGY PREDICTED BY IDOCK:   -0.83 KCAL/MOL
REMARK 927      BINDING AFFINITY PREDICTED BY RF-SCORE:    0.00 PKD
ROOT
HETATM    1  C   UNL     1      -9.485   2.196  68.302  1.00  0.00    -0.232 C  
HETATM    2  C   UNL     1      -8.747   3.495  68.589  1.00  0.00    -0.139 C  
ENDROOT
BRANCH   2   3
HETATM    3  C   UNL     1      -9.689   4.610  68.876  1.00  0.00    -0.236 C  
HETATM    4  C   UNL     1     -10.283   5.499  68.067  1.00  0.00    -0.233 C  
HETATM    5  C   UNL     1     -11.157   6.453  68.817  1.00  0.00    -0.326 C  
HETATM    6  C   UNL     1     -10.194   5.579  66.584  1.00  0.00    -0.279 C  
HETATM    7  N   UNL     1     -11.068   5.952  70.161  1.00  0.00    -0.350 N  
HETATM    8  O   UNL     1      -9.768   4.331  71.251  1.00  0.00    -0.164 OA 
HETATM    9  C   UNL     1     -10.153   4.910  70.247  1.00  0.00    -0.252 C  
BRANCH   7  10
HETATM   10  C   UNL     1     -11.974   6.359  71.124  1.00  0.00    -0.210 C  
HETATM   11  O   UNL     1     -11.842   6.079  72.313  1.00  0.00    -0.319 OA 
BRANCH  10  12
HETATM   12  N   UNL     1     -13.006   7.133  70.657  1.00  0.00    -0.549 N  
HETATM   13  H   UNL     1     -13.146   7.199  69.648  1.00  0.00     0.000 HD 
BRANCH  12  14
HETATM   14  C   UNL     1     -13.907   7.860  71.528  1.00  0.00    -0.342 C  
BRANCH  14  15
HETATM   15  C   UNL     1     -13.198   8.938  72.366  1.00  0.00    -0.482 C  
BRANCH  15  16
HETATM   16  C   UNL     1     -12.814  10.187  71.590  1.00  0.00    -0.559 A  
HETATM   17  C   UNL     1     -12.020  10.120  70.436  1.00  0.00    -0.353 A  
HETATM   18  C   UNL     1     -11.627  11.279  69.765  1.00  0.00    -0.408 A  
HETATM   19  C   UNL     1     -12.078  12.527  70.195  1.00  0.00    -0.292 A  
HETATM   20  C   UNL     1     -12.908  12.615  71.316  1.00  0.00    -0.344 A  
HETATM   21  C   UNL     1     -13.278  11.449  72.003  1.00  0.00    -0.432 A  
BRANCH  19  22
HETATM   22  S   UNL     1     -11.452  14.001  69.410  1.00  0.00    -0.296 S  
HETATM   23  O   UNL     1     -12.173  14.162  68.164  1.00  0.00    -0.306 OA 
HETATM   24  O   UNL     1     -11.431  15.073  70.382  1.00  0.00    -0.252 OA 
BRANCH  22  25
HETATM   25  N   UNL     1      -9.886  13.624  68.959  1.00  0.00    -0.423 N  
HETATM   26  H   UNL     1      -9.435  12.823  69.403  1.00  0.00     0.000 HD 
BRANCH  25  27
HETATM   27  C   UNL     1      -9.172  14.337  68.018  1.00  0.00    -0.192 C  
HETATM   28  O   UNL     1      -8.591  13.802  67.086  1.00  0.00    -0.206 OA 
BRANCH  27  29
HETATM   29  N   UNL     1      -9.165  15.700  68.205  1.00  0.00    -0.186 N  
HETATM   30  H   UNL     1      -8.610  16.121  68.949  1.00  0.00     0.000 HD 
BRANCH  29  31
HETATM   31  C   UNL     1      -9.973  16.528  67.313  1.00  0.00    -0.264 C  
HETATM   32  C   UNL     1     -10.840  17.549  68.060  1.00  0.00    -0.260 C  
HETATM   33  C   UNL     1     -10.136  18.858  68.411  1.00  0.00    -0.449 C  
HETATM   34  C   UNL     1      -9.359  19.466  67.238  1.00  0.00    -0.386 C  
HETATM   35  C   UNL     1      -8.393  18.426  66.662  1.00  0.00    -0.280 C  
HETATM   36  C   UNL     1     -10.286  20.042  66.160  1.00  0.00    -0.589 C  
HETATM   37  C   UNL     1      -9.109  17.156  66.208  1.00  0.00    -0.260 C  
ENDBRANCH  29  31
ENDBRANCH  27  29
ENDBRANCH  25  27
ENDBRANCH  22  25
ENDBRANCH  19  22
ENDBRANCH  15  16
ENDBRANCH  14  15
ENDBRANCH  12  14
ENDBRANCH  10  12
ENDBRANCH   7  10
ENDBRANCH   2   3
TORSDOF 11
ENDMDL
MODEL      100
REMARK 921   NORMALIZED FREE ENERGY PREDICTED BY IDOCK:   -5.69 KCAL/MOL
REMARK 922        TOTAL FREE ENERGY PREDICTED BY IDOCK:  -11.65 KCAL/MOL
REMARK 923 INTER-LIGAND FREE ENERGY PREDICTED BY IDOCK:   -8.79 KCAL/MOL
REMARK 924 INTRA-LIGAND FREE ENERGY PREDICTED BY IDOCK:   -2.86 KCAL/MOL
REMARK 927      BINDING AFFINITY PREDICTED BY RF-SCORE:    0.00 PKD
ROOT
HETATM    1  C   UNL     1      -6.135  13.987  68.394  1.00  0.00    -0.100 C  
HETATM    2  C   UNL     1      -6.777  13.078  67.357  1.00  0.00    -0.123 C  
ENDROOT
BRANCH   2   3
HETATM    3  C   UNL     1      -7.712  12.105  67.982  1.00  0.00    -0.134 C  
HETATM    4  C   UNL     1      -8.989  12.229  68.376  1.00  0.00    -0.141 C  
HETATM    5  C   UNL     1      -9.525  10.964  68.965  1.00  0.00    -0.146 C  
HETATM    6  C   UNL     1      -9.870  13.420  68.239  1.00  0.00    -0.235 C  
HETATM    7  N   UNL     1      -8.427  10.055  68.785  1.00  0.00    -0.120 N  
HETATM    8  O   UNL     1      -6.193  10.261  68.095  1.00  0.00    -0.051 OA 
HETATM    9  C   UNL     1      -7.313  10.712  68.274  1.00  0.00    -0.089 C  
BRANCH   7  10
HETATM   10  C   UNL     1      -8.615   8.691  68.911  1.00  0.00    -0.130 C  
HETATM   11  O   UNL     1      -9.266   8.198  69.830  1.00  0.00    -0.151 OA 
BRANCH  10  12
HETATM   12  N   UNL     1      -8.058   7.934  67.912  1.00  0.00    -0.127 N  
HETATM   13  H   UNL     1      -7.130   7.537  68.064  1.00  0.00     0.000 HD 
BRANCH  12  14
HETATM   14  C   UNL     1      -8.723   7.673  66.652  1.00  0.00    -0.141 C  
BRANCH  14  15
HETATM   15  C   UNL     1      -8.256   8.602  65.518  1.00  0.00    -0.135 C  
BRANCH  15  16
HETATM   16  C   UNL     1      -9.233   9.712  65.170  1.00  0.00    -0.305 A  
HETATM   17  C   UNL     1      -9.046  10.529  64.045  1.00  0.00    -0.256 A  
HETATM   18  C   UNL     1      -9.920  11.582  63.768  1.00  0.00    -0.384 A  
HETATM   19  C   UNL     1     -11.039  11.798  64.573  1.00  0.00    -0.315 A  
HETATM   20  C   UNL     1     -11.271  10.967  65.673  1.00  0.00     0.099 A  
HETATM   21  C   UNL     1     -10.375   9.927  65.962  1.00  0.00    -0.202 A  
BRANCH  19  22
HETATM   22  S   UNL     1     -12.061  13.230  64.285  1.00  0.00    -0.417 S  
HETATM   23  O   UNL     1     -12.325  13.288  62.861  1.00  0.00    -0.438 OA 
HETATM   24  O   UNL     1     -13.158  13.217  65.228  1.00  0.00    -0.678 OA 
BRANCH  22  25
HETATM   25  N   UNL     1     -11.071  14.541  64.596  1.00  0.00    -0.550 N  
HETATM   26  H   UNL     1     -10.117  14.363  64.909  1.00  0.00     0.000 HD 
BRANCH  25  27
HETATM   27  C   UNL     1     -11.477  15.854  64.451  1.00  0.00    -0.264 C  
HETATM   28  O   UNL     1     -12.484  16.168  63.836  1.00  0.00    -0.824 OA 
BRANCH  27  29
HETATM   29  N   UNL     1     -10.663  16.782  65.056  1.00  0.00    -0.220 N  
HETATM   30  H   UNL     1     -10.486  17.685  64.618  1.00  0.00     0.000 HD 
BRANCH  29  31
HETATM   31  C   UNL     1     -10.057  16.443  66.342  1.00  0.00    -0.316 C  
HETATM   32  C   UNL     1      -8.553  16.158  66.242  1.00  0.00    -0.373 C  
HETATM   33  C   UNL     1      -7.658  17.394  66.305  1.00  0.00    -0.348 C  
HETATM   34  C   UNL     1      -8.019  18.352  67.445  1.00  0.00    -0.241 C  
HETATM   35  C   UNL     1      -9.505  18.717  67.364  1.00  0.00    -0.324 C  
HETATM   36  C   UNL     1      -7.645  17.788  68.821  1.00  0.00    -0.260 C  
HETATM   37  C   UNL     1     -10.410  17.488  67.412  1.00  0.00    -0.351 C  
ENDBRANCH  29  31
ENDBRANCH  27  29
ENDBRANCH  25  27
ENDBRANCH  22  25
ENDBRANCH  19  22
ENDBRANCH  15  16
ENDBRANCH  14  15
ENDBRANCH  12  14
ENDBRANCH  10  12
ENDBRANCH   7  10
ENDBRANCH   2   3
TORSDOF 11
ENDMDL
MODEL      101
REMARK 921   NORMALIZED FREE ENERGY PREDICTED BY IDOCK:   -5.67 KCAL/MOL
REMARK 922        TOTAL FREE ENERGY PREDICTED BY IDOCK:  -11.63 KCAL/MOL
REMARK 923 INTER-LIGAND FREE ENERGY PREDICTED BY IDOCK:   -9.73 KCAL/MOL
REMARK 924 INTRA-LIGAND FREE ENERGY PREDICTED BY IDOCK:   -1.89 KCAL/MOL
REMARK 927      BINDING AFFINITY PREDICTED BY RF-SCORE:    0.00 PKD
ROOT
HETATM    1  C   UNL     1      -6.233   9.550  68.260  1.00  0.00    -0.052 C  
HETATM    2  C   UNL     1      -7.532  10.336  68.160  1.00  0.00    -0.086 C  
ENDROOT
BRANCH   2   3
HETATM    3  C   UNL     1      -8.709   9.502  68.520  1.00  0.00    -0.124 C  
HETATM    4  C   UNL     1      -9.637   8.901  67.761  1.00  0.00    -0.176 C  
HETATM    5  C   UNL     1     -10.648   8.164  68.578  1.00  0.00    -0.100 C  
HETATM    6  C   UNL     1      -9.710   8.866  66.275  1.00  0.00    -0.345 C  
HETATM    7  N   UNL     1     -10.143   8.335  69.912  1.00  0.00    -0.191 N  
HETATM    8  O   UNL     1      -8.436   9.611  70.894  1.00  0.00    -0.253 OA 
HETATM    9  C   UNL     1      -9.041   9.181  69.925  1.00  0.00    -0.178 C  
BRANCH   7  10
HETATM   10  C   UNL     1     -10.612   7.547  70.948  1.00  0.00    -0.220 C  
HETATM   11  O   UNL     1     -10.655   6.320  70.874  1.00  0.00    -0.221 OA 
BRANCH  10  12
HETATM   12  N   UNL     1     -10.984   8.233  72.075  1.00  0.00    -0.282 N  
HETATM   13  H   UNL     1     -10.259   8.696  72.624  1.00  0.00     0.000 HD 
BRANCH  12  14
HETATM   14  C   UNL     1     -12.358   8.331  72.524  1.00  0.00    -0.276 C  
BRANCH  14  15
HETATM   15  C   UNL     1     -13.287   8.986  71.487  1.00  0.00    -0.394 C  
BRANCH  15  16
HETATM   16  C   UNL     1     -12.950  10.431  71.163  1.00  0.00    -0.506 A  
HETATM   17  C   UNL     1     -13.247  11.472  72.056  1.00  0.00    -0.443 A  
HETATM   18  C   UNL     1     -12.984  12.802  71.722  1.00  0.00    -0.416 A  
HETATM   19  C   UNL     1     -12.355  13.114  70.516  1.00  0.00    -0.304 A  
HETATM   20  C   UNL     1     -12.008  12.089  69.632  1.00  0.00    -0.360 A  
HETATM   21  C   UNL     1     -12.300  10.756  69.960  1.00  0.00    -0.371 A  
BRANCH  19  22
HETATM   22  S   UNL     1     -12.156  14.823  70.049  1.00  0.00    -0.339 S  
HETATM   23  O   UNL     1     -12.369  14.903  68.618  1.00  0.00    -0.116 OA 
HETATM   24  O   UNL     1     -12.937  15.645  70.947  1.00  0.00    -0.482 OA 
BRANCH  22  25
HETATM   25  N   UNL     1     -10.530  15.147  70.264  1.00  0.00    -0.503 N  
HETATM   26  H   UNL     1     -10.146  15.088  71.207  1.00  0.00     0.000 HD 
BRANCH  25  27
HETATM   27  C   UNL     1      -9.678  15.490  69.232  1.00  0.00    -0.272 C  
HETATM   28  O   UNL     1      -8.937  14.683  68.693  1.00  0.00    -0.179 OA 
BRANCH  27  29
HETATM   29  N   UNL     1      -9.730  16.811  68.853  1.00  0.00    -0.254 N  
HETATM   30  H   UNL     1     -10.300  17.480  69.369  1.00  0.00     0.000 HD 
BRANCH  29  31
HETATM   31  C   UNL     1      -8.948  17.232  67.693  1.00  0.00    -0.224 C  
HETATM   32  C   UNL     1      -9.745  18.103  66.714  1.00  0.00    -0.324 C  
HETATM   33  C   UNL     1      -9.779  19.591  67.056  1.00  0.00    -0.450 C  
HETATM   34  C   UNL     1      -8.402  20.170  67.399  1.00  0.00    -0.390 C  
HETATM   35  C   UNL     1      -7.751  19.336  68.508  1.00  0.00    -0.380 C  
HETATM   36  C   UNL     1      -7.495  20.289  66.168  1.00  0.00    -0.260 C  
HETATM   37  C   UNL     1      -7.616  17.864  68.125  1.00  0.00    -0.260 C  
ENDBRANCH  29  31
ENDBRANCH  27  29
ENDBRANCH  25  27
ENDBRANCH  22  25
ENDBRANCH  19  22
ENDBRANCH  15  16
ENDBRANCH  14  15
ENDBRANCH  12  14
ENDBRANCH  10  12
ENDBRANCH   7  10
ENDBRANCH   2   3
TORSDOF 11
ENDMDL
MODEL      102
REMARK 921   NORMALIZED FREE ENERGY PREDICTED BY IDOCK:   -5.66 KCAL/MOL
REMARK 922        TOTAL FREE ENERGY PREDICTED BY IDOCK:  -11.60 KCAL/MOL
REMARK 923 INTER-LIGAND FREE ENERGY PREDICTED BY IDOCK:   -9.45 KCAL/MOL
REMARK 924 INTRA-LIGAND FREE ENERGY PREDICTED BY IDOCK:   -2.15 KCAL/MOL
REMARK 927      BINDING AFFINITY PREDICTED BY RF-SCORE:    0.00 PKD
ROOT
HETATM    1  C   UNL     1      -7.781  10.144  65.565  1.00  0.00    -0.145 C  
HETATM    2  C   UNL     1      -8.786   9.093  65.115  1.00  0.00    -0.241 C  
ENDROOT
BRANCH   2   3
HETATM    3  C   UNL     1      -8.785   7.910  66.015  1.00  0.00    -0.182 C  
HETATM    4  C   UNL     1      -7.894   6.921  66.178  1.00  0.00    -0.102 C  
HETATM    5  C   UNL     1      -8.329   5.931  67.211  1.00  0.00    -0.105 C  
HETATM    6  C   UNL     1      -6.578   6.764  65.503  1.00  0.00    -0.051 C  
HETATM    7  N   UNL     1      -9.549   6.515  67.697  1.00  0.00    -0.122 N  
HETATM    8  O   UNL     1     -10.904   8.319  67.048  1.00  0.00    -0.245 OA 
HETATM    9  C   UNL     1      -9.888   7.646  66.963  1.00  0.00    -0.215 C  
BRANCH   7  10
HETATM   10  C   UNL     1     -10.115   6.078  68.880  1.00  0.00    -0.176 C  
HETATM   11  O   UNL     1     -10.276   4.886  69.132  1.00  0.00    -0.195 OA 
BRANCH  10  12
HETATM   12  N   UNL     1     -10.443   7.072  69.767  1.00  0.00    -0.212 N  
HETATM   13  H   UNL     1     -11.401   7.424  69.769  1.00  0.00     0.000 HD 
BRANCH  12  14
HETATM   14  C   UNL     1      -9.495   7.645  70.700  1.00  0.00    -0.163 C  
BRANCH  14  15
HETATM   15  C   UNL     1      -9.980   8.967  71.319  1.00  0.00    -0.381 C  
BRANCH  15  16
HETATM   16  C   UNL     1     -10.363  10.034  70.307  1.00  0.00    -0.301 A  
HETATM   17  C   UNL     1     -11.622  10.652  70.332  1.00  0.00    -0.441 A  
HETATM   18  C   UNL     1     -11.982  11.589  69.362  1.00  0.00    -0.392 A  
HETATM   19  C   UNL     1     -11.065  11.979  68.386  1.00  0.00    -0.245 A  
HETATM   20  C   UNL     1      -9.789  11.410  68.369  1.00  0.00    -0.205 A  
HETATM   21  C   UNL     1      -9.441  10.449  69.330  1.00  0.00    -0.204 A  
BRANCH  19  22
HETATM   22  S   UNL     1     -11.591  13.069  67.077  1.00  0.00    -0.378 S  
HETATM   23  O   UNL     1     -12.242  12.251  66.074  1.00  0.00    -0.646 OA 
HETATM   24  O   UNL     1     -12.286  14.196  67.660  1.00  0.00    -0.351 OA 
BRANCH  22  25
HETATM   25  N   UNL     1     -10.177  13.596  66.355  1.00  0.00    -0.285 N  
HETATM   26  H   UNL     1      -9.322  13.067  66.524  1.00  0.00     0.000 HD 
BRANCH  25  27
HETATM   27  C   UNL     1     -10.107  14.709  65.540  1.00  0.00    -0.377 C  
HETATM   28  O   UNL     1     -10.905  14.919  64.641  1.00  0.00    -0.370 OA 
BRANCH  27  29
HETATM   29  N   UNL     1      -9.070  15.567  65.820  1.00  0.00    -0.374 N  
HETATM   30  H   UNL     1      -8.235  15.585  65.236  1.00  0.00     0.000 HD 
BRANCH  29  31
HETATM   31  C   UNL     1      -9.193  16.453  66.976  1.00  0.00    -0.221 C  
HETATM   32  C   UNL     1      -7.974  17.363  67.169  1.00  0.00    -0.226 C  
HETATM   33  C   UNL     1      -7.998  18.654  66.353  1.00  0.00    -0.298 C  
HETATM   34  C   UNL     1      -9.333  19.403  66.435  1.00  0.00    -0.419 C  
HETATM   35  C   UNL     1     -10.480  18.459  66.060  1.00  0.00    -0.400 C  
HETATM   36  C   UNL     1      -9.554  20.052  67.807  1.00  0.00    -0.509 C  
HETATM   37  C   UNL     1     -10.525  17.217  66.947  1.00  0.00    -0.272 C  
ENDBRANCH  29  31
ENDBRANCH  27  29
ENDBRANCH  25  27
ENDBRANCH  22  25
ENDBRANCH  19  22
ENDBRANCH  15  16
ENDBRANCH  14  15
ENDBRANCH  12  14
ENDBRANCH  10  12
ENDBRANCH   7  10
ENDBRANCH   2   3
TORSDOF 11
ENDMDL
MODEL      103
REMARK 921   NORMALIZED FREE ENERGY PREDICTED BY IDOCK:   -5.64 KCAL/MOL
REMARK 922        TOTAL FREE ENERGY PREDICTED BY IDOCK:  -11.57 KCAL/MOL
REMARK 923 INTER-LIGAND FREE ENERGY PREDICTED BY IDOCK:   -9.35 KCAL/MOL
REMARK 924 INTRA-LIGAND FREE ENERGY PREDICTED BY IDOCK:   -2.22 KCAL/MOL
REMARK 927      BINDING AFFINITY PREDICTED BY RF-SCORE:    0.00 PKD
ROOT
HETATM    1  C   UNL     1     -10.174   8.721  66.334  1.00  0.00    -0.256 C  
HETATM    2  C   UNL     1     -10.656   7.354  66.794  1.00  0.00    -0.281 C  
ENDROOT
BRANCH   2   3
HETATM    3  C   UNL     1      -9.875   6.857  67.958  1.00  0.00    -0.153 C  
HETATM    4  C   UNL     1      -8.553   6.766  68.165  1.00  0.00    -0.120 C  
HETATM    5  C   UNL     1      -8.228   6.190  69.505  1.00  0.00    -0.116 C  
HETATM    6  C   UNL     1      -7.460   7.208  67.258  1.00  0.00    -0.099 C  
HETATM    7  N   UNL     1      -9.530   6.037  70.094  1.00  0.00    -0.156 N  
HETATM    8  O   UNL     1     -11.738   6.236  69.324  1.00  0.00    -0.262 OA 
HETATM    9  C   UNL     1     -10.531   6.352  69.182  1.00  0.00    -0.229 C  
BRANCH   7  10
HETATM   10  C   UNL     1      -9.666   5.824  71.454  1.00  0.00    -0.167 C  
HETATM   11  O   UNL     1      -8.762   5.352  72.140  1.00  0.00    -0.129 OA 
BRANCH  10  12
HETATM   12  N   UNL     1     -10.868   6.216  71.984  1.00  0.00    -0.236 N  
HETATM   13  H   UNL     1     -11.671   5.595  71.879  1.00  0.00     0.000 HD 
BRANCH  12  14
HETATM   14  C   UNL     1     -11.052   7.470  72.686  1.00  0.00    -0.347 C  
BRANCH  14  15
HETATM   15  C   UNL     1      -9.995   8.527  72.322  1.00  0.00    -0.385 C  
BRANCH  15  16
HETATM   16  C   UNL     1     -10.391   9.448  71.181  1.00  0.00    -0.377 A  
HETATM   17  C   UNL     1      -9.500   9.757  70.143  1.00  0.00    -0.277 A  
HETATM   18  C   UNL     1      -9.856  10.650  69.131  1.00  0.00    -0.217 A  
HETATM   19  C   UNL     1     -11.137  11.200  69.098  1.00  0.00    -0.248 A  
HETATM   20  C   UNL     1     -12.058  10.871  70.097  1.00  0.00    -0.431 A  
HETATM   21  C   UNL     1     -11.686   9.994  71.127  1.00  0.00    -0.472 A  
BRANCH  19  22
HETATM   22  S   UNL     1     -11.525  12.443  67.880  1.00  0.00    -0.348 S  
HETATM   23  O   UNL     1     -12.125  11.763  66.750  1.00  0.00    -0.547 OA 
HETATM   24  O   UNL     1     -12.224  13.530  68.529  1.00  0.00    -0.320 OA 
BRANCH  22  25
HETATM   25  N   UNL     1     -10.043  12.984  67.323  1.00  0.00    -0.233 N  
HETATM   26  H   UNL     1      -9.208  12.460  67.584  1.00  0.00     0.000 HD 
BRANCH  25  27
HETATM   27  C   UNL     1      -9.891  14.103  66.528  1.00  0.00    -0.290 C  
HETATM   28  O   UNL     1     -10.515  14.264  65.490  1.00  0.00    -0.309 OA 
BRANCH  27  29
HETATM   29  N   UNL     1      -8.984  15.025  66.993  1.00  0.00    -0.219 N  
HETATM   30  H   UNL     1      -8.081  15.147  66.534  1.00  0.00     0.000 HD 
BRANCH  29  31
HETATM   31  C   UNL     1      -9.344  15.827  68.160  1.00  0.00    -0.194 C  
HETATM   32  C   UNL     1      -8.204  16.731  68.645  1.00  0.00    -0.252 C  
HETATM   33  C   UNL     1      -8.100  18.076  67.928  1.00  0.00    -0.243 C  
HETATM   34  C   UNL     1      -9.441  18.806  67.803  1.00  0.00    -0.333 C  
HETATM   35  C   UNL     1     -10.475  17.882  67.152  1.00  0.00    -0.359 C  
HETATM   36  C   UNL     1      -9.934  19.356  69.147  1.00  0.00    -0.412 C  
HETATM   37  C   UNL     1     -10.662  16.580  67.928  1.00  0.00    -0.337 C  
ENDBRANCH  29  31
ENDBRANCH  27  29
ENDBRANCH  25  27
ENDBRANCH  22  25
ENDBRANCH  19  22
ENDBRANCH  15  16
ENDBRANCH  14  15
ENDBRANCH  12  14
ENDBRANCH  10  12
ENDBRANCH   7  10
ENDBRANCH   2   3
TORSDOF 11
ENDMDL
MODEL      104
REMARK 921   NORMALIZED FREE ENERGY PREDICTED BY IDOCK:   -5.60 KCAL/MOL
REMARK 922        TOTAL FREE ENERGY PREDICTED BY IDOCK:  -11.50 KCAL/MOL
REMARK 923 INTER-LIGAND FREE ENERGY PREDICTED BY IDOCK:  -10.11 KCAL/MOL
REMARK 924 INTRA-LIGAND FREE ENERGY PREDICTED BY IDOCK:   -1.39 KCAL/MOL
REMARK 927      BINDING AFFINITY PREDICTED BY RF-SCORE:    0.00 PKD
ROOT
HETATM    1  C   UNL     1      -9.289  20.004  66.065  1.00  0.00    -0.351 C  
HETATM    2  C   UNL     1     -10.586  19.210  66.004  1.00  0.00    -0.524 C  
ENDROOT
BRANCH   2   3
HETATM    3  C   UNL     1     -10.354  17.760  66.241  1.00  0.00    -0.358 C  
HETATM    4  C   UNL     1      -9.771  17.110  67.259  1.00  0.00    -0.254 C  
HETATM    5  C   UNL     1      -9.763  15.629  67.055  1.00  0.00    -0.227 C  
HETATM    6  C   UNL     1      -9.217  17.693  68.510  1.00  0.00    -0.281 C  
HETATM    7  N   UNL     1     -10.497  15.488  65.827  1.00  0.00    -0.337 N  
HETATM    8  O   UNL     1     -11.322  16.967  64.202  1.00  0.00    -1.208 OA 
HETATM    9  C   UNL     1     -10.798  16.729  65.279  1.00  0.00    -0.138 C  
BRANCH   7  10
HETATM   10  C   UNL     1     -10.989  14.255  65.441  1.00  0.00    -0.333 C  
HETATM   11  O   UNL     1     -10.615  13.688  64.416  1.00  0.00    -0.423 OA 
BRANCH  10  12
HETATM   12  N   UNL     1     -11.893  13.695  66.307  1.00  0.00    -0.370 N  
HETATM   13  H   UNL     1     -12.799  14.149  66.424  1.00  0.00     0.000 HD 
BRANCH  12  14
HETATM   14  C   UNL     1     -11.622  12.489  67.063  1.00  0.00    -0.368 C  
BRANCH  14  15
HETATM   15  C   UNL     1     -11.577  12.726  68.583  1.00  0.00    -0.352 C  
BRANCH  15  16
HETATM   16  C   UNL     1     -11.667  11.462  69.421  1.00  0.00    -0.406 A  
HETATM   17  C   UNL     1     -11.024  10.277  69.033  1.00  0.00    -0.274 A  
HETATM   18  C   UNL     1     -11.161   9.107  69.782  1.00  0.00    -0.140 A  
HETATM   19  C   UNL     1     -11.887   9.115  70.973  1.00  0.00    -0.292 A  
HETATM   20  C   UNL     1     -12.498  10.296  71.403  1.00  0.00    -0.528 A  
HETATM   21  C   UNL     1     -12.380  11.463  70.633  1.00  0.00    -0.466 A  
BRANCH  19  22
HETATM   22  S   UNL     1     -12.166   7.581  71.838  1.00  0.00    -0.301 S  
HETATM   23  O   UNL     1     -11.390   7.632  73.060  1.00  0.00    -0.372 OA 
HETATM   24  O   UNL     1     -13.589   7.327  71.890  1.00  0.00    -0.305 OA 
BRANCH  22  25
HETATM   25  N   UNL     1     -11.423   6.411  70.902  1.00  0.00    -0.338 N  
HETATM   26  H   UNL     1     -11.876   6.128  70.033  1.00  0.00     0.000 HD 
BRANCH  25  27
HETATM   27  C   UNL     1     -10.228   5.808  71.242  1.00  0.00    -0.215 C  
HETATM   28  O   UNL     1     -10.144   4.958  72.114  1.00  0.00    -0.179 OA 
BRANCH  27  29
HETATM   29  N   UNL     1      -9.138   6.236  70.522  1.00  0.00    -0.154 N  
HETATM   30  H   UNL     1      -9.164   6.265  69.503  1.00  0.00     0.000 HD 
BRANCH  29  31
HETATM   31  C   UNL     1      -7.940   6.647  71.251  1.00  0.00    -0.107 C  
HETATM   32  C   UNL     1      -6.666   6.583  70.401  1.00  0.00    -0.053 C  
HETATM   33  C   UNL     1      -6.399   7.821  69.546  1.00  0.00    -0.034 C  
HETATM   34  C   UNL     1      -6.550   9.138  70.315  1.00  0.00    -0.052 C  
HETATM   35  C   UNL     1      -7.923   9.188  70.993  1.00  0.00    -0.166 C  
HETATM   36  C   UNL     1      -5.410   9.362  71.316  1.00  0.00    -0.055 C  
HETATM   37  C   UNL     1      -8.149   8.007  71.935  1.00  0.00    -0.150 C  
ENDBRANCH  29  31
ENDBRANCH  27  29
ENDBRANCH  25  27
ENDBRANCH  22  25
ENDBRANCH  19  22
ENDBRANCH  15  16
ENDBRANCH  14  15
ENDBRANCH  12  14
ENDBRANCH  10  12
ENDBRANCH   7  10
ENDBRANCH   2   3
TORSDOF 11
ENDMDL
MODEL      105
REMARK 921   NORMALIZED FREE ENERGY PREDICTED BY IDOCK:   -5.55 KCAL/MOL
REMARK 922        TOTAL FREE ENERGY PREDICTED BY IDOCK:  -11.43 KCAL/MOL
REMARK 923 INTER-LIGAND FREE ENERGY PREDICTED BY IDOCK:   -9.83 KCAL/MOL
REMARK 924 INTRA-LIGAND FREE ENERGY PREDICTED BY IDOCK:   -1.60 KCAL/MOL
REMARK 927      BINDING AFFINITY PREDICTED BY RF-SCORE:    0.00 PKD
ROOT
HETATM    1  C   UNL     1      -8.488  18.293  66.293  1.00  0.00    -0.216 C  
HETATM    2  C   UNL     1     -10.004  18.214  66.402  1.00  0.00    -0.376 C  
ENDROOT
BRANCH   2   3
HETATM    3  C   UNL     1     -10.482  16.806  66.412  1.00  0.00    -0.269 C  
HETATM    4  C   UNL     1     -10.461  15.869  67.371  1.00  0.00    -0.306 C  
HETATM    5  C   UNL     1     -11.059  14.578  66.916  1.00  0.00    -0.325 C  
HETATM    6  C   UNL     1      -9.972  16.012  68.769  1.00  0.00    -0.224 C  
HETATM    7  N   UNL     1     -11.517  14.905  65.593  1.00  0.00    -0.325 N  
HETATM    8  O   UNL     1     -11.266  16.741  64.153  1.00  0.00    -1.155 OA 
HETATM    9  C   UNL     1     -11.128  16.190  65.234  1.00  0.00    -0.181 C  
BRANCH   7  10
HETATM   10  C   UNL     1     -12.409  14.079  64.934  1.00  0.00    -0.427 C  
HETATM   11  O   UNL     1     -13.519  13.811  65.390  1.00  0.00    -0.620 OA 
BRANCH  10  12
HETATM   12  N   UNL     1     -11.980  13.618  63.716  1.00  0.00    -0.692 N  
HETATM   13  H   UNL     1     -11.871  14.287  62.954  1.00  0.00     0.000 HD 
BRANCH  12  14
HETATM   14  C   UNL     1     -11.673  12.225  63.461  1.00  0.00    -0.499 C  
BRANCH  14  15
HETATM   15  C   UNL     1     -10.225  11.849  63.821  1.00  0.00    -0.442 C  
BRANCH  15  16
HETATM   16  C   UNL     1     -10.093  10.944  65.034  1.00  0.00    -0.362 A  
HETATM   17  C   UNL     1      -9.389   9.732  64.973  1.00  0.00    -0.325 A  
HETATM   18  C   UNL     1      -9.323   8.882  66.079  1.00  0.00    -0.306 A  
HETATM   19  C   UNL     1      -9.903   9.259  67.291  1.00  0.00    -0.182 A  
HETATM   20  C   UNL     1     -10.570  10.483  67.388  1.00  0.00    -0.313 A  
HETATM   21  C   UNL     1     -10.657  11.321  66.266  1.00  0.00    -0.315 A  
BRANCH  19  22
HETATM   22  S   UNL     1      -9.928   8.100  68.645  1.00  0.00    -0.194 S  
HETATM   23  O   UNL     1      -9.309   8.754  69.780  1.00  0.00    -0.158 OA 
HETATM   24  O   UNL     1     -11.260   7.548  68.761  1.00  0.00     0.115 OA 
BRANCH  22  25
HETATM   25  N   UNL     1      -8.859   6.892  68.206  1.00  0.00    -0.123 N  
HETATM   26  H   UNL     1      -8.135   7.112  67.521  1.00  0.00     0.000 HD 
BRANCH  25  27
HETATM   27  C   UNL     1      -8.902   5.611  68.721  1.00  0.00    -0.108 C  
HETATM   28  O   UNL     1      -8.280   4.682  68.230  1.00  0.00    -0.090 OA 
BRANCH  27  29
HETATM   29  N   UNL     1      -9.696   5.461  69.834  1.00  0.00    -0.170 N  
HETATM   30  H   UNL     1     -10.696   5.284  69.741  1.00  0.00     0.000 HD 
BRANCH  29  31
HETATM   31  C   UNL     1      -9.073   5.560  71.152  1.00  0.00    -0.142 C  
HETATM   32  C   UNL     1     -10.048   6.012  72.246  1.00  0.00    -0.205 C  
HETATM   33  C   UNL     1     -10.873   4.891  72.875  1.00  0.00    -0.313 C  
HETATM   34  C   UNL     1     -10.039   3.668  73.273  1.00  0.00    -0.206 C  
HETATM   35  C   UNL     1      -9.226   3.182  72.069  1.00  0.00    -0.174 C  
HETATM   36  C   UNL     1      -9.148   3.941  74.491  1.00  0.00    -0.108 C  
HETATM   37  C   UNL     1      -8.316   4.270  71.504  1.00  0.00    -0.096 C  
ENDBRANCH  29  31
ENDBRANCH  27  29
ENDBRANCH  25  27
ENDBRANCH  22  25
ENDBRANCH  19  22
ENDBRANCH  15  16
ENDBRANCH  14  15
ENDBRANCH  12  14
ENDBRANCH  10  12
ENDBRANCH   7  10
ENDBRANCH   2   3
TORSDOF 11
ENDMDL
MODEL      106
REMARK 921   NORMALIZED FREE ENERGY PREDICTED BY IDOCK:   -5.55 KCAL/MOL
REMARK 922        TOTAL FREE ENERGY PREDICTED BY IDOCK:  -11.43 KCAL/MOL
REMARK 923 INTER-LIGAND FREE ENERGY PREDICTED BY IDOCK:   -9.20 KCAL/MOL
REMARK 924 INTRA-LIGAND FREE ENERGY PREDICTED BY IDOCK:   -2.22 KCAL/MOL
REMARK 927      BINDING AFFINITY PREDICTED BY RF-SCORE:    0.00 PKD
ROOT
HETATM    1  C   UNL     1     -11.582  15.429  69.407  1.00  0.00    -0.354 C  
HETATM    2  C   UNL     1     -10.593  14.660  68.544  1.00  0.00    -0.245 C  
ENDROOT
BRANCH   2   3
HETATM    3  C   UNL     1     -10.904  14.796  67.096  1.00  0.00    -0.311 C  
HETATM    4  C   UNL     1     -10.492  15.685  66.180  1.00  0.00    -0.327 C  
HETATM    5  C   UNL     1     -11.083  15.425  64.832  1.00  0.00    -0.423 C  
HETATM    6  C   UNL     1      -9.525  16.800  66.368  1.00  0.00    -0.307 C  
HETATM    7  N   UNL     1     -11.826  14.215  65.055  1.00  0.00    -0.370 N  
HETATM    8  O   UNL     1     -12.407  12.942  66.939  1.00  0.00    -0.384 OA 
HETATM    9  C   UNL     1     -11.803  13.854  66.397  1.00  0.00    -0.411 C  
BRANCH   7  10
HETATM   10  C   UNL     1     -12.273  13.458  63.987  1.00  0.00    -0.405 C  
HETATM   11  O   UNL     1     -12.736  13.967  62.968  1.00  0.00    -0.634 OA 
BRANCH  10  12
HETATM   12  N   UNL     1     -12.123  12.103  64.134  1.00  0.00    -0.408 N  
HETATM   13  H   UNL     1     -12.770  11.607  64.748  1.00  0.00     0.000 HD 
BRANCH  12  14
HETATM   14  C   UNL     1     -11.090  11.343  63.460  1.00  0.00    -0.285 C  
BRANCH  14  15
HETATM   15  C   UNL     1      -9.674  11.670  63.965  1.00  0.00    -0.225 C  
BRANCH  15  16
HETATM   16  C   UNL     1      -9.211  10.820  65.136  1.00  0.00    -0.239 A  
HETATM   17  C   UNL     1      -8.410  11.351  66.158  1.00  0.00    -0.071 A  
HETATM   18  C   UNL     1      -7.944  10.546  67.199  1.00  0.00    -0.116 A  
HETATM   19  C   UNL     1      -8.327   9.207  67.277  1.00  0.00    -0.121 A  
HETATM   20  C   UNL     1      -9.163   8.667  66.295  1.00  0.00    -0.257 A  
HETATM   21  C   UNL     1      -9.606   9.474  65.236  1.00  0.00    -0.314 A  
BRANCH  19  22
HETATM   22  S   UNL     1      -7.610   8.164  68.533  1.00  0.00    -0.105 S  
HETATM   23  O   UNL     1      -6.291   7.782  68.070  1.00  0.00    -0.047 OA 
HETATM   24  O   UNL     1      -7.772   8.804  69.819  1.00  0.00    -0.079 OA 
BRANCH  22  25
HETATM   25  N   UNL     1      -8.508   6.753  68.493  1.00  0.00    -0.123 N  
HETATM   26  H   UNL     1      -8.816   6.403  67.585  1.00  0.00     0.000 HD 
BRANCH  25  27
HETATM   27  C   UNL     1      -8.854   6.038  69.622  1.00  0.00    -0.133 C  
HETATM   28  O   UNL     1      -8.622   4.845  69.743  1.00  0.00    -0.085 OA 
BRANCH  27  29
HETATM   29  N   UNL     1      -9.477   6.771  70.604  1.00  0.00    -0.169 N  
HETATM   30  H   UNL     1      -8.952   7.130  71.400  1.00  0.00     0.000 HD 
BRANCH  29  31
HETATM   31  C   UNL     1     -10.911   7.023  70.479  1.00  0.00    -0.265 C  
HETATM   32  C   UNL     1     -11.692   6.705  71.760  1.00  0.00    -0.363 C  
HETATM   33  C   UNL     1     -11.726   7.833  72.790  1.00  0.00    -0.312 C  
HETATM   34  C   UNL     1     -12.077   9.198  72.189  1.00  0.00    -0.389 C  
HETATM   35  C   UNL     1     -11.134   9.508  71.022  1.00  0.00    -0.433 C  
HETATM   36  C   UNL     1     -13.550   9.290  71.772  1.00  0.00    -0.465 C  
HETATM   37  C   UNL     1     -11.179   8.435  69.937  1.00  0.00    -0.029 C  
ENDBRANCH  29  31
ENDBRANCH  27  29
ENDBRANCH  25  27
ENDBRANCH  22  25
ENDBRANCH  19  22
ENDBRANCH  15  16
ENDBRANCH  14  15
ENDBRANCH  12  14
ENDBRANCH  10  12
ENDBRANCH   7  10
ENDBRANCH   2   3
TORSDOF 11
ENDMDL
MODEL      107
REMARK 921   NORMALIZED FREE ENERGY PREDICTED BY IDOCK:   -5.54 KCAL/MOL
REMARK 922        TOTAL FREE ENERGY PREDICTED BY IDOCK:  -11.41 KCAL/MOL
REMARK 923 INTER-LIGAND FREE ENERGY PREDICTED BY IDOCK:   -9.40 KCAL/MOL
REMARK 924 INTRA-LIGAND FREE ENERGY PREDICTED BY IDOCK:   -2.01 KCAL/MOL
REMARK 927      BINDING AFFINITY PREDICTED BY RF-SCORE:    0.00 PKD
ROOT
HETATM    1  C   UNL     1      -9.070  15.570  66.339  1.00  0.00    -0.351 C  
HETATM    2  C   UNL     1     -10.426  14.951  66.645  1.00  0.00    -0.292 C  
ENDROOT
BRANCH   2   3
HETATM    3  C   UNL     1     -10.767  13.871  65.681  1.00  0.00    -0.292 C  
HETATM    4  C   UNL     1     -11.650  13.829  64.672  1.00  0.00    -0.396 C  
HETATM    5  C   UNL     1     -11.648  12.509  63.972  1.00  0.00    -0.413 C  
HETATM    6  C   UNL     1     -12.534  14.925  64.193  1.00  0.00    -0.093 C  
HETATM    7  N   UNL     1     -10.585  11.811  64.642  1.00  0.00    -0.291 N  
HETATM    8  O   UNL     1      -9.260  12.221  66.536  1.00  0.00    -0.221 OA 
HETATM    9  C   UNL     1     -10.091  12.556  65.706  1.00  0.00    -0.262 C  
BRANCH   7  10
HETATM   10  C   UNL     1     -10.042  10.663  64.094  1.00  0.00    -0.334 C  
HETATM   11  O   UNL     1      -9.683  10.600  62.920  1.00  0.00    -0.317 OA 
BRANCH  10  12
HETATM   12  N   UNL     1      -9.897   9.616  64.969  1.00  0.00    -0.434 N  
HETATM   13  H   UNL     1     -10.729   9.257  65.438  1.00  0.00     0.000 HD 
BRANCH  12  14
HETATM   14  C   UNL     1      -8.619   8.998  65.258  1.00  0.00    -0.174 C  
BRANCH  14  15
HETATM   15  C   UNL     1      -8.753   7.599  65.885  1.00  0.00    -0.176 C  
BRANCH  15  16
HETATM   16  C   UNL     1      -9.353   7.589  67.280  1.00  0.00    -0.168 A  
HETATM   17  C   UNL     1     -10.267   6.602  67.680  1.00  0.00    -0.220 A  
HETATM   18  C   UNL     1     -10.855   6.637  68.946  1.00  0.00    -0.326 A  
HETATM   19  C   UNL     1     -10.490   7.621  69.864  1.00  0.00    -0.231 A  
HETATM   20  C   UNL     1      -9.547   8.589  69.504  1.00  0.00    -0.170 A  
HETATM   21  C   UNL     1      -8.979   8.565  68.221  1.00  0.00    -0.139 A  
BRANCH  19  22
HETATM   22  S   UNL     1     -11.354   7.731  71.420  1.00  0.00    -0.258 S  
HETATM   23  O   UNL     1     -11.794   6.393  71.760  1.00  0.00    -0.314 OA 
HETATM   24  O   UNL     1     -10.546   8.489  72.349  1.00  0.00    -0.329 OA 
BRANCH  22  25
HETATM   25  N   UNL     1     -12.757   8.574  71.080  1.00  0.00    -0.494 N  
HETATM   26  H   UNL     1     -13.263   8.347  70.223  1.00  0.00     0.000 HD 
BRANCH  25  27
HETATM   27  C   UNL     1     -13.269   9.562  71.898  1.00  0.00    -0.439 C  
HETATM   28  O   UNL     1     -14.210   9.371  72.653  1.00  0.00    -0.432 OA 
BRANCH  27  29
HETATM   29  N   UNL     1     -12.638  10.780  71.802  1.00  0.00    -0.343 N  
HETATM   30  H   UNL     1     -11.672  10.892  72.110  1.00  0.00     0.000 HD 
BRANCH  29  31
HETATM   31  C   UNL     1     -13.383  11.908  71.248  1.00  0.00     0.200 C  
HETATM   32  C   UNL     1     -13.774  12.948  72.305  1.00  0.00    -0.553 C  
HETATM   33  C   UNL     1     -12.699  13.989  72.612  1.00  0.00    -0.324 C  
HETATM   34  C   UNL     1     -12.071  14.606  71.357  1.00  0.00    -0.416 C  
HETATM   35  C   UNL     1     -11.554  13.495  70.437  1.00  0.00    -0.078 C  
HETATM   36  C   UNL     1     -13.034  15.550  70.627  1.00  0.00    -0.425 C  
HETATM   37  C   UNL     1     -12.653  12.512  70.039  1.00  0.00     0.109 C  
ENDBRANCH  29  31
ENDBRANCH  27  29
ENDBRANCH  25  27
ENDBRANCH  22  25
ENDBRANCH  19  22
ENDBRANCH  15  16
ENDBRANCH  14  15
ENDBRANCH  12  14
ENDBRANCH  10  12
ENDBRANCH   7  10
ENDBRANCH   2   3
TORSDOF 11
ENDMDL
MODEL      108
REMARK 921   NORMALIZED FREE ENERGY PREDICTED BY IDOCK:   -5.54 KCAL/MOL
REMARK 922        TOTAL FREE ENERGY PREDICTED BY IDOCK:  -11.41 KCAL/MOL
REMARK 923 INTER-LIGAND FREE ENERGY PREDICTED BY IDOCK:   -9.52 KCAL/MOL
REMARK 924 INTRA-LIGAND FREE ENERGY PREDICTED BY IDOCK:   -1.88 KCAL/MOL
REMARK 927      BINDING AFFINITY PREDICTED BY RF-SCORE:    0.00 PKD
ROOT
HETATM    1  C   UNL     1      -9.049   9.093  70.792  1.00  0.00    -0.313 C  
HETATM    2  C   UNL     1     -10.339   9.103  69.986  1.00  0.00    -0.231 C  
ENDROOT
BRANCH   2   3
HETATM    3  C   UNL     1     -11.344  10.032  70.568  1.00  0.00    -0.409 C  
HETATM    4  C   UNL     1     -12.267   9.856  71.525  1.00  0.00    -0.505 C  
HETATM    5  C   UNL     1     -13.067  11.092  71.776  1.00  0.00    -0.431 C  
HETATM    6  C   UNL     1     -12.509   8.633  72.338  1.00  0.00    -0.428 C  
HETATM    7  N   UNL     1     -12.436  12.045  70.904  1.00  0.00    -0.347 N  
HETATM    8  O   UNL     1     -10.810  11.932  69.215  1.00  0.00    -0.200 OA 
HETATM    9  C   UNL     1     -11.462  11.437  70.121  1.00  0.00    -0.214 C  
BRANCH   7  10
HETATM   10  C   UNL     1     -12.670  13.400  71.056  1.00  0.00    -0.307 C  
HETATM   11  O   UNL     1     -13.580  13.836  71.758  1.00  0.00    -0.364 OA 
BRANCH  10  12
HETATM   12  N   UNL     1     -11.786  14.217  70.400  1.00  0.00    -0.437 N  
HETATM   13  H   UNL     1     -10.808  13.931  70.346  1.00  0.00     0.000 HD 
BRANCH  12  14
HETATM   14  C   UNL     1     -12.175  15.467  69.778  1.00  0.00    -0.306 C  
BRANCH  14  15
HETATM   15  C   UNL     1     -11.220  15.906  68.654  1.00  0.00    -0.360 C  
BRANCH  15  16
HETATM   16  C   UNL     1     -10.993  14.860  67.576  1.00  0.00    -0.302 A  
HETATM   17  C   UNL     1     -12.064  14.275  66.883  1.00  0.00    -0.440 A  
HETATM   18  C   UNL     1     -11.846  13.274  65.935  1.00  0.00    -0.436 A  
HETATM   19  C   UNL     1     -10.547  12.885  65.610  1.00  0.00    -0.277 A  
HETATM   20  C   UNL     1      -9.462  13.486  66.254  1.00  0.00    -0.199 A  
HETATM   21  C   UNL     1      -9.687  14.472  67.226  1.00  0.00    -0.232 A  
BRANCH  19  22
HETATM   22  S   UNL     1     -10.296  11.510  64.502  1.00  0.00    -0.325 S  
HETATM   23  O   UNL     1     -11.420  11.487  63.588  1.00  0.00    -0.412 OA 
HETATM   24  O   UNL     1      -8.944  11.563  63.991  1.00  0.00     0.089 OA 
BRANCH  22  25
HETATM   25  N   UNL     1     -10.482  10.146  65.452  1.00  0.00    -0.109 N  
HETATM   26  H   UNL     1     -11.340  10.049  65.996  1.00  0.00     0.000 HD 
BRANCH  25  27
HETATM   27  C   UNL     1      -9.536   9.143  65.538  1.00  0.00    -0.169 C  
HETATM   28  O   UNL     1      -8.663   8.987  64.699  1.00  0.00    -0.179 OA 
BRANCH  27  29
HETATM   29  N   UNL     1      -9.650   8.333  66.644  1.00  0.00    -0.213 N  
HETATM   30  H   UNL     1      -9.906   8.722  67.551  1.00  0.00     0.000 HD 
BRANCH  29  31
HETATM   31  C   UNL     1      -9.394   6.903  66.487  1.00  0.00    -0.158 C  
HETATM   32  C   UNL     1      -8.124   6.436  67.208  1.00  0.00    -0.113 C  
HETATM   33  C   UNL     1      -8.310   6.099  68.686  1.00  0.00    -0.114 C  
HETATM   34  C   UNL     1      -9.526   5.206  68.960  1.00  0.00    -0.186 C  
HETATM   35  C   UNL     1     -10.780   5.838  68.348  1.00  0.00    -0.283 C  
HETATM   36  C   UNL     1      -9.315   3.768  68.471  1.00  0.00    -0.227 C  
HETATM   37  C   UNL     1     -10.638   6.077  66.847  1.00  0.00    -0.384 C  
ENDBRANCH  29  31
ENDBRANCH  27  29
ENDBRANCH  25  27
ENDBRANCH  22  25
ENDBRANCH  19  22
ENDBRANCH  15  16
ENDBRANCH  14  15
ENDBRANCH  12  14
ENDBRANCH  10  12
ENDBRANCH   7  10
ENDBRANCH   2   3
TORSDOF 11
ENDMDL
MODEL      109
REMARK 921   NORMALIZED FREE ENERGY PREDICTED BY IDOCK:   -5.53 KCAL/MOL
REMARK 922        TOTAL FREE ENERGY PREDICTED BY IDOCK:  -11.39 KCAL/MOL
REMARK 923 INTER-LIGAND FREE ENERGY PREDICTED BY IDOCK:   -9.80 KCAL/MOL
REMARK 924 INTRA-LIGAND FREE ENERGY PREDICTED BY IDOCK:   -1.59 KCAL/MOL
REMARK 927      BINDING AFFINITY PREDICTED BY RF-SCORE:    0.00 PKD
ROOT
HETATM    1  C   UNL     1      -9.455   3.096  68.259  1.00  0.00    -0.215 C  
HETATM    2  C   UNL     1      -8.420   3.366  69.340  1.00  0.00    -0.096 C  
ENDROOT
BRANCH   2   3
HETATM    3  C   UNL     1      -8.196   4.823  69.536  1.00  0.00    -0.076 C  
HETATM    4  C   UNL     1      -7.506   5.719  68.815  1.00  0.00    -0.085 C  
HETATM    5  C   UNL     1      -7.560   7.089  69.411  1.00  0.00    -0.099 C  
HETATM    6  C   UNL     1      -6.785   5.492  67.534  1.00  0.00    -0.059 C  
HETATM    7  N   UNL     1      -8.445   6.899  70.527  1.00  0.00    -0.136 N  
HETATM    8  O   UNL     1      -9.431   5.044  71.573  1.00  0.00    -0.144 OA 
HETATM    9  C   UNL     1      -8.782   5.559  70.676  1.00  0.00    -0.129 C  
BRANCH   7  10
HETATM   10  C   UNL     1      -9.012   7.987  71.167  1.00  0.00    -0.141 C  
HETATM   11  O   UNL     1      -8.374   9.006  71.424  1.00  0.00    -0.273 OA 
BRANCH  10  12
HETATM   12  N   UNL     1     -10.346   7.857  71.456  1.00  0.00    -0.199 N  
HETATM   13  H   UNL     1     -10.612   7.437  72.346  1.00  0.00     0.000 HD 
BRANCH  12  14
HETATM   14  C   UNL     1     -11.396   8.289  70.555  1.00  0.00    -0.219 C  
BRANCH  14  15
HETATM   15  C   UNL     1     -12.536   9.036  71.269  1.00  0.00    -0.346 C  
BRANCH  15  16
HETATM   16  C   UNL     1     -12.484  10.548  71.127  1.00  0.00    -0.517 A  
HETATM   17  C   UNL     1     -13.086  11.395  72.069  1.00  0.00    -0.423 A  
HETATM   18  C   UNL     1     -13.081  12.780  71.897  1.00  0.00    -0.474 A  
HETATM   19  C   UNL     1     -12.413  13.352  70.813  1.00  0.00    -0.341 A  
HETATM   20  C   UNL     1     -11.767  12.530  69.886  1.00  0.00    -0.327 A  
HETATM   21  C   UNL     1     -11.798  11.136  70.049  1.00  0.00    -0.441 A  
BRANCH  19  22
HETATM   22  S   UNL     1     -12.538  15.109  70.537  1.00  0.00    -0.376 S  
HETATM   23  O   UNL     1     -13.885  15.504  70.895  1.00  0.00    -0.512 OA 
HETATM   24  O   UNL     1     -11.401  15.759  71.151  1.00  0.00    -0.351 OA 
BRANCH  22  25
HETATM   25  N   UNL     1     -12.459  15.295  68.876  1.00  0.00    -0.532 N  
HETATM   26  H   UNL     1     -13.274  15.033  68.321  1.00  0.00     0.000 HD 
BRANCH  25  27
HETATM   27  C   UNL     1     -11.349  15.785  68.216  1.00  0.00    -0.354 C  
HETATM   28  O   UNL     1     -11.229  16.961  67.913  1.00  0.00    -0.239 OA 
BRANCH  27  29
HETATM   29  N   UNL     1     -10.386  14.847  67.928  1.00  0.00    -0.235 N  
HETATM   30  H   UNL     1      -9.865  14.388  68.675  1.00  0.00     0.000 HD 
BRANCH  29  31
HETATM   31  C   UNL     1     -10.126  14.524  66.527  1.00  0.00    -0.274 C  
HETATM   32  C   UNL     1      -9.417  13.177  66.342  1.00  0.00    -0.226 C  
HETATM   33  C   UNL     1     -10.342  11.962  66.305  1.00  0.00    -0.259 C  
HETATM   34  C   UNL     1     -11.551  12.143  65.381  1.00  0.00    -0.383 C  
HETATM   35  C   UNL     1     -12.298  13.428  65.752  1.00  0.00    -0.513 C  
HETATM   36  C   UNL     1     -11.161  12.117  63.898  1.00  0.00    -0.470 C  
HETATM   37  C   UNL     1     -11.402  14.662  65.683  1.00  0.00    -0.338 C  
ENDBRANCH  29  31
ENDBRANCH  27  29
ENDBRANCH  25  27
ENDBRANCH  22  25
ENDBRANCH  19  22
ENDBRANCH  15  16
ENDBRANCH  14  15
ENDBRANCH  12  14
ENDBRANCH  10  12
ENDBRANCH   7  10
ENDBRANCH   2   3
TORSDOF 11
ENDMDL
MODEL      110
REMARK 921   NORMALIZED FREE ENERGY PREDICTED BY IDOCK:   -5.53 KCAL/MOL
REMARK 922        TOTAL FREE ENERGY PREDICTED BY IDOCK:  -11.39 KCAL/MOL
REMARK 923 INTER-LIGAND FREE ENERGY PREDICTED BY IDOCK:   -9.69 KCAL/MOL
REMARK 924 INTRA-LIGAND FREE ENERGY PREDICTED BY IDOCK:   -1.70 KCAL/MOL
REMARK 927      BINDING AFFINITY PREDICTED BY RF-SCORE:    0.00 PKD
ROOT
HETATM    1  C   UNL     1      -6.053  18.095  66.886  1.00  0.00    -0.176 C  
HETATM    2  C   UNL     1      -7.271  17.913  65.993  1.00  0.00    -0.325 C  
ENDROOT
BRANCH   2   3
HETATM    3  C   UNL     1      -8.521  17.783  66.788  1.00  0.00    -0.269 C  
HETATM    4  C   UNL     1      -9.330  18.706  67.328  1.00  0.00    -0.299 C  
HETATM    5  C   UNL     1     -10.483  18.095  68.055  1.00  0.00    -0.371 C  
HETATM    6  C   UNL     1      -9.212  20.186  67.227  1.00  0.00    -0.504 C  
HETATM    7  N   UNL     1     -10.297  16.693  67.796  1.00  0.00    -0.296 N  
HETATM    8  O   UNL     1      -8.602  15.392  66.825  1.00  0.00    -0.233 OA 
HETATM    9  C   UNL     1      -9.108  16.465  67.113  1.00  0.00    -0.205 C  
BRANCH   7  10
HETATM   10  C   UNL     1     -11.320  15.793  68.028  1.00  0.00    -0.310 C  
HETATM   11  O   UNL     1     -12.024  15.841  69.035  1.00  0.00    -0.385 OA 
BRANCH  10  12
HETATM   12  N   UNL     1     -11.518  14.871  67.032  1.00  0.00    -0.349 N  
HETATM   13  H   UNL     1     -11.536  15.197  66.065  1.00  0.00     0.000 HD 
BRANCH  12  14
HETATM   14  C   UNL     1     -11.702  13.457  67.288  1.00  0.00    -0.380 C  
BRANCH  14  15
HETATM   15  C   UNL     1     -10.652  12.875  68.250  1.00  0.00    -0.259 C  
BRANCH  15  16
HETATM   16  C   UNL     1     -11.163  11.750  69.134  1.00  0.00    -0.324 A  
HETATM   17  C   UNL     1     -12.045  11.993  70.197  1.00  0.00    -0.377 A  
HETATM   18  C   UNL     1     -12.462  10.959  71.037  1.00  0.00    -0.514 A  
HETATM   19  C   UNL     1     -12.060   9.647  70.789  1.00  0.00    -0.248 A  
HETATM   20  C   UNL     1     -11.219   9.373  69.707  1.00  0.00    -0.139 A  
HETATM   21  C   UNL     1     -10.780  10.420  68.882  1.00  0.00    -0.255 A  
BRANCH  19  22
HETATM   22  S   UNL     1     -12.489   8.365  71.952  1.00  0.00    -0.367 S  
HETATM   23  O   UNL     1     -13.345   8.966  72.955  1.00  0.00    -0.333 OA 
HETATM   24  O   UNL     1     -12.933   7.200  71.219  1.00  0.00    -0.383 OA 
BRANCH  22  25
HETATM   25  N   UNL     1     -11.065   8.012  72.755  1.00  0.00    -0.392 N  
HETATM   26  H   UNL     1     -10.408   8.772  72.933  1.00  0.00     0.000 HD 
BRANCH  25  27
HETATM   27  C   UNL     1     -10.730   6.745  73.190  1.00  0.00    -0.296 C  
HETATM   28  O   UNL     1     -10.406   6.508  74.343  1.00  0.00    -0.346 OA 
BRANCH  27  29
HETATM   29  N   UNL     1     -10.791   5.766  72.226  1.00  0.00    -0.237 N  
HETATM   30  H   UNL     1     -11.685   5.478  71.831  1.00  0.00     0.000 HD 
BRANCH  29  31
HETATM   31  C   UNL     1      -9.543   5.149  71.782  1.00  0.00    -0.152 C  
HETATM   32  C   UNL     1      -9.745   4.124  70.659  1.00  0.00    -0.273 C  
HETATM   33  C   UNL     1      -9.791   4.713  69.251  1.00  0.00    -0.260 C  
HETATM   34  C   UNL     1      -8.660   5.708  68.967  1.00  0.00    -0.105 C  
HETATM   35  C   UNL     1      -8.643   6.793  70.048  1.00  0.00    -0.141 C  
HETATM   36  C   UNL     1      -7.297   5.018  68.830  1.00  0.00    -0.062 C  
HETATM   37  C   UNL     1      -8.486   6.214  71.453  1.00  0.00    -0.128 C  
ENDBRANCH  29  31
ENDBRANCH  27  29
ENDBRANCH  25  27
ENDBRANCH  22  25
ENDBRANCH  19  22
ENDBRANCH  15  16
ENDBRANCH  14  15
ENDBRANCH  12  14
ENDBRANCH  10  12
ENDBRANCH   7  10
ENDBRANCH   2   3
TORSDOF 11
ENDMDL
MODEL      111
REMARK 921   NORMALIZED FREE ENERGY PREDICTED BY IDOCK:   -5.52 KCAL/MOL
REMARK 922        TOTAL FREE ENERGY PREDICTED BY IDOCK:  -11.38 KCAL/MOL
REMARK 923 INTER-LIGAND FREE ENERGY PREDICTED BY IDOCK:   -9.33 KCAL/MOL
REMARK 924 INTRA-LIGAND FREE ENERGY PREDICTED BY IDOCK:   -2.05 KCAL/MOL
REMARK 927      BINDING AFFINITY PREDICTED BY RF-SCORE:    0.00 PKD
ROOT
HETATM    1  C   UNL     1     -14.291  14.449  72.000  1.00  0.00    -0.636 C  
HETATM    2  C   UNL     1     -12.786  14.243  71.924  1.00  0.00    -0.429 C  
ENDROOT
BRANCH   2   3
HETATM    3  C   UNL     1     -12.380  13.626  70.633  1.00  0.00    -0.440 C  
HETATM    4  C   UNL     1     -12.219  12.344  70.273  1.00  0.00    -0.345 C  
HETATM    5  C   UNL     1     -11.788  12.204  68.849  1.00  0.00    -0.304 C  
HETATM    6  C   UNL     1     -12.467  11.132  71.100  1.00  0.00    -0.498 C  
HETATM    7  N   UNL     1     -11.803  13.567  68.392  1.00  0.00    -0.360 N  
HETATM    8  O   UNL     1     -12.066  15.662  69.416  1.00  0.00    -0.356 OA 
HETATM    9  C   UNL     1     -12.076  14.441  69.437  1.00  0.00    -0.297 C  
BRANCH   7  10
HETATM   10  C   UNL     1     -11.767  13.855  67.040  1.00  0.00    -0.397 C  
HETATM   11  O   UNL     1     -11.400  14.946  66.609  1.00  0.00    -0.349 OA 
BRANCH  10  12
HETATM   12  N   UNL     1     -12.131  12.820  66.218  1.00  0.00    -0.392 N  
HETATM   13  H   UNL     1     -13.077  12.445  66.298  1.00  0.00     0.000 HD 
BRANCH  12  14
HETATM   14  C   UNL     1     -11.237  12.233  65.240  1.00  0.00    -0.328 C  
BRANCH  14  15
HETATM   15  C   UNL     1      -9.777  12.167  65.721  1.00  0.00    -0.245 C  
BRANCH  15  16
HETATM   16  C   UNL     1      -9.278  10.764  66.027  1.00  0.00    -0.210 A  
HETATM   17  C   UNL     1      -7.911  10.487  66.178  1.00  0.00    -0.147 A  
HETATM   18  C   UNL     1      -7.462   9.185  66.402  1.00  0.00    -0.092 A  
HETATM   19  C   UNL     1      -8.375   8.141  66.549  1.00  0.00    -0.113 A  
HETATM   20  C   UNL     1      -9.745   8.401  66.448  1.00  0.00    -0.312 A  
HETATM   21  C   UNL     1     -10.191   9.708  66.196  1.00  0.00    -0.276 A  
BRANCH  19  22
HETATM   22  S   UNL     1      -7.777   6.468  66.693  1.00  0.00    -0.101 S  
HETATM   23  O   UNL     1      -7.182   6.115  65.421  1.00  0.00    -0.066 OA 
HETATM   24  O   UNL     1      -7.008   6.352  67.913  1.00  0.00    -0.071 OA 
BRANCH  22  25
HETATM   25  N   UNL     1      -9.152   5.522  66.806  1.00  0.00    -0.116 N  
HETATM   26  H   UNL     1      -9.865   5.618  66.083  1.00  0.00     0.000 HD 
BRANCH  25  27
HETATM   27  C   UNL     1      -9.373   4.618  67.826  1.00  0.00    -0.141 C  
HETATM   28  O   UNL     1      -9.651   3.447  67.620  1.00  0.00    -0.205 OA 
BRANCH  27  29
HETATM   29  N   UNL     1      -9.253   5.135  69.095  1.00  0.00    -0.105 N  
HETATM   30  H   UNL     1      -8.344   5.418  69.459  1.00  0.00     0.000 HD 
BRANCH  29  31
HETATM   31  C   UNL     1     -10.460   5.268  69.908  1.00  0.00    -0.281 C  
HETATM   32  C   UNL     1     -10.170   5.293  71.414  1.00  0.00    -0.279 C  
HETATM   33  C   UNL     1      -9.808   6.666  71.977  1.00  0.00    -0.166 C  
HETATM   34  C   UNL     1     -10.756   7.782  71.523  1.00  0.00    -0.255 C  
HETATM   35  C   UNL     1     -10.851   7.790  69.994  1.00  0.00    -0.243 C  
HETATM   36  C   UNL     1     -12.138   7.676  72.180  1.00  0.00    -0.325 C  
HETATM   37  C   UNL     1     -11.319   6.449  69.433  1.00  0.00    -0.443 C  
ENDBRANCH  29  31
ENDBRANCH  27  29
ENDBRANCH  25  27
ENDBRANCH  22  25
ENDBRANCH  19  22
ENDBRANCH  15  16
ENDBRANCH  14  15
ENDBRANCH  12  14
ENDBRANCH  10  12
ENDBRANCH   7  10
ENDBRANCH   2   3
TORSDOF 11
ENDMDL
MODEL      112
REMARK 921   NORMALIZED FREE ENERGY PREDICTED BY IDOCK:   -5.52 KCAL/MOL
REMARK 922        TOTAL FREE ENERGY PREDICTED BY IDOCK:  -11.37 KCAL/MOL
REMARK 923 INTER-LIGAND FREE ENERGY PREDICTED BY IDOCK:  -10.05 KCAL/MOL
REMARK 924 INTRA-LIGAND FREE ENERGY PREDICTED BY IDOCK:   -1.32 KCAL/MOL
REMARK 927      BINDING AFFINITY PREDICTED BY RF-SCORE:    0.00 PKD
ROOT
HETATM    1  C   UNL     1     -12.779  14.738  73.411  1.00  0.00    -0.588 C  
HETATM    2  C   UNL     1     -13.571  13.863  72.450  1.00  0.00    -0.676 C  
ENDROOT
BRANCH   2   3
HETATM    3  C   UNL     1     -12.849  13.664  71.165  1.00  0.00    -0.399 C  
HETATM    4  C   UNL     1     -12.355  12.559  70.587  1.00  0.00    -0.369 C  
HETATM    5  C   UNL     1     -11.695  12.851  69.278  1.00  0.00    -0.321 C  
HETATM    6  C   UNL     1     -12.448  11.158  71.079  1.00  0.00    -0.506 C  
HETATM    7  N   UNL     1     -11.943  14.257  69.120  1.00  0.00    -0.335 N  
HETATM    8  O   UNL     1     -12.817  15.957  70.483  1.00  0.00    -0.422 OA 
HETATM    9  C   UNL     1     -12.558  14.787  70.249  1.00  0.00    -0.315 C  
BRANCH   7  10
HETATM   10  C   UNL     1     -11.770  14.868  67.891  1.00  0.00    -0.321 C  
HETATM   11  O   UNL     1     -11.218  15.959  67.769  1.00  0.00    -0.326 OA 
BRANCH  10  12
HETATM   12  N   UNL     1     -12.223  14.145  66.817  1.00  0.00    -0.515 N  
HETATM   13  H   UNL     1     -12.925  13.423  66.978  1.00  0.00     0.000 HD 
BRANCH  12  14
HETATM   14  C   UNL     1     -11.750  14.358  65.464  1.00  0.00    -0.352 C  
BRANCH  14  15
HETATM   15  C   UNL     1     -10.350  13.770  65.213  1.00  0.00    -0.378 C  
BRANCH  15  16
HETATM   16  C   UNL     1     -10.033  12.529  66.031  1.00  0.00    -0.269 A  
HETATM   17  C   UNL     1     -10.684  11.309  65.798  1.00  0.00    -0.284 A  
HETATM   18  C   UNL     1     -10.425  10.192  66.594  1.00  0.00    -0.254 A  
HETATM   19  C   UNL     1      -9.457  10.252  67.596  1.00  0.00    -0.151 A  
HETATM   20  C   UNL     1      -8.762  11.445  67.817  1.00  0.00    -0.136 A  
HETATM   21  C   UNL     1      -9.046  12.573  67.032  1.00  0.00    -0.213 A  
BRANCH  19  22
HETATM   22  S   UNL     1      -9.241   8.861  68.690  1.00  0.00    -0.137 S  
HETATM   23  O   UNL     1     -10.369   7.975  68.483  1.00  0.00    -0.204 OA 
HETATM   24  O   UNL     1      -7.891   8.363  68.550  1.00  0.00    -0.115 OA 
BRANCH  22  25
HETATM   25  N   UNL     1      -9.453   9.480  70.229  1.00  0.00    -0.245 N  
HETATM   26  H   UNL     1      -9.980  10.347  70.333  1.00  0.00     0.000 HD 
BRANCH  25  27
HETATM   27  C   UNL     1      -8.953   8.879  71.367  1.00  0.00    -0.229 C  
HETATM   28  O   UNL     1      -7.795   9.016  71.731  1.00  0.00    -0.333 OA 
BRANCH  27  29
HETATM   29  N   UNL     1      -9.858   8.114  72.065  1.00  0.00    -0.209 N  
HETATM   30  H   UNL     1     -10.313   8.478  72.902  1.00  0.00     0.000 HD 
BRANCH  29  31
HETATM   31  C   UNL     1     -10.152   6.768  71.578  1.00  0.00    -0.181 C  
HETATM   32  C   UNL     1      -8.898   5.899  71.419  1.00  0.00    -0.137 C  
HETATM   33  C   UNL     1      -8.442   5.187  72.691  1.00  0.00    -0.117 C  
HETATM   34  C   UNL     1      -9.579   4.481  73.437  1.00  0.00    -0.134 C  
HETATM   35  C   UNL     1     -10.718   5.471  73.704  1.00  0.00    -0.321 C  
HETATM   36  C   UNL     1     -10.072   3.230  72.699  1.00  0.00    -0.232 C  
HETATM   37  C   UNL     1     -11.251   6.103  72.421  1.00  0.00    -0.329 C  
ENDBRANCH  29  31
ENDBRANCH  27  29
ENDBRANCH  25  27
ENDBRANCH  22  25
ENDBRANCH  19  22
ENDBRANCH  15  16
ENDBRANCH  14  15
ENDBRANCH  12  14
ENDBRANCH  10  12
ENDBRANCH   7  10
ENDBRANCH   2   3
TORSDOF 11
ENDMDL
MODEL      113
REMARK 921   NORMALIZED FREE ENERGY PREDICTED BY IDOCK:   -5.51 KCAL/MOL
REMARK 922        TOTAL FREE ENERGY PREDICTED BY IDOCK:  -11.36 KCAL/MOL
REMARK 923 INTER-LIGAND FREE ENERGY PREDICTED BY IDOCK:   -9.90 KCAL/MOL
REMARK 924 INTRA-LIGAND FREE ENERGY PREDICTED BY IDOCK:   -1.46 KCAL/MOL
REMARK 927      BINDING AFFINITY PREDICTED BY RF-SCORE:    0.00 PKD
ROOT
HETATM    1  C   UNL     1      -8.696  19.982  66.106  1.00  0.00    -0.310 C  
HETATM    2  C   UNL     1     -10.145  19.533  65.987  1.00  0.00    -0.521 C  
ENDROOT
BRANCH   2   3
HETATM    3  C   UNL     1     -10.390  18.264  66.722  1.00  0.00    -0.403 C  
HETATM    4  C   UNL     1     -10.653  17.023  66.286  1.00  0.00    -0.185 C  
HETATM    5  C   UNL     1     -10.834  16.054  67.409  1.00  0.00    -0.277 C  
HETATM    6  C   UNL     1     -10.723  16.551  64.876  1.00  0.00    -0.168 C  
HETATM    7  N   UNL     1     -10.556  16.868  68.560  1.00  0.00    -0.348 N  
HETATM    8  O   UNL     1     -10.204  19.159  68.932  1.00  0.00    -0.378 OA 
HETATM    9  C   UNL     1     -10.362  18.196  68.198  1.00  0.00    -0.379 C  
BRANCH   7  10
HETATM   10  C   UNL     1     -10.308  16.286  69.790  1.00  0.00    -0.219 C  
HETATM   11  O   UNL     1      -9.537  15.338  69.927  1.00  0.00    -0.207 OA 
BRANCH  10  12
HETATM   12  N   UNL     1     -10.954  16.871  70.849  1.00  0.00     0.008 N  
HETATM   13  H   UNL     1     -10.856  17.879  70.981  1.00  0.00     0.000 HD 
BRANCH  12  14
HETATM   14  C   UNL     1     -11.768  16.128  71.788  1.00  0.00    -0.488 C  
BRANCH  14  15
HETATM   15  C   UNL     1     -12.948  15.399  71.121  1.00  0.00    -0.545 C  
BRANCH  15  16
HETATM   16  C   UNL     1     -12.883  13.884  71.208  1.00  0.00    -0.435 A  
HETATM   17  C   UNL     1     -13.605  13.172  72.176  1.00  0.00    -0.637 A  
HETATM   18  C   UNL     1     -13.493  11.784  72.282  1.00  0.00    -0.143 A  
HETATM   19  C   UNL     1     -12.707  11.072  71.376  1.00  0.00    -0.429 A  
HETATM   20  C   UNL     1     -12.014  11.756  70.373  1.00  0.00    -0.422 A  
HETATM   21  C   UNL     1     -12.109  13.154  70.288  1.00  0.00    -0.399 A  
BRANCH  19  22
HETATM   22  S   UNL     1     -12.465   9.322  71.614  1.00  0.00    -0.394 S  
HETATM   23  O   UNL     1     -13.254   8.933  72.765  1.00  0.00    -0.389 OA 
HETATM   24  O   UNL     1     -12.648   8.649  70.346  1.00  0.00     0.337 OA 
BRANCH  22  25
HETATM   25  N   UNL     1     -10.875   9.164  72.106  1.00  0.00    -0.194 N  
HETATM   26  H   UNL     1     -10.347  10.012  72.316  1.00  0.00     0.000 HD 
BRANCH  25  27
HETATM   27  C   UNL     1     -10.237   7.947  72.245  1.00  0.00    -0.241 C  
HETATM   28  O   UNL     1      -9.481   7.701  73.172  1.00  0.00    -0.193 OA 
BRANCH  27  29
HETATM   29  N   UNL     1     -10.518   7.030  71.260  1.00  0.00    -0.207 N  
HETATM   30  H   UNL     1     -11.374   6.477  71.292  1.00  0.00     0.000 HD 
BRANCH  29  31
HETATM   31  C   UNL     1      -9.562   6.867  70.168  1.00  0.00    -0.161 C  
HETATM   32  C   UNL     1     -10.015   5.842  69.120  1.00  0.00    -0.214 C  
HETATM   33  C   UNL     1     -10.942   6.394  68.039  1.00  0.00    -0.400 C  
HETATM   34  C   UNL     1     -10.451   7.711  67.427  1.00  0.00    -0.367 C  
HETATM   35  C   UNL     1     -10.186   8.731  68.539  1.00  0.00    -0.220 C  
HETATM   36  C   UNL     1      -9.223   7.514  66.529  1.00  0.00    -0.217 C  
HETATM   37  C   UNL     1      -9.175   8.225  69.564  1.00  0.00    -0.158 C  
ENDBRANCH  29  31
ENDBRANCH  27  29
ENDBRANCH  25  27
ENDBRANCH  22  25
ENDBRANCH  19  22
ENDBRANCH  15  16
ENDBRANCH  14  15
ENDBRANCH  12  14
ENDBRANCH  10  12
ENDBRANCH   7  10
ENDBRANCH   2   3
TORSDOF 11
ENDMDL
MODEL      114
REMARK 921   NORMALIZED FREE ENERGY PREDICTED BY IDOCK:   -5.50 KCAL/MOL
REMARK 922        TOTAL FREE ENERGY PREDICTED BY IDOCK:  -11.34 KCAL/MOL
REMARK 923 INTER-LIGAND FREE ENERGY PREDICTED BY IDOCK:  -10.14 KCAL/MOL
REMARK 924 INTRA-LIGAND FREE ENERGY PREDICTED BY IDOCK:   -1.20 KCAL/MOL
REMARK 927      BINDING AFFINITY PREDICTED BY RF-SCORE:    0.00 PKD
ROOT
HETATM    1  C   UNL     1     -11.674   9.277  70.872  1.00  0.00    -0.360 C  
HETATM    2  C   UNL     1     -10.214   9.023  70.528  1.00  0.00    -0.268 C  
ENDROOT
BRANCH   2   3
HETATM    3  C   UNL     1     -10.057   8.510  69.141  1.00  0.00    -0.207 C  
HETATM    4  C   UNL     1     -10.427   7.350  68.577  1.00  0.00    -0.215 C  
HETATM    5  C   UNL     1     -10.048   7.276  67.133  1.00  0.00    -0.236 C  
HETATM    6  C   UNL     1     -11.177   6.232  69.210  1.00  0.00    -0.458 C  
HETATM    7  N   UNL     1      -9.486   8.578  66.899  1.00  0.00    -0.169 N  
HETATM    8  O   UNL     1      -8.897  10.403  68.252  1.00  0.00    -0.128 OA 
HETATM    9  C   UNL     1      -9.408   9.308  68.079  1.00  0.00    -0.133 C  
BRANCH   7  10
HETATM   10  C   UNL     1      -9.293   9.039  65.609  1.00  0.00    -0.222 C  
HETATM   11  O   UNL     1      -8.787   8.344  64.731  1.00  0.00    -0.051 OA 
BRANCH  10  12
HETATM   12  N   UNL     1      -9.747  10.312  65.376  1.00  0.00    -0.256 N  
HETATM   13  H   UNL     1      -9.689  10.995  66.132  1.00  0.00     0.000 HD 
BRANCH  12  14
HETATM   14  C   UNL     1     -10.304  10.733  64.106  1.00  0.00    -0.311 C  
BRANCH  14  15
HETATM   15  C   UNL     1     -11.421  11.781  64.254  1.00  0.00    -0.386 C  
BRANCH  15  16
HETATM   16  C   UNL     1     -10.962  13.115  64.819  1.00  0.00    -0.355 A  
HETATM   17  C   UNL     1     -11.517  14.327  64.385  1.00  0.00    -0.321 A  
HETATM   18  C   UNL     1     -11.047  15.549  64.870  1.00  0.00    -0.428 A  
HETATM   19  C   UNL     1     -10.057  15.581  65.853  1.00  0.00    -0.349 A  
HETATM   20  C   UNL     1      -9.521  14.383  66.335  1.00  0.00    -0.309 A  
HETATM   21  C   UNL     1      -9.978  13.159  65.824  1.00  0.00    -0.260 A  
BRANCH  19  22
HETATM   22  S   UNL     1      -9.374  17.149  66.356  1.00  0.00    -0.247 S  
HETATM   23  O   UNL     1      -8.080  17.277  65.717  1.00  0.00    -0.527 OA 
HETATM   24  O   UNL     1     -10.379  18.174  66.177  1.00  0.00    -0.401 OA 
BRANCH  22  25
HETATM   25  N   UNL     1      -9.037  16.975  67.985  1.00  0.00    -0.232 N  
HETATM   26  H   UNL     1      -8.080  16.747  68.259  1.00  0.00     0.000 HD 
BRANCH  25  27
HETATM   27  C   UNL     1      -9.984  17.123  68.979  1.00  0.00    -0.273 C  
HETATM   28  O   UNL     1     -10.428  18.211  69.309  1.00  0.00    -0.135 OA 
BRANCH  27  29
HETATM   29  N   UNL     1     -10.393  15.950  69.569  1.00  0.00    -0.257 N  
HETATM   30  H   UNL     1      -9.725  15.207  69.772  1.00  0.00     0.000 HD 
BRANCH  29  31
HETATM   31  C   UNL     1     -11.808  15.794  69.898  1.00  0.00    -0.344 C  
HETATM   32  C   UNL     1     -12.372  14.427  69.495  1.00  0.00    -0.263 C  
HETATM   33  C   UNL     1     -12.156  13.313  70.518  1.00  0.00    -0.391 C  
HETATM   34  C   UNL     1     -12.520  13.721  71.950  1.00  0.00    -0.203 C  
HETATM   35  C   UNL     1     -11.777  15.007  72.327  1.00  0.00    -0.423 C  
HETATM   36  C   UNL     1     -14.034  13.858  72.150  1.00  0.00    -0.639 C  
HETATM   37  C   UNL     1     -12.077  16.155  71.367  1.00  0.00    -0.384 C  
ENDBRANCH  29  31
ENDBRANCH  27  29
ENDBRANCH  25  27
ENDBRANCH  22  25
ENDBRANCH  19  22
ENDBRANCH  15  16
ENDBRANCH  14  15
ENDBRANCH  12  14
ENDBRANCH  10  12
ENDBRANCH   7  10
ENDBRANCH   2   3
TORSDOF 11
ENDMDL
MODEL      115
REMARK 921   NORMALIZED FREE ENERGY PREDICTED BY IDOCK:   -5.50 KCAL/MOL
REMARK 922        TOTAL FREE ENERGY PREDICTED BY IDOCK:  -11.34 KCAL/MOL
REMARK 923 INTER-LIGAND FREE ENERGY PREDICTED BY IDOCK:   -9.62 KCAL/MOL
REMARK 924 INTRA-LIGAND FREE ENERGY PREDICTED BY IDOCK:   -1.73 KCAL/MOL
REMARK 927      BINDING AFFINITY PREDICTED BY RF-SCORE:    0.00 PKD
ROOT
HETATM    1  C   UNL     1      -5.310  13.203  67.860  1.00  0.00    -0.112 C  
HETATM    2  C   UNL     1      -5.942  12.147  66.966  1.00  0.00    -0.095 C  
ENDROOT
BRANCH   2   3
HETATM    3  C   UNL     1      -6.935  11.323  67.706  1.00  0.00    -0.075 C  
HETATM    4  C   UNL     1      -8.068  11.658  68.341  1.00  0.00    -0.153 C  
HETATM    5  C   UNL     1      -8.745  10.475  68.955  1.00  0.00    -0.154 C  
HETATM    6  C   UNL     1      -8.691  13.006  68.437  1.00  0.00    -0.115 C  
HETATM    7  N   UNL     1      -7.910   9.389  68.521  1.00  0.00    -0.089 N  
HETATM    8  O   UNL     1      -5.838   9.215  67.431  1.00  0.00    -0.045 OA 
HETATM    9  C   UNL     1      -6.791   9.858  67.843  1.00  0.00    -0.076 C  
BRANCH   7  10
HETATM   10  C   UNL     1      -8.354   8.082  68.609  1.00  0.00    -0.127 C  
HETATM   11  O   UNL     1      -8.589   7.537  69.686  1.00  0.00    -0.134 OA 
BRANCH  10  12
HETATM   12  N   UNL     1      -8.551   7.455  67.405  1.00  0.00    -0.118 N  
HETATM   13  H   UNL     1      -7.924   6.694  67.145  1.00  0.00     0.000 HD 
BRANCH  12  14
HETATM   14  C   UNL     1      -9.609   7.823  66.485  1.00  0.00    -0.201 C  
BRANCH  14  15
HETATM   15  C   UNL     1      -9.132   8.757  65.360  1.00  0.00    -0.194 C  
BRANCH  15  16
HETATM   16  C   UNL     1      -9.823  10.110  65.330  1.00  0.00    -0.388 A  
HETATM   17  C   UNL     1      -9.609  11.021  64.285  1.00  0.00    -0.303 A  
HETATM   18  C   UNL     1     -10.205  12.283  64.298  1.00  0.00    -0.356 A  
HETATM   19  C   UNL     1     -11.083  12.636  65.323  1.00  0.00    -0.295 A  
HETATM   20  C   UNL     1     -11.347  11.727  66.352  1.00  0.00    -0.361 A  
HETATM   21  C   UNL     1     -10.724  10.470  66.348  1.00  0.00    -0.166 A  
BRANCH  19  22
HETATM   22  S   UNL     1     -11.721  14.299  65.395  1.00  0.00    -0.366 S  
HETATM   23  O   UNL     1     -10.587  15.197  65.311  1.00  0.00    -0.348 OA 
HETATM   24  O   UNL     1     -12.815  14.419  64.457  1.00  0.00    -0.634 OA 
BRANCH  22  25
HETATM   25  N   UNL     1     -12.299  14.477  66.955  1.00  0.00    -0.509 N  
HETATM   26  H   UNL     1     -13.185  14.031  67.195  1.00  0.00     0.000 HD 
BRANCH  25  27
HETATM   27  C   UNL     1     -11.641  15.194  67.934  1.00  0.00    -0.311 C  
HETATM   28  O   UNL     1     -10.514  15.637  67.781  1.00  0.00    -0.261 OA 
BRANCH  27  29
HETATM   29  N   UNL     1     -12.353  15.375  69.097  1.00  0.00    -0.609 N  
HETATM   30  H   UNL     1     -13.208  15.929  69.104  1.00  0.00     0.000 HD 
BRANCH  29  31
HETATM   31  C   UNL     1     -11.854  14.753  70.321  1.00  0.00    -0.302 C  
HETATM   32  C   UNL     1     -11.036  15.713  71.194  1.00  0.00    -0.245 C  
HETATM   33  C   UNL     1     -11.860  16.585  72.139  1.00  0.00    -0.360 C  
HETATM   34  C   UNL     1     -12.918  15.801  72.926  1.00  0.00    -0.600 C  
HETATM   35  C   UNL     1     -13.798  15.004  71.958  1.00  0.00    -0.578 C  
HETATM   36  C   UNL     1     -12.296  14.904  74.003  1.00  0.00    -0.536 C  
HETATM   37  C   UNL     1     -12.986  14.049  71.085  1.00  0.00    -0.402 C  
ENDBRANCH  29  31
ENDBRANCH  27  29
ENDBRANCH  25  27
ENDBRANCH  22  25
ENDBRANCH  19  22
ENDBRANCH  15  16
ENDBRANCH  14  15
ENDBRANCH  12  14
ENDBRANCH  10  12
ENDBRANCH   7  10
ENDBRANCH   2   3
TORSDOF 11
ENDMDL
MODEL      116
REMARK 921   NORMALIZED FREE ENERGY PREDICTED BY IDOCK:   -5.47 KCAL/MOL
REMARK 922        TOTAL FREE ENERGY PREDICTED BY IDOCK:  -11.29 KCAL/MOL
REMARK 923 INTER-LIGAND FREE ENERGY PREDICTED BY IDOCK:   -8.07 KCAL/MOL
REMARK 924 INTRA-LIGAND FREE ENERGY PREDICTED BY IDOCK:   -3.22 KCAL/MOL
REMARK 927      BINDING AFFINITY PREDICTED BY RF-SCORE:    0.00 PKD
ROOT
HETATM    1  C   UNL     1     -12.770  12.956  64.697  1.00  0.00    -0.403 C  
HETATM    2  C   UNL     1     -11.552  12.935  65.608  1.00  0.00    -0.401 C  
ENDROOT
BRANCH   2   3
HETATM    3  C   UNL     1     -10.872  11.612  65.588  1.00  0.00    -0.330 C  
HETATM    4  C   UNL     1     -10.085  11.033  64.669  1.00  0.00    -0.370 C  
HETATM    5  C   UNL     1      -9.630   9.673  65.088  1.00  0.00    -0.254 C  
HETATM    6  C   UNL     1      -9.616  11.612  63.381  1.00  0.00    -0.308 C  
HETATM    7  N   UNL     1     -10.180   9.563  66.412  1.00  0.00    -0.256 N  
HETATM    8  O   UNL     1     -11.671  10.834  67.705  1.00  0.00    -0.538 OA 
HETATM    9  C   UNL     1     -10.981  10.659  66.712  1.00  0.00    -0.115 C  
BRANCH   7  10
HETATM   10  C   UNL     1      -9.735   8.582  67.279  1.00  0.00    -0.183 C  
HETATM   11  O   UNL     1      -9.941   7.387  67.083  1.00  0.00    -0.175 OA 
BRANCH  10  12
HETATM   12  N   UNL     1      -9.012   9.041  68.351  1.00  0.00    -0.134 N  
HETATM   13  H   UNL     1      -9.395   8.910  69.287  1.00  0.00     0.000 HD 
BRANCH  12  14
HETATM   14  C   UNL     1      -7.731   9.704  68.215  1.00  0.00    -0.082 C  
BRANCH  14  15
HETATM   15  C   UNL     1      -7.471  10.747  69.316  1.00  0.00    -0.135 C  
BRANCH  15  16
HETATM   16  C   UNL     1      -7.400  12.182  68.819  1.00  0.00    -0.090 A  
HETATM   17  C   UNL     1      -6.724  13.176  69.542  1.00  0.00     0.023 A  
HETATM   18  C   UNL     1      -6.715  14.502  69.104  1.00  0.00    -0.115 A  
HETATM   19  C   UNL     1      -7.323  14.848  67.898  1.00  0.00    -0.147 A  
HETATM   20  C   UNL     1      -7.963  13.865  67.137  1.00  0.00    -0.072 A  
HETATM   21  C   UNL     1      -7.993  12.539  67.595  1.00  0.00    -0.170 A  
BRANCH  19  22
HETATM   22  S   UNL     1      -7.421  16.566  67.429  1.00  0.00    -0.164 S  
HETATM   23  O   UNL     1      -6.081  17.111  67.516  1.00  0.00    -0.124 OA 
HETATM   24  O   UNL     1      -8.169  16.670  66.195  1.00  0.00    -0.315 OA 
BRANCH  22  25
HETATM   25  N   UNL     1      -8.271  17.307  68.663  1.00  0.00    -0.266 N  
HETATM   26  H   UNL     1      -7.817  17.405  69.572  1.00  0.00     0.000 HD 
BRANCH  25  27
HETATM   27  C   UNL     1      -9.556  17.793  68.518  1.00  0.00    -0.322 C  
HETATM   28  O   UNL     1      -9.799  18.983  68.385  1.00  0.00    -0.345 OA 
BRANCH  27  29
HETATM   29  N   UNL     1     -10.543  16.836  68.532  1.00  0.00    -0.333 N  
HETATM   30  H   UNL     1     -11.339  16.899  67.898  1.00  0.00     0.000 HD 
BRANCH  29  31
HETATM   31  C   UNL     1     -10.424  15.729  69.478  1.00  0.00    -0.270 C  
HETATM   32  C   UNL     1     -11.101  16.012  70.825  1.00  0.00    -0.321 C  
HETATM   33  C   UNL     1     -12.597  15.707  70.870  1.00  0.00    -0.503 C  
HETATM   34  C   UNL     1     -12.958  14.336  70.286  1.00  0.00    -0.090 C  
HETATM   35  C   UNL     1     -12.384  14.208  68.871  1.00  0.00    -0.115 C  
HETATM   36  C   UNL     1     -12.510  13.181  71.190  1.00  0.00    -0.378 C  
HETATM   37  C   UNL     1     -10.870  14.406  68.838  1.00  0.00    -0.266 C  
ENDBRANCH  29  31
ENDBRANCH  27  29
ENDBRANCH  25  27
ENDBRANCH  22  25
ENDBRANCH  19  22
ENDBRANCH  15  16
ENDBRANCH  14  15
ENDBRANCH  12  14
ENDBRANCH  10  12
ENDBRANCH   7  10
ENDBRANCH   2   3
TORSDOF 11
ENDMDL
MODEL      117
REMARK 921   NORMALIZED FREE ENERGY PREDICTED BY IDOCK:   -5.47 KCAL/MOL
REMARK 922        TOTAL FREE ENERGY PREDICTED BY IDOCK:  -11.29 KCAL/MOL
REMARK 923 INTER-LIGAND FREE ENERGY PREDICTED BY IDOCK:   -9.97 KCAL/MOL
REMARK 924 INTRA-LIGAND FREE ENERGY PREDICTED BY IDOCK:   -1.32 KCAL/MOL
REMARK 927      BINDING AFFINITY PREDICTED BY RF-SCORE:    0.00 PKD
ROOT
HETATM    1  C   UNL     1     -12.900  14.797  73.315  1.00  0.00    -0.621 C  
HETATM    2  C   UNL     1     -13.723  14.041  72.283  1.00  0.00    -0.646 C  
ENDROOT
BRANCH   2   3
HETATM    3  C   UNL     1     -12.894  13.609  71.126  1.00  0.00    -0.399 C  
HETATM    4  C   UNL     1     -12.486  12.394  70.732  1.00  0.00    -0.356 C  
HETATM    5  C   UNL     1     -11.651  12.451  69.493  1.00  0.00    -0.286 C  
HETATM    6  C   UNL     1     -12.814  11.081  71.350  1.00  0.00    -0.548 C  
HETATM    7  N   UNL     1     -11.696  13.848  69.161  1.00  0.00    -0.313 N  
HETATM    8  O   UNL     1     -12.489  15.786  70.221  1.00  0.00    -0.389 OA 
HETATM    9  C   UNL     1     -12.359  14.575  70.143  1.00  0.00    -0.342 C  
BRANCH   7  10
HETATM   10  C   UNL     1     -11.309  14.285  67.907  1.00  0.00    -0.297 C  
HETATM   11  O   UNL     1     -10.145  14.581  67.643  1.00  0.00    -0.227 OA 
BRANCH  10  12
HETATM   12  N   UNL     1     -12.311  14.323  66.972  1.00  0.00    -0.580 N  
HETATM   13  H   UNL     1     -12.969  15.103  66.996  1.00  0.00     0.000 HD 
BRANCH  12  14
HETATM   14  C   UNL     1     -12.481  13.308  65.952  1.00  0.00    -0.368 C  
BRANCH  14  15
HETATM   15  C   UNL     1     -11.259  13.171  65.027  1.00  0.00    -0.322 C  
BRANCH  15  16
HETATM   16  C   UNL     1     -10.535  11.839  65.134  1.00  0.00    -0.330 A  
HETATM   17  C   UNL     1     -10.421  11.161  66.356  1.00  0.00    -0.311 A  
HETATM   18  C   UNL     1      -9.705   9.966  66.452  1.00  0.00    -0.270 A  
HETATM   19  C   UNL     1      -9.146   9.388  65.312  1.00  0.00    -0.232 A  
HETATM   20  C   UNL     1      -9.286  10.023  64.074  1.00  0.00    -0.324 A  
HETATM   21  C   UNL     1      -9.984  11.237  63.988  1.00  0.00    -0.362 A  
BRANCH  19  22
HETATM   22  S   UNL     1      -8.119   7.941  65.478  1.00  0.00    -0.136 S  
HETATM   23  O   UNL     1      -7.515   7.693  64.185  1.00  0.00    -0.087 OA 
HETATM   24  O   UNL     1      -7.287   8.092  66.652  1.00  0.00    -0.085 OA 
BRANCH  22  25
HETATM   25  N   UNL     1      -9.186   6.673  65.708  1.00  0.00    -0.374 N  
HETATM   26  H   UNL     1      -9.229   5.943  64.996  1.00  0.00     0.000 HD 
BRANCH  25  27
HETATM   27  C   UNL     1     -10.011   6.563  66.809  1.00  0.00    -0.166 C  
HETATM   28  O   UNL     1     -11.224   6.692  66.740  1.00  0.00    -0.333 OA 
BRANCH  27  29
HETATM   29  N   UNL     1      -9.366   6.292  67.993  1.00  0.00    -0.116 N  
HETATM   30  H   UNL     1      -8.685   6.947  68.377  1.00  0.00     0.000 HD 
BRANCH  29  31
HETATM   31  C   UNL     1      -9.678   5.044  68.686  1.00  0.00    -0.158 C  
HETATM   32  C   UNL     1      -8.444   4.168  68.932  1.00  0.00    -0.099 C  
HETATM   33  C   UNL     1      -7.654   4.508  70.195  1.00  0.00    -0.053 C  
HETATM   34  C   UNL     1      -8.535   4.679  71.438  1.00  0.00    -0.113 C  
HETATM   35  C   UNL     1      -9.640   5.701  71.153  1.00  0.00    -0.208 C  
HETATM   36  C   UNL     1      -9.105   3.345  71.936  1.00  0.00    -0.164 C  
HETATM   37  C   UNL     1     -10.501   5.308  69.955  1.00  0.00    -0.351 C  
ENDBRANCH  29  31
ENDBRANCH  27  29
ENDBRANCH  25  27
ENDBRANCH  22  25
ENDBRANCH  19  22
ENDBRANCH  15  16
ENDBRANCH  14  15
ENDBRANCH  12  14
ENDBRANCH  10  12
ENDBRANCH   7  10
ENDBRANCH   2   3
TORSDOF 11
ENDMDL
MODEL      118
REMARK 921   NORMALIZED FREE ENERGY PREDICTED BY IDOCK:   -5.46 KCAL/MOL
REMARK 922        TOTAL FREE ENERGY PREDICTED BY IDOCK:  -11.28 KCAL/MOL
REMARK 923 INTER-LIGAND FREE ENERGY PREDICTED BY IDOCK:   -9.63 KCAL/MOL
REMARK 924 INTRA-LIGAND FREE ENERGY PREDICTED BY IDOCK:   -1.65 KCAL/MOL
REMARK 927      BINDING AFFINITY PREDICTED BY RF-SCORE:    0.00 PKD
ROOT
HETATM    1  C   UNL     1      -6.232  17.729  68.009  1.00  0.00    -0.167 C  
HETATM    2  C   UNL     1      -6.707  17.582  66.571  1.00  0.00    -0.276 C  
ENDROOT
BRANCH   2   3
HETATM    3  C   UNL     1      -8.179  17.387  66.495  1.00  0.00    -0.311 C  
HETATM    4  C   UNL     1      -9.186  18.267  66.391  1.00  0.00    -0.272 C  
HETATM    5  C   UNL     1     -10.522  17.597  66.353  1.00  0.00    -0.286 C  
HETATM    6  C   UNL     1      -9.090  19.746  66.267  1.00  0.00    -0.444 C  
HETATM    7  N   UNL     1     -10.164  16.205  66.358  1.00  0.00    -0.293 N  
HETATM    8  O   UNL     1      -8.172  15.001  66.659  1.00  0.00    -0.169 OA 
HETATM    9  C   UNL     1      -8.793  16.042  66.516  1.00  0.00    -0.305 C  
BRANCH   7  10
HETATM   10  C   UNL     1     -11.093  15.239  66.017  1.00  0.00    -0.278 C  
HETATM   11  O   UNL     1     -11.991  14.890  66.781  1.00  0.00    -0.263 OA 
BRANCH  10  12
HETATM   12  N   UNL     1     -10.962  14.732  64.750  1.00  0.00    -0.533 N  
HETATM   13  H   UNL     1     -10.383  15.240  64.081  1.00  0.00     0.000 HD 
BRANCH  12  14
HETATM   14  C   UNL     1     -11.608  13.509  64.316  1.00  0.00    -0.397 C  
BRANCH  14  15
HETATM   15  C   UNL     1     -10.616  12.361  64.058  1.00  0.00    -0.444 C  
BRANCH  15  16
HETATM   16  C   UNL     1     -10.561  11.317  65.160  1.00  0.00    -0.343 A  
HETATM   17  C   UNL     1     -11.147  11.541  66.414  1.00  0.00    -0.328 A  
HETATM   18  C   UNL     1     -11.040  10.597  67.437  1.00  0.00    -0.341 A  
HETATM   19  C   UNL     1     -10.402   9.379  67.205  1.00  0.00    -0.260 A  
HETATM   20  C   UNL     1      -9.851   9.114  65.949  1.00  0.00    -0.305 A  
HETATM   21  C   UNL     1      -9.937  10.077  64.932  1.00  0.00    -0.286 A  
BRANCH  19  22
HETATM   22  S   UNL     1     -10.154   8.249  68.562  1.00  0.00    -0.200 S  
HETATM   23  O   UNL     1     -10.483   6.922  68.080  1.00  0.00    -0.179 OA 
HETATM   24  O   UNL     1      -8.859   8.507  69.153  1.00  0.00    -0.140 OA 
BRANCH  22  25
HETATM   25  N   UNL     1     -11.356   8.620  69.664  1.00  0.00    -0.434 N  
HETATM   26  H   UNL     1     -12.271   8.897  69.306  1.00  0.00     0.000 HD 
BRANCH  25  27
HETATM   27  C   UNL     1     -11.177   8.571  71.032  1.00  0.00    -0.268 C  
HETATM   28  O   UNL     1     -11.636   9.414  71.788  1.00  0.00    -0.377 OA 
BRANCH  27  29
HETATM   29  N   UNL     1     -10.444   7.499  71.483  1.00  0.00    -0.204 N  
HETATM   30  H   UNL     1      -9.459   7.604  71.722  1.00  0.00     0.000 HD 
BRANCH  29  31
HETATM   31  C   UNL     1     -11.112   6.205  71.611  1.00  0.00    -0.276 C  
HETATM   32  C   UNL     1     -10.293   5.046  71.030  1.00  0.00    -0.254 C  
HETATM   33  C   UNL     1      -9.258   4.448  71.982  1.00  0.00    -0.169 C  
HETATM   34  C   UNL     1      -9.811   4.159  73.382  1.00  0.00    -0.160 C  
HETATM   35  C   UNL     1     -10.461   5.423  73.953  1.00  0.00    -0.313 C  
HETATM   36  C   UNL     1     -10.776   2.967  73.393  1.00  0.00    -0.283 C  
HETATM   37  C   UNL     1     -11.573   5.962  73.056  1.00  0.00    -0.067 C  
ENDBRANCH  29  31
ENDBRANCH  27  29
ENDBRANCH  25  27
ENDBRANCH  22  25
ENDBRANCH  19  22
ENDBRANCH  15  16
ENDBRANCH  14  15
ENDBRANCH  12  14
ENDBRANCH  10  12
ENDBRANCH   7  10
ENDBRANCH   2   3
TORSDOF 11
ENDMDL
MODEL      119
REMARK 921   NORMALIZED FREE ENERGY PREDICTED BY IDOCK:   -5.46 KCAL/MOL
REMARK 922        TOTAL FREE ENERGY PREDICTED BY IDOCK:  -11.28 KCAL/MOL
REMARK 923 INTER-LIGAND FREE ENERGY PREDICTED BY IDOCK:   -8.89 KCAL/MOL
REMARK 924 INTRA-LIGAND FREE ENERGY PREDICTED BY IDOCK:   -2.38 KCAL/MOL
REMARK 927      BINDING AFFINITY PREDICTED BY RF-SCORE:    0.00 PKD
ROOT
HETATM    1  C   UNL     1      -7.145  15.540  68.955  1.00  0.00    -0.134 C  
HETATM    2  C   UNL     1      -8.287  14.582  68.654  1.00  0.00    -0.164 C  
ENDROOT
BRANCH   2   3
HETATM    3  C   UNL     1      -9.434  15.276  68.010  1.00  0.00    -0.198 C  
HETATM    4  C   UNL     1     -10.408  16.043  68.523  1.00  0.00    -0.241 C  
HETATM    5  C   UNL     1     -11.359  16.527  67.476  1.00  0.00     0.143 C  
HETATM    6  C   UNL     1     -10.581  16.464  69.939  1.00  0.00    -0.245 C  
HETATM    7  N   UNL     1     -10.766  16.019  66.270  1.00  0.00    -0.276 N  
HETATM    8  O   UNL     1      -9.002  14.553  65.771  1.00  0.00     0.148 OA 
HETATM    9  C   UNL     1      -9.668  15.214  66.552  1.00  0.00    -0.271 C  
BRANCH   7  10
HETATM   10  C   UNL     1     -11.160  16.503  65.035  1.00  0.00    -0.166 C  
HETATM   11  O   UNL     1     -11.209  17.705  64.784  1.00  0.00    -0.834 OA 
BRANCH  10  12
HETATM   12  N   UNL     1     -11.450  15.540  64.102  1.00  0.00    -0.794 N  
HETATM   13  H   UNL     1     -10.898  15.513  63.245  1.00  0.00     0.000 HD 
BRANCH  12  14
HETATM   14  C   UNL     1     -12.504  14.562  64.276  1.00  0.00    -0.264 C  
BRANCH  14  15
HETATM   15  C   UNL     1     -12.012  13.111  64.130  1.00  0.00    -0.499 C  
BRANCH  15  16
HETATM   16  C   UNL     1     -11.606  12.449  65.436  1.00  0.00    -0.426 A  
HETATM   17  C   UNL     1     -10.686  11.391  65.468  1.00  0.00    -0.313 A  
HETATM   18  C   UNL     1     -10.365  10.753  66.667  1.00  0.00    -0.294 A  
HETATM   19  C   UNL     1     -10.905  11.206  67.871  1.00  0.00    -0.235 A  
HETATM   20  C   UNL     1     -11.789  12.289  67.869  1.00  0.00    -0.358 A  
HETATM   21  C   UNL     1     -12.130  12.909  66.657  1.00  0.00    -0.360 A  
BRANCH  19  22
HETATM   22  S   UNL     1     -10.592  10.292  69.369  1.00  0.00    -0.253 S  
HETATM   23  O   UNL     1      -9.177  10.411  69.656  1.00  0.00    -0.169 OA 
HETATM   24  O   UNL     1     -11.571  10.677  70.363  1.00  0.00    -0.306 OA 
BRANCH  22  25
HETATM   25  N   UNL     1     -10.817   8.687  68.956  1.00  0.00    -0.429 N  
HETATM   26  H   UNL     1     -11.755   8.382  68.696  1.00  0.00     0.000 HD 
BRANCH  25  27
HETATM   27  C   UNL     1      -9.800   7.753  68.946  1.00  0.00    -0.166 C  
HETATM   28  O   UNL     1      -9.479   7.138  67.941  1.00  0.00    -0.130 OA 
BRANCH  27  29
HETATM   29  N   UNL     1      -9.170   7.569  70.155  1.00  0.00    -0.154 N  
HETATM   30  H   UNL     1      -8.154   7.609  70.225  1.00  0.00     0.000 HD 
BRANCH  29  31
HETATM   31  C   UNL     1      -9.993   7.316  71.336  1.00  0.00    -0.187 C  
HETATM   32  C   UNL     1     -10.926   6.110  71.171  1.00  0.00    -0.343 C  
HETATM   33  C   UNL     1     -10.294   4.758  71.494  1.00  0.00    -0.203 C  
HETATM   34  C   UNL     1      -9.516   4.747  72.815  1.00  0.00    -0.154 C  
HETATM   35  C   UNL     1      -8.488   5.883  72.820  1.00  0.00    -0.122 C  
HETATM   36  C   UNL     1     -10.442   4.811  74.037  1.00  0.00    -0.328 C  
HETATM   37  C   UNL     1      -9.132   7.251  72.606  1.00  0.00    -0.169 C  
ENDBRANCH  29  31
ENDBRANCH  27  29
ENDBRANCH  25  27
ENDBRANCH  22  25
ENDBRANCH  19  22
ENDBRANCH  15  16
ENDBRANCH  14  15
ENDBRANCH  12  14
ENDBRANCH  10  12
ENDBRANCH   7  10
ENDBRANCH   2   3
TORSDOF 11
ENDMDL
MODEL      120
REMARK 921   NORMALIZED FREE ENERGY PREDICTED BY IDOCK:   -5.45 KCAL/MOL
REMARK 922        TOTAL FREE ENERGY PREDICTED BY IDOCK:  -11.26 KCAL/MOL
REMARK 923 INTER-LIGAND FREE ENERGY PREDICTED BY IDOCK:   -8.35 KCAL/MOL
REMARK 924 INTRA-LIGAND FREE ENERGY PREDICTED BY IDOCK:   -2.91 KCAL/MOL
REMARK 927      BINDING AFFINITY PREDICTED BY RF-SCORE:    0.00 PKD
ROOT
HETATM    1  C   UNL     1     -11.073  16.512  65.105  1.00  0.00    -0.134 C  
HETATM    2  C   UNL     1     -10.190  15.276  65.027  1.00  0.00    -0.324 C  
ENDROOT
BRANCH   2   3
HETATM    3  C   UNL     1     -10.867  14.079  65.593  1.00  0.00    -0.295 C  
HETATM    4  C   UNL     1     -11.679  13.171  65.032  1.00  0.00    -0.369 C  
HETATM    5  C   UNL     1     -12.128  12.133  66.008  1.00  0.00    -0.020 C  
HETATM    6  C   UNL     1     -12.101  13.087  63.608  1.00  0.00    -0.604 C  
HETATM    7  N   UNL     1     -11.403  12.497  67.195  1.00  0.00    -0.304 N  
HETATM    8  O   UNL     1     -10.071  14.320  67.836  1.00  0.00    -0.227 OA 
HETATM    9  C   UNL     1     -10.704  13.684  67.008  1.00  0.00    -0.278 C  
BRANCH   7  10
HETATM   10  C   UNL     1     -11.290  11.610  68.250  1.00  0.00    -0.285 C  
HETATM   11  O   UNL     1     -12.265  11.216  68.886  1.00  0.00    -0.522 OA 
BRANCH  10  12
HETATM   12  N   UNL     1     -10.015  11.174  68.505  1.00  0.00    -0.193 N  
HETATM   13  H   UNL     1      -9.566  11.467  69.373  1.00  0.00     0.000 HD 
BRANCH  12  14
HETATM   14  C   UNL     1      -9.276  10.316  67.600  1.00  0.00    -0.144 C  
BRANCH  14  15
HETATM   15  C   UNL     1     -10.121   9.160  67.038  1.00  0.00    -0.316 C  
BRANCH  15  16
HETATM   16  C   UNL     1      -9.838   7.808  67.669  1.00  0.00    -0.208 A  
HETATM   17  C   UNL     1     -10.762   6.755  67.595  1.00  0.00    -0.357 A  
HETATM   18  C   UNL     1     -10.515   5.536  68.228  1.00  0.00    -0.225 A  
HETATM   19  C   UNL     1      -9.306   5.320  68.891  1.00  0.00    -0.124 A  
HETATM   20  C   UNL     1      -8.351   6.339  68.938  1.00  0.00    -0.120 A  
HETATM   21  C   UNL     1      -8.616   7.572  68.323  1.00  0.00    -0.124 A  
BRANCH  19  22
HETATM   22  S   UNL     1      -9.070   3.810  69.809  1.00  0.00    -0.141 S  
HETATM   23  O   UNL     1      -9.547   2.724  68.978  1.00  0.00    -0.134 OA 
HETATM   24  O   UNL     1      -7.721   3.789  70.331  1.00  0.00    -0.047 OA 
BRANCH  22  25
HETATM   25  N   UNL     1     -10.158   3.896  71.077  1.00  0.00    -0.067 N  
HETATM   26  H   UNL     1     -11.105   3.550  70.924  1.00  0.00     0.000 HD 
BRANCH  25  27
HETATM   27  C   UNL     1      -9.842   4.410  72.319  1.00  0.00    -0.172 C  
HETATM   28  O   UNL     1      -9.889   3.742  73.340  1.00  0.00    -0.110 OA 
BRANCH  27  29
HETATM   29  N   UNL     1      -9.467   5.733  72.320  1.00  0.00    -0.145 N  
HETATM   30  H   UNL     1      -8.556   6.018  71.961  1.00  0.00     0.000 HD 
BRANCH  29  31
HETATM   31  C   UNL     1     -10.405   6.721  72.849  1.00  0.00    -0.221 C  
HETATM   32  C   UNL     1      -9.930   8.166  72.652  1.00  0.00    -0.371 C  
HETATM   33  C   UNL     1     -10.271   8.776  71.294  1.00  0.00    -0.332 C  
HETATM   34  C   UNL     1     -11.728   8.553  70.873  1.00  0.00    -0.274 C  
HETATM   35  C   UNL     1     -12.063   7.060  70.937  1.00  0.00    -0.403 C  
HETATM   36  C   UNL     1     -12.709   9.394  71.699  1.00  0.00    -0.459 C  
HETATM   37  C   UNL     1     -11.827   6.469  72.325  1.00  0.00    -0.299 C  
ENDBRANCH  29  31
ENDBRANCH  27  29
ENDBRANCH  25  27
ENDBRANCH  22  25
ENDBRANCH  19  22
ENDBRANCH  15  16
ENDBRANCH  14  15
ENDBRANCH  12  14
ENDBRANCH  10  12
ENDBRANCH   7  10
ENDBRANCH   2   3
TORSDOF 11
ENDMDL
MODEL      121
REMARK 921   NORMALIZED FREE ENERGY PREDICTED BY IDOCK:   -5.43 KCAL/MOL
REMARK 922        TOTAL FREE ENERGY PREDICTED BY IDOCK:  -11.23 KCAL/MOL
REMARK 923 INTER-LIGAND FREE ENERGY PREDICTED BY IDOCK:   -8.56 KCAL/MOL
REMARK 924 INTRA-LIGAND FREE ENERGY PREDICTED BY IDOCK:   -2.67 KCAL/MOL
REMARK 927      BINDING AFFINITY PREDICTED BY RF-SCORE:    0.00 PKD
ROOT
HETATM    1  C   UNL     1     -10.614   8.122  66.972  1.00  0.00    -0.346 C  
HETATM    2  C   UNL     1      -9.817   9.418  66.962  1.00  0.00    -0.258 C  
ENDROOT
BRANCH   2   3
HETATM    3  C   UNL     1     -10.126  10.246  65.767  1.00  0.00    -0.325 C  
HETATM    4  C   UNL     1      -9.562  10.295  64.551  1.00  0.00    -0.378 C  
HETATM    5  C   UNL     1     -10.217  11.302  63.662  1.00  0.00    -0.392 C  
HETATM    6  C   UNL     1      -8.449   9.455  64.032  1.00  0.00    -0.203 C  
HETATM    7  N   UNL     1     -11.297  11.775  64.483  1.00  0.00    -0.307 N  
HETATM    8  O   UNL     1     -11.931  11.490  66.725  1.00  0.00    -0.470 OA 
HETATM    9  C   UNL     1     -11.232  11.228  65.759  1.00  0.00    -0.014 C  
BRANCH   7  10
HETATM   10  C   UNL     1     -12.340  12.493  63.928  1.00  0.00    -0.485 C  
HETATM   11  O   UNL     1     -13.300  11.949  63.385  1.00  0.00    -0.569 OA 
BRANCH  10  12
HETATM   12  N   UNL     1     -12.244  13.855  64.065  1.00  0.00    -0.724 N  
HETATM   13  H   UNL     1     -11.738  14.380  63.351  1.00  0.00     0.000 HD 
BRANCH  12  14
HETATM   14  C   UNL     1     -12.825  14.581  65.175  1.00  0.00    -0.060 C  
BRANCH  14  15
HETATM   15  C   UNL     1     -11.804  15.453  65.928  1.00  0.00     0.319 C  
BRANCH  15  16
HETATM   16  C   UNL     1     -10.694  14.674  66.611  1.00  0.00    -0.305 A  
HETATM   17  C   UNL     1      -9.452  14.469  65.993  1.00  0.00    -0.262 A  
HETATM   18  C   UNL     1      -8.460  13.703  66.607  1.00  0.00     0.138 A  
HETATM   19  C   UNL     1      -8.664  13.182  67.885  1.00  0.00    -0.192 A  
HETATM   20  C   UNL     1      -9.877  13.413  68.541  1.00  0.00    -0.178 A  
HETATM   21  C   UNL     1     -10.881  14.160  67.907  1.00  0.00    -0.253 A  
BRANCH  19  22
HETATM   22  S   UNL     1      -7.443  12.092  68.592  1.00  0.00    -0.078 S  
HETATM   23  O   UNL     1      -6.875  11.322  67.504  1.00  0.00    -0.076 OA 
HETATM   24  O   UNL     1      -6.583  12.860  69.466  1.00  0.00    -0.102 OA 
BRANCH  22  25
HETATM   25  N   UNL     1      -8.315  10.988  69.495  1.00  0.00    -0.363 N  
HETATM   26  H   UNL     1      -9.330  11.082  69.525  1.00  0.00     0.000 HD 
BRANCH  25  27
HETATM   27  C   UNL     1      -7.734   9.954  70.203  1.00  0.00    -0.175 C  
HETATM   28  O   UNL     1      -6.774  10.117  70.939  1.00  0.00    -0.328 OA 
BRANCH  27  29
HETATM   29  N   UNL     1      -8.320   8.724  70.018  1.00  0.00    -0.120 N  
HETATM   30  H   UNL     1      -8.303   8.269  69.105  1.00  0.00     0.000 HD 
BRANCH  29  31
HETATM   31  C   UNL     1      -8.967   8.083  71.161  1.00  0.00    -0.141 C  
HETATM   32  C   UNL     1     -10.193   8.853  71.667  1.00  0.00    -0.415 C  
HETATM   33  C   UNL     1     -11.497   8.543  70.933  1.00  0.00    -0.302 C  
HETATM   34  C   UNL     1     -11.754   7.043  70.754  1.00  0.00    -0.394 C  
HETATM   35  C   UNL     1     -10.543   6.386  70.085  1.00  0.00    -0.294 C  
HETATM   36  C   UNL     1     -12.121   6.353  72.074  1.00  0.00    -0.353 C  
HETATM   37  C   UNL     1      -9.254   6.601  70.874  1.00  0.00    -0.157 C  
ENDBRANCH  29  31
ENDBRANCH  27  29
ENDBRANCH  25  27
ENDBRANCH  22  25
ENDBRANCH  19  22
ENDBRANCH  15  16
ENDBRANCH  14  15
ENDBRANCH  12  14
ENDBRANCH  10  12
ENDBRANCH   7  10
ENDBRANCH   2   3
TORSDOF 11
ENDMDL
MODEL      122
REMARK 921   NORMALIZED FREE ENERGY PREDICTED BY IDOCK:   -5.41 KCAL/MOL
REMARK 922        TOTAL FREE ENERGY PREDICTED BY IDOCK:  -11.20 KCAL/MOL
REMARK 923 INTER-LIGAND FREE ENERGY PREDICTED BY IDOCK:   -9.81 KCAL/MOL
REMARK 924 INTRA-LIGAND FREE ENERGY PREDICTED BY IDOCK:   -1.38 KCAL/MOL
REMARK 927      BINDING AFFINITY PREDICTED BY RF-SCORE:    0.00 PKD
ROOT
HETATM    1  C   UNL     1      -6.321  19.130  68.058  1.00  0.00    -0.234 C  
HETATM    2  C   UNL     1      -7.544  19.405  68.921  1.00  0.00    -0.398 C  
ENDROOT
BRANCH   2   3
HETATM    3  C   UNL     1      -8.778  18.826  68.327  1.00  0.00    -0.363 C  
HETATM    4  C   UNL     1      -9.682  19.342  67.482  1.00  0.00    -0.432 C  
HETATM    5  C   UNL     1     -10.776  18.375  67.161  1.00  0.00    -0.330 C  
HETATM    6  C   UNL     1      -9.663  20.685  66.842  1.00  0.00    -0.424 C  
HETATM    7  N   UNL     1     -10.349  17.193  67.858  1.00  0.00    -0.335 N  
HETATM    8  O   UNL     1      -8.650  16.690  69.398  1.00  0.00    -0.097 OA 
HETATM    9  C   UNL     1      -9.212  17.443  68.617  1.00  0.00    -0.265 C  
BRANCH   7  10
HETATM   10  C   UNL     1     -10.917  15.965  67.571  1.00  0.00    -0.280 C  
HETATM   11  O   UNL     1     -10.811  15.431  66.469  1.00  0.00    -0.309 OA 
BRANCH  10  12
HETATM   12  N   UNL     1     -11.570  15.370  68.620  1.00  0.00    -0.347 N  
HETATM   13  H   UNL     1     -11.937  15.965  69.364  1.00  0.00     0.000 HD 
BRANCH  12  14
HETATM   14  C   UNL     1     -11.764  13.938  68.723  1.00  0.00    -0.357 C  
BRANCH  14  15
HETATM   15  C   UNL     1     -12.265  13.494  70.108  1.00  0.00    -0.400 C  
BRANCH  15  16
HETATM   16  C   UNL     1     -12.049  12.021  70.414  1.00  0.00    -0.407 A  
HETATM   17  C   UNL     1     -12.843  11.340  71.348  1.00  0.00    -0.515 A  
HETATM   18  C   UNL     1     -12.597  10.002  71.662  1.00  0.00    -0.524 A  
HETATM   19  C   UNL     1     -11.595   9.297  70.996  1.00  0.00    -0.313 A  
HETATM   20  C   UNL     1     -10.821   9.942  70.027  1.00  0.00    -0.339 A  
HETATM   21  C   UNL     1     -11.054  11.295  69.735  1.00  0.00    -0.238 A  
BRANCH  19  22
HETATM   22  S   UNL     1     -11.206   7.635  71.510  1.00  0.00    -0.252 S  
HETATM   23  O   UNL     1     -11.259   7.611  72.958  1.00  0.00    -0.384 OA 
HETATM   24  O   UNL     1     -12.004   6.709  70.737  1.00  0.00    -0.382 OA 
BRANCH  22  25
HETATM   25  N   UNL     1      -9.589   7.429  71.133  1.00  0.00    -0.160 N  
HETATM   26  H   UNL     1      -8.982   8.249  71.146  1.00  0.00     0.000 HD 
BRANCH  25  27
HETATM   27  C   UNL     1      -9.033   6.208  70.805  1.00  0.00    -0.143 C  
HETATM   28  O   UNL     1      -8.119   5.708  71.443  1.00  0.00    -0.113 OA 
BRANCH  27  29
HETATM   29  N   UNL     1      -9.587   5.595  69.707  1.00  0.00    -0.153 N  
HETATM   30  H   UNL     1     -10.473   5.096  69.779  1.00  0.00     0.000 HD 
BRANCH  29  31
HETATM   31  C   UNL     1      -8.875   5.675  68.433  1.00  0.00    -0.108 C  
HETATM   32  C   UNL     1      -8.406   4.308  67.919  1.00  0.00    -0.096 C  
HETATM   33  C   UNL     1      -9.451   3.525  67.126  1.00  0.00    -0.219 C  
HETATM   34  C   UNL     1     -10.161   4.364  66.058  1.00  0.00    -0.260 C  
HETATM   35  C   UNL     1     -10.746   5.628  66.696  1.00  0.00    -0.339 C  
HETATM   36  C   UNL     1      -9.245   4.694  64.872  1.00  0.00    -0.144 C  
HETATM   37  C   UNL     1      -9.683   6.471  67.397  1.00  0.00    -0.150 C  
ENDBRANCH  29  31
ENDBRANCH  27  29
ENDBRANCH  25  27
ENDBRANCH  22  25
ENDBRANCH  19  22
ENDBRANCH  15  16
ENDBRANCH  14  15
ENDBRANCH  12  14
ENDBRANCH  10  12
ENDBRANCH   7  10
ENDBRANCH   2   3
TORSDOF 11
ENDMDL
MODEL      123
REMARK 921   NORMALIZED FREE ENERGY PREDICTED BY IDOCK:   -5.38 KCAL/MOL
REMARK 922        TOTAL FREE ENERGY PREDICTED BY IDOCK:  -11.15 KCAL/MOL
REMARK 923 INTER-LIGAND FREE ENERGY PREDICTED BY IDOCK:   -9.93 KCAL/MOL
REMARK 924 INTRA-LIGAND FREE ENERGY PREDICTED BY IDOCK:   -1.22 KCAL/MOL
REMARK 927      BINDING AFFINITY PREDICTED BY RF-SCORE:    0.00 PKD
ROOT
HETATM    1  C   UNL     1      -5.782   4.196  70.980  1.00  0.00    -0.013 C  
HETATM    2  C   UNL     1      -6.504   5.384  71.597  1.00  0.00    -0.040 C  
ENDROOT
BRANCH   2   3
HETATM    3  C   UNL     1      -7.976   5.175  71.633  1.00  0.00    -0.114 C  
HETATM    4  C   UNL     1      -8.750   4.461  72.463  1.00  0.00    -0.116 C  
HETATM    5  C   UNL     1     -10.198   4.544  72.100  1.00  0.00    -0.188 C  
HETATM    6  C   UNL     1      -8.326   3.688  73.662  1.00  0.00    -0.083 C  
HETATM    7  N   UNL     1     -10.183   5.472  71.003  1.00  0.00    -0.212 N  
HETATM    8  O   UNL     1      -8.511   6.490  69.708  1.00  0.00    -0.128 OA 
HETATM    9  C   UNL     1      -8.881   5.809  70.651  1.00  0.00    -0.140 C  
BRANCH   7  10
HETATM   10  C   UNL     1     -11.353   6.069  70.570  1.00  0.00    -0.240 C  
HETATM   11  O   UNL     1     -11.653   6.145  69.381  1.00  0.00    -0.372 OA 
BRANCH  10  12
HETATM   12  N   UNL     1     -12.171   6.530  71.570  1.00  0.00    -0.324 N  
HETATM   13  H   UNL     1     -12.084   6.117  72.499  1.00  0.00     0.000 HD 
BRANCH  12  14
HETATM   14  C   UNL     1     -13.153   7.577  71.369  1.00  0.00    -0.325 C  
BRANCH  14  15
HETATM   15  C   UNL     1     -12.805   8.881  72.107  1.00  0.00    -0.471 C  
BRANCH  15  16
HETATM   16  C   UNL     1     -12.394  10.028  71.199  1.00  0.00    -0.477 A  
HETATM   17  C   UNL     1     -11.533   9.831  70.110  1.00  0.00    -0.272 A  
HETATM   18  C   UNL     1     -11.118  10.902  69.317  1.00  0.00    -0.305 A  
HETATM   19  C   UNL     1     -11.610  12.186  69.557  1.00  0.00    -0.315 A  
HETATM   20  C   UNL     1     -12.505  12.399  70.609  1.00  0.00    -0.320 A  
HETATM   21  C   UNL     1     -12.898  11.323  71.420  1.00  0.00    -0.515 A  
BRANCH  19  22
HETATM   22  S   UNL     1     -10.960  13.560  68.625  1.00  0.00    -0.271 S  
HETATM   23  O   UNL     1      -9.672  13.151  68.101  1.00  0.00    -0.218 OA 
HETATM   24  O   UNL     1     -11.988  14.045  67.732  1.00  0.00    -0.362 OA 
BRANCH  22  25
HETATM   25  N   UNL     1     -10.610  14.733  69.765  1.00  0.00    -0.425 N  
HETATM   26  H   UNL     1      -9.776  14.613  70.341  1.00  0.00     0.000 HD 
BRANCH  25  27
HETATM   27  C   UNL     1     -11.389  15.854  69.968  1.00  0.00    -0.358 C  
HETATM   28  O   UNL     1     -12.540  15.793  70.373  1.00  0.00    -0.402 OA 
BRANCH  27  29
HETATM   29  N   UNL     1     -10.772  17.049  69.681  1.00  0.00    -0.347 N  
HETATM   30  H   UNL     1     -10.878  17.853  70.299  1.00  0.00     0.000 HD 
BRANCH  29  31
HETATM   31  C   UNL     1      -9.959  17.139  68.470  1.00  0.00    -0.309 C  
HETATM   32  C   UNL     1     -10.730  17.697  67.268  1.00  0.00    -0.234 C  
HETATM   33  C   UNL     1     -10.775  19.221  67.183  1.00  0.00    -0.584 C  
HETATM   34  C   UNL     1      -9.408  19.884  67.387  1.00  0.00    -0.468 C  
HETATM   35  C   UNL     1      -8.786  19.396  68.700  1.00  0.00    -0.417 C  
HETATM   36  C   UNL     1      -8.469  19.664  66.194  1.00  0.00    -0.354 C  
HETATM   37  C   UNL     1      -8.639  17.876  68.744  1.00  0.00    -0.208 C  
ENDBRANCH  29  31
ENDBRANCH  27  29
ENDBRANCH  25  27
ENDBRANCH  22  25
ENDBRANCH  19  22
ENDBRANCH  15  16
ENDBRANCH  14  15
ENDBRANCH  12  14
ENDBRANCH  10  12
ENDBRANCH   7  10
ENDBRANCH   2   3
TORSDOF 11
ENDMDL
MODEL      124
REMARK 921   NORMALIZED FREE ENERGY PREDICTED BY IDOCK:   -5.38 KCAL/MOL
REMARK 922        TOTAL FREE ENERGY PREDICTED BY IDOCK:  -11.14 KCAL/MOL
REMARK 923 INTER-LIGAND FREE ENERGY PREDICTED BY IDOCK:   -9.52 KCAL/MOL
REMARK 924 INTRA-LIGAND FREE ENERGY PREDICTED BY IDOCK:   -1.62 KCAL/MOL
REMARK 927      BINDING AFFINITY PREDICTED BY RF-SCORE:    0.00 PKD
ROOT
HETATM    1  C   UNL     1      -5.810  15.876  69.216  1.00  0.00    -0.120 C  
HETATM    2  C   UNL     1      -6.008  15.395  67.786  1.00  0.00    -0.164 C  
ENDROOT
BRANCH   2   3
HETATM    3  C   UNL     1      -7.333  15.802  67.247  1.00  0.00    -0.257 C  
HETATM    4  C   UNL     1      -7.708  16.871  66.530  1.00  0.00    -0.326 C  
HETATM    5  C   UNL     1      -9.169  16.858  66.215  1.00  0.00    -0.267 C  
HETATM    6  C   UNL     1      -6.844  17.967  66.013  1.00  0.00    -0.336 C  
HETATM    7  N   UNL     1      -9.587  15.597  66.765  1.00  0.00    -0.231 N  
HETATM    8  O   UNL     1      -8.585  13.953  68.107  1.00  0.00    -0.164 OA 
HETATM    9  C   UNL     1      -8.545  14.979  67.446  1.00  0.00    -0.192 C  
BRANCH   7  10
HETATM   10  C   UNL     1     -10.808  15.049  66.417  1.00  0.00    -0.326 C  
HETATM   11  O   UNL     1     -11.675  14.792  67.249  1.00  0.00    -0.379 OA 
BRANCH  10  12
HETATM   12  N   UNL     1     -10.993  14.854  65.072  1.00  0.00    -0.395 N  
HETATM   13  H   UNL     1     -10.240  15.115  64.435  1.00  0.00     0.000 HD 
BRANCH  12  14
HETATM   14  C   UNL     1     -12.207  14.295  64.513  1.00  0.00    -0.455 C  
BRANCH  14  15
HETATM   15  C   UNL     1     -11.954  13.061  63.630  1.00  0.00    -0.608 C  
BRANCH  15  16
HETATM   16  C   UNL     1     -11.158  11.956  64.305  1.00  0.00    -0.418 A  
HETATM   17  C   UNL     1     -11.333  11.648  65.662  1.00  0.00    -0.233 A  
HETATM   18  C   UNL     1     -10.556  10.670  66.284  1.00  0.00    -0.229 A  
HETATM   19  C   UNL     1      -9.633   9.930  65.544  1.00  0.00    -0.277 A  
HETATM   20  C   UNL     1      -9.474  10.187  64.179  1.00  0.00    -0.353 A  
HETATM   21  C   UNL     1     -10.239  11.191  63.565  1.00  0.00    -0.446 A  
BRANCH  19  22
HETATM   22  S   UNL     1      -8.554   8.786  66.384  1.00  0.00    -0.134 S  
HETATM   23  O   UNL     1      -7.671   8.218  65.385  1.00  0.00    -0.093 OA 
HETATM   24  O   UNL     1      -8.006   9.436  67.554  1.00  0.00    -0.102 OA 
BRANCH  22  25
HETATM   25  N   UNL     1      -9.542   7.522  66.857  1.00  0.00    -0.175 N  
HETATM   26  H   UNL     1     -10.417   7.377  66.352  1.00  0.00     0.000 HD 
BRANCH  25  27
HETATM   27  C   UNL     1      -9.237   6.664  67.895  1.00  0.00    -0.111 C  
HETATM   28  O   UNL     1      -8.788   5.543  67.714  1.00  0.00    -0.108 OA 
BRANCH  27  29
HETATM   29  N   UNL     1      -9.475   7.168  69.153  1.00  0.00    -0.148 N  
HETATM   30  H   UNL     1      -8.722   7.241  69.836  1.00  0.00     0.000 HD 
BRANCH  29  31
HETATM   31  C   UNL     1     -10.832   7.595  69.485  1.00  0.00    -0.165 C  
HETATM   32  C   UNL     1     -11.579   6.591  70.372  1.00  0.00    -0.470 C  
HETATM   33  C   UNL     1     -11.316   6.736  71.870  1.00  0.00    -0.306 C  
HETATM   34  C   UNL     1     -11.418   8.181  72.371  1.00  0.00    -0.462 C  
HETATM   35  C   UNL     1     -10.507   9.085  71.534  1.00  0.00    -0.410 C  
HETATM   36  C   UNL     1     -12.865   8.690  72.391  1.00  0.00    -0.413 C  
HETATM   37  C   UNL     1     -10.839   9.026  70.044  1.00  0.00    -0.247 C  
ENDBRANCH  29  31
ENDBRANCH  27  29
ENDBRANCH  25  27
ENDBRANCH  22  25
ENDBRANCH  19  22
ENDBRANCH  15  16
ENDBRANCH  14  15
ENDBRANCH  12  14
ENDBRANCH  10  12
ENDBRANCH   7  10
ENDBRANCH   2   3
TORSDOF 11
ENDMDL
MODEL      125
REMARK 921   NORMALIZED FREE ENERGY PREDICTED BY IDOCK:   -5.37 KCAL/MOL
REMARK 922        TOTAL FREE ENERGY PREDICTED BY IDOCK:  -11.13 KCAL/MOL
REMARK 923 INTER-LIGAND FREE ENERGY PREDICTED BY IDOCK:   -9.72 KCAL/MOL
REMARK 924 INTRA-LIGAND FREE ENERGY PREDICTED BY IDOCK:   -1.41 KCAL/MOL
REMARK 927      BINDING AFFINITY PREDICTED BY RF-SCORE:    0.00 PKD
ROOT
HETATM    1  C   UNL     1      -6.398  19.298  67.671  1.00  0.00    -0.222 C  
HETATM    2  C   UNL     1      -7.373  19.240  68.838  1.00  0.00    -0.392 C  
ENDROOT
BRANCH   2   3
HETATM    3  C   UNL     1      -8.715  18.762  68.409  1.00  0.00    -0.369 C  
HETATM    4  C   UNL     1      -9.698  19.371  67.730  1.00  0.00    -0.431 C  
HETATM    5  C   UNL     1     -10.885  18.485  67.535  1.00  0.00    -0.291 C  
HETATM    6  C   UNL     1      -9.687  20.742  67.151  1.00  0.00    -0.457 C  
HETATM    7  N   UNL     1     -10.437  17.246  68.109  1.00  0.00    -0.365 N  
HETATM    8  O   UNL     1      -8.568  16.571  69.358  1.00  0.00    -0.135 OA 
HETATM    9  C   UNL     1      -9.188  17.393  68.702  1.00  0.00    -0.265 C  
BRANCH   7  10
HETATM   10  C   UNL     1     -11.118  16.069  67.859  1.00  0.00    -0.307 C  
HETATM   11  O   UNL     1     -11.175  15.566  66.738  1.00  0.00    -0.265 OA 
BRANCH  10  12
HETATM   12  N   UNL     1     -11.687  15.483  68.961  1.00  0.00    -0.367 N  
HETATM   13  H   UNL     1     -12.003  16.085  69.722  1.00  0.00     0.000 HD 
BRANCH  12  14
HETATM   14  C   UNL     1     -11.862  14.051  69.095  1.00  0.00    -0.350 C  
BRANCH  14  15
HETATM   15  C   UNL     1     -12.165  13.612  70.538  1.00  0.00    -0.438 C  
BRANCH  15  16
HETATM   16  C   UNL     1     -12.244  12.108  70.736  1.00  0.00    -0.367 A  
HETATM   17  C   UNL     1     -13.076  11.538  71.711  1.00  0.00    -0.503 A  
HETATM   18  C   UNL     1     -13.096  10.158  71.921  1.00  0.00    -0.571 A  
HETATM   19  C   UNL     1     -12.335   9.312  71.113  1.00  0.00    -0.293 A  
HETATM   20  C   UNL     1     -11.534   9.855  70.104  1.00  0.00    -0.309 A  
HETATM   21  C   UNL     1     -11.496  11.245  69.915  1.00  0.00    -0.373 A  
BRANCH  19  22
HETATM   22  S   UNL     1     -12.268   7.571  71.488  1.00  0.00    -0.345 S  
HETATM   23  O   UNL     1     -13.615   7.151  71.816  1.00  0.00    -0.354 OA 
HETATM   24  O   UNL     1     -11.530   6.897  70.442  1.00  0.00    -0.308 OA 
BRANCH  22  25
HETATM   25  N   UNL     1     -11.419   7.467  72.926  1.00  0.00    -0.572 N  
HETATM   26  H   UNL     1     -11.942   7.283  73.783  1.00  0.00     0.000 HD 
BRANCH  25  27
HETATM   27  C   UNL     1     -10.050   7.618  73.015  1.00  0.00    -0.304 C  
HETATM   28  O   UNL     1      -9.526   8.543  73.617  1.00  0.00     0.132 OA 
BRANCH  27  29
HETATM   29  N   UNL     1      -9.316   6.646  72.376  1.00  0.00    -0.143 N  
HETATM   30  H   UNL     1      -8.745   6.873  71.563  1.00  0.00     0.000 HD 
BRANCH  29  31
HETATM   31  C   UNL     1      -9.376   5.280  72.891  1.00  0.00    -0.137 C  
HETATM   32  C   UNL     1      -9.849   4.263  71.846  1.00  0.00    -0.248 C  
HETATM   33  C   UNL     1      -8.752   3.721  70.932  1.00  0.00    -0.119 C  
HETATM   34  C   UNL     1      -7.494   3.275  71.686  1.00  0.00    -0.047 C  
HETATM   35  C   UNL     1      -6.993   4.416  72.578  1.00  0.00    -0.057 C  
HETATM   36  C   UNL     1      -7.719   1.984  72.482  1.00  0.00    -0.044 C  
HETATM   37  C   UNL     1      -8.054   4.887  73.570  1.00  0.00    -0.107 C  
ENDBRANCH  29  31
ENDBRANCH  27  29
ENDBRANCH  25  27
ENDBRANCH  22  25
ENDBRANCH  19  22
ENDBRANCH  15  16
ENDBRANCH  14  15
ENDBRANCH  12  14
ENDBRANCH  10  12
ENDBRANCH   7  10
ENDBRANCH   2   3
TORSDOF 11
ENDMDL
MODEL      126
REMARK 921   NORMALIZED FREE ENERGY PREDICTED BY IDOCK:   -5.36 KCAL/MOL
REMARK 922        TOTAL FREE ENERGY PREDICTED BY IDOCK:  -11.11 KCAL/MOL
REMARK 923 INTER-LIGAND FREE ENERGY PREDICTED BY IDOCK:   -9.07 KCAL/MOL
REMARK 924 INTRA-LIGAND FREE ENERGY PREDICTED BY IDOCK:   -2.03 KCAL/MOL
REMARK 927      BINDING AFFINITY PREDICTED BY RF-SCORE:    0.00 PKD
ROOT
HETATM    1  C   UNL     1     -10.691   5.543  66.655  1.00  0.00    -0.332 C  
HETATM    2  C   UNL     1      -9.231   5.431  66.243  1.00  0.00    -0.157 C  
ENDROOT
BRANCH   2   3
HETATM    3  C   UNL     1      -8.461   6.651  66.604  1.00  0.00    -0.120 C  
HETATM    4  C   UNL     1      -7.971   7.646  65.851  1.00  0.00    -0.116 C  
HETATM    5  C   UNL     1      -7.251   8.672  66.665  1.00  0.00    -0.081 C  
HETATM    6  C   UNL     1      -8.118   7.829  64.382  1.00  0.00    -0.091 C  
HETATM    7  N   UNL     1      -7.458   8.196  68.005  1.00  0.00    -0.096 N  
HETATM    8  O   UNL     1      -8.346   6.243  68.959  1.00  0.00    -0.115 OA 
HETATM    9  C   UNL     1      -8.106   6.966  68.004  1.00  0.00    -0.115 C  
BRANCH   7  10
HETATM   10  C   UNL     1      -7.220   9.021  69.089  1.00  0.00    -0.067 C  
HETATM   11  O   UNL     1      -6.275   8.846  69.855  1.00  0.00    -0.034 OA 
BRANCH  10  12
HETATM   12  N   UNL     1      -8.092  10.071  69.220  1.00  0.00    -0.127 N  
HETATM   13  H   UNL     1      -7.815  10.981  68.851  1.00  0.00     0.000 HD 
BRANCH  12  14
HETATM   14  C   UNL     1      -9.387   9.950  69.858  1.00  0.00    -0.216 C  
BRANCH  14  15
HETATM   15  C   UNL     1     -10.508   9.560  68.879  1.00  0.00    -0.235 C  
BRANCH  15  16
HETATM   16  C   UNL     1     -10.874  10.642  67.876  1.00  0.00    -0.328 A  
HETATM   17  C   UNL     1     -11.656  11.748  68.241  1.00  0.00    -0.373 A  
HETATM   18  C   UNL     1     -12.033  12.705  67.298  1.00  0.00    -0.321 A  
HETATM   19  C   UNL     1     -11.576  12.614  65.982  1.00  0.00    -0.393 A  
HETATM   20  C   UNL     1     -10.757  11.545  65.607  1.00  0.00    -0.323 A  
HETATM   21  C   UNL     1     -10.404  10.571  66.553  1.00  0.00    -0.294 A  
BRANCH  19  22
HETATM   22  S   UNL     1     -12.182  13.766  64.764  1.00  0.00    -0.403 S  
HETATM   23  O   UNL     1     -12.439  13.013  63.553  1.00  0.00    -0.694 OA 
HETATM   24  O   UNL     1     -13.230  14.566  65.359  1.00  0.00    -0.494 OA 
BRANCH  22  25
HETATM   25  N   UNL     1     -10.873  14.741  64.399  1.00  0.00    -0.592 N  
HETATM   26  H   UNL     1     -10.070  14.317  63.933  1.00  0.00     0.000 HD 
BRANCH  25  27
HETATM   27  C   UNL     1     -10.821  16.089  64.693  1.00  0.00    -0.179 C  
HETATM   28  O   UNL     1     -11.459  16.924  64.071  1.00  0.00    -1.130 OA 
BRANCH  27  29
HETATM   29  N   UNL     1      -9.998  16.422  65.743  1.00  0.00    -0.324 N  
HETATM   30  H   UNL     1      -9.549  17.336  65.784  1.00  0.00     0.000 HD 
BRANCH  29  31
HETATM   31  C   UNL     1      -9.783  15.434  66.798  1.00  0.00    -0.240 C  
HETATM   32  C   UNL     1      -8.411  14.754  66.715  1.00  0.00    -0.179 C  
HETATM   33  C   UNL     1      -7.273  15.516  67.390  1.00  0.00    -0.241 C  
HETATM   34  C   UNL     1      -7.620  16.011  68.798  1.00  0.00    -0.184 C  
HETATM   35  C   UNL     1      -8.916  16.826  68.756  1.00  0.00    -0.254 C  
HETATM   36  C   UNL     1      -7.698  14.866  69.815  1.00  0.00     0.009 C  
HETATM   37  C   UNL     1     -10.086  16.029  68.182  1.00  0.00    -0.234 C  
ENDBRANCH  29  31
ENDBRANCH  27  29
ENDBRANCH  25  27
ENDBRANCH  22  25
ENDBRANCH  19  22
ENDBRANCH  15  16
ENDBRANCH  14  15
ENDBRANCH  12  14
ENDBRANCH  10  12
ENDBRANCH   7  10
ENDBRANCH   2   3
TORSDOF 11
ENDMDL
MODEL      127
REMARK 921   NORMALIZED FREE ENERGY PREDICTED BY IDOCK:   -5.35 KCAL/MOL
REMARK 922        TOTAL FREE ENERGY PREDICTED BY IDOCK:  -11.10 KCAL/MOL
REMARK 923 INTER-LIGAND FREE ENERGY PREDICTED BY IDOCK:   -8.57 KCAL/MOL
REMARK 924 INTRA-LIGAND FREE ENERGY PREDICTED BY IDOCK:   -2.53 KCAL/MOL
REMARK 927      BINDING AFFINITY PREDICTED BY RF-SCORE:    0.00 PKD
ROOT
HETATM    1  C   UNL     1     -12.136  15.897  71.921  1.00  0.00    -0.578 C  
HETATM    2  C   UNL     1     -12.827  15.372  70.672  1.00  0.00    -0.484 C  
ENDROOT
BRANCH   2   3
HETATM    3  C   UNL     1     -11.855  14.799  69.704  1.00  0.00    -0.362 C  
HETATM    4  C   UNL     1     -11.057  15.382  68.797  1.00  0.00    -0.284 C  
HETATM    5  C   UNL     1     -10.243  14.387  68.035  1.00  0.00    -0.228 C  
HETATM    6  C   UNL     1     -10.888  16.837  68.539  1.00  0.00    -0.345 C  
HETATM    7  N   UNL     1     -10.600  13.149  68.673  1.00  0.00    -0.252 N  
HETATM    8  O   UNL     1     -12.201  12.498  70.261  1.00  0.00    -0.329 OA 
HETATM    9  C   UNL     1     -11.604  13.344  69.615  1.00  0.00    -0.268 C  
BRANCH   7  10
HETATM   10  C   UNL     1      -9.838  12.012  68.479  1.00  0.00    -0.172 C  
HETATM   11  O   UNL     1      -8.622  12.057  68.301  1.00  0.00    -0.168 OA 
BRANCH  10  12
HETATM   12  N   UNL     1     -10.533  10.831  68.541  1.00  0.00    -0.176 N  
HETATM   13  H   UNL     1     -10.614  10.362  69.443  1.00  0.00     0.000 HD 
BRANCH  12  14
HETATM   14  C   UNL     1     -11.157  10.219  67.385  1.00  0.00    -0.189 C  
BRANCH  14  15
HETATM   15  C   UNL     1     -10.167   9.428  66.512  1.00  0.00    -0.308 C  
BRANCH  15  16
HETATM   16  C   UNL     1      -9.795   8.061  67.061  1.00  0.00    -0.295 A  
HETATM   17  C   UNL     1      -8.557   7.830  67.678  1.00  0.00    -0.123 A  
HETATM   18  C   UNL     1      -8.205   6.556  68.128  1.00  0.00    -0.117 A  
HETATM   19  C   UNL     1      -9.112   5.500  68.031  1.00  0.00    -0.108 A  
HETATM   20  C   UNL     1     -10.370   5.718  67.462  1.00  0.00    -0.274 A  
HETATM   21  C   UNL     1     -10.708   6.995  66.987  1.00  0.00    -0.423 A  
BRANCH  19  22
HETATM   22  S   UNL     1      -8.592   3.856  68.481  1.00  0.00    -0.099 S  
HETATM   23  O   UNL     1      -9.753   2.996  68.377  1.00  0.00    -0.116 OA 
HETATM   24  O   UNL     1      -7.382   3.535  67.756  1.00  0.00    -0.058 OA 
BRANCH  22  25
HETATM   25  N   UNL     1      -8.258   3.936  70.118  1.00  0.00    -0.056 N  
HETATM   26  H   UNL     1      -7.292   3.814  70.421  1.00  0.00     0.000 HD 
BRANCH  25  27
HETATM   27  C   UNL     1      -9.222   4.161  71.082  1.00  0.00    -0.131 C  
HETATM   28  O   UNL     1      -9.928   3.270  71.528  1.00  0.00    -0.167 OA 
BRANCH  27  29
HETATM   29  N   UNL     1      -9.325   5.465  71.505  1.00  0.00    -0.146 N  
HETATM   30  H   UNL     1      -8.524   6.094  71.458  1.00  0.00     0.000 HD 
BRANCH  29  31
HETATM   31  C   UNL     1     -10.610   5.927  72.025  1.00  0.00    -0.221 C  
HETATM   32  C   UNL     1     -10.467   6.938  73.170  1.00  0.00    -0.313 C  
HETATM   33  C   UNL     1     -10.282   8.389  72.729  1.00  0.00    -0.254 C  
HETATM   34  C   UNL     1     -11.278   8.830  71.650  1.00  0.00    -0.394 C  
HETATM   35  C   UNL     1     -11.229   7.855  70.469  1.00  0.00    -0.259 C  
HETATM   36  C   UNL     1     -12.701   8.989  72.200  1.00  0.00    -0.470 C  
HETATM   37  C   UNL     1     -11.522   6.417  70.890  1.00  0.00    -0.406 C  
ENDBRANCH  29  31
ENDBRANCH  27  29
ENDBRANCH  25  27
ENDBRANCH  22  25
ENDBRANCH  19  22
ENDBRANCH  15  16
ENDBRANCH  14  15
ENDBRANCH  12  14
ENDBRANCH  10  12
ENDBRANCH   7  10
ENDBRANCH   2   3
TORSDOF 11
ENDMDL
MODEL      128
REMARK 921   NORMALIZED FREE ENERGY PREDICTED BY IDOCK:   -5.34 KCAL/MOL
REMARK 922        TOTAL FREE ENERGY PREDICTED BY IDOCK:  -11.08 KCAL/MOL
REMARK 923 INTER-LIGAND FREE ENERGY PREDICTED BY IDOCK:   -9.31 KCAL/MOL
REMARK 924 INTRA-LIGAND FREE ENERGY PREDICTED BY IDOCK:   -1.77 KCAL/MOL
REMARK 927      BINDING AFFINITY PREDICTED BY RF-SCORE:    0.00 PKD
ROOT
HETATM    1  C   UNL     1     -10.185  10.524  65.101  1.00  0.00    -0.358 C  
HETATM    2  C   UNL     1      -9.380   9.306  65.529  1.00  0.00    -0.303 C  
ENDROOT
BRANCH   2   3
HETATM    3  C   UNL     1      -9.096   9.320  66.989  1.00  0.00    -0.153 C  
HETATM    4  C   UNL     1      -8.283  10.091  67.727  1.00  0.00    -0.113 C  
HETATM    5  C   UNL     1      -8.322   9.729  69.177  1.00  0.00    -0.137 C  
HETATM    6  C   UNL     1      -7.444  11.229  67.264  1.00  0.00    -0.126 C  
HETATM    7  N   UNL     1      -9.330   8.705  69.207  1.00  0.00    -0.153 N  
HETATM    8  O   UNL     1     -10.525   7.498  67.588  1.00  0.00    -0.223 OA 
HETATM    9  C   UNL     1      -9.757   8.385  67.924  1.00  0.00    -0.158 C  
BRANCH   7  10
HETATM   10  C   UNL     1      -9.899   8.314  70.406  1.00  0.00    -0.186 C  
HETATM   11  O   UNL     1      -9.845   7.156  70.814  1.00  0.00    -0.179 OA 
BRANCH  10  12
HETATM   12  N   UNL     1     -10.490   9.324  71.122  1.00  0.00    -0.309 N  
HETATM   13  H   UNL     1     -10.029  10.234  71.150  1.00  0.00     0.000 HD 
BRANCH  12  14
HETATM   14  C   UNL     1     -11.736   9.158  71.843  1.00  0.00    -0.366 C  
BRANCH  14  15
HETATM   15  C   UNL     1     -12.901   9.950  71.224  1.00  0.00    -0.486 C  
BRANCH  15  16
HETATM   16  C   UNL     1     -12.476  11.142  70.383  1.00  0.00    -0.382 A  
HETATM   17  C   UNL     1     -12.496  12.448  70.896  1.00  0.00    -0.367 A  
HETATM   18  C   UNL     1     -12.158  13.540  70.095  1.00  0.00    -0.425 A  
HETATM   19  C   UNL     1     -11.725  13.343  68.784  1.00  0.00    -0.340 A  
HETATM   20  C   UNL     1     -11.652  12.047  68.266  1.00  0.00    -0.394 A  
HETATM   21  C   UNL     1     -12.020  10.955  69.066  1.00  0.00    -0.322 A  
BRANCH  19  22
HETATM   22  S   UNL     1     -11.433  14.757  67.737  1.00  0.00    -0.353 S  
HETATM   23  O   UNL     1     -12.036  14.470  66.451  1.00  0.00    -0.385 OA 
HETATM   24  O   UNL     1     -11.798  15.955  68.460  1.00  0.00    -0.366 OA 
BRANCH  22  25
HETATM   25  N   UNL     1      -9.785  14.756  67.452  1.00  0.00    -0.213 N  
HETATM   26  H   UNL     1      -9.446  14.356  66.577  1.00  0.00     0.000 HD 
BRANCH  25  27
HETATM   27  C   UNL     1      -8.858  15.268  68.339  1.00  0.00    -0.179 C  
HETATM   28  O   UNL     1      -8.937  15.098  69.546  1.00  0.00    -0.209 OA 
BRANCH  27  29
HETATM   29  N   UNL     1      -7.836  15.982  67.760  1.00  0.00    -0.136 N  
HETATM   30  H   UNL     1      -6.878  15.633  67.783  1.00  0.00     0.000 HD 
BRANCH  29  31
HETATM   31  C   UNL     1      -8.154  17.252  67.112  1.00  0.00    -0.203 C  
HETATM   32  C   UNL     1      -8.794  18.269  68.064  1.00  0.00    -0.290 C  
HETATM   33  C   UNL     1      -7.805  19.097  68.882  1.00  0.00    -0.351 C  
HETATM   34  C   UNL     1      -6.662  19.683  68.046  1.00  0.00    -0.284 C  
HETATM   35  C   UNL     1      -5.970  18.566  67.258  1.00  0.00    -0.164 C  
HETATM   36  C   UNL     1      -7.133  20.820  67.130  1.00  0.00    -0.404 C  
HETATM   37  C   UNL     1      -6.938  17.806  66.354  1.00  0.00    -0.288 C  
ENDBRANCH  29  31
ENDBRANCH  27  29
ENDBRANCH  25  27
ENDBRANCH  22  25
ENDBRANCH  19  22
ENDBRANCH  15  16
ENDBRANCH  14  15
ENDBRANCH  12  14
ENDBRANCH  10  12
ENDBRANCH   7  10
ENDBRANCH   2   3
TORSDOF 11
ENDMDL
MODEL      129
REMARK 921   NORMALIZED FREE ENERGY PREDICTED BY IDOCK:   -5.33 KCAL/MOL
REMARK 922        TOTAL FREE ENERGY PREDICTED BY IDOCK:  -11.06 KCAL/MOL
REMARK 923 INTER-LIGAND FREE ENERGY PREDICTED BY IDOCK:   -8.27 KCAL/MOL
REMARK 924 INTRA-LIGAND FREE ENERGY PREDICTED BY IDOCK:   -2.79 KCAL/MOL
REMARK 927      BINDING AFFINITY PREDICTED BY RF-SCORE:    0.00 PKD
ROOT
HETATM    1  C   UNL     1     -11.589  12.919  63.676  1.00  0.00    -0.547 C  
HETATM    2  C   UNL     1     -11.641  11.519  64.268  1.00  0.00    -0.219 C  
ENDROOT
BRANCH   2   3
HETATM    3  C   UNL     1     -10.284  11.018  64.616  1.00  0.00    -0.392 C  
HETATM    4  C   UNL     1      -9.287  10.553  63.849  1.00  0.00    -0.314 C  
HETATM    5  C   UNL     1      -8.093  10.152  64.653  1.00  0.00    -0.153 C  
HETATM    6  C   UNL     1      -9.253  10.456  62.364  1.00  0.00    -0.304 C  
HETATM    7  N   UNL     1      -8.484  10.526  65.985  1.00  0.00    -0.150 N  
HETATM    8  O   UNL     1     -10.471  11.272  66.987  1.00  0.00    -0.214 OA 
HETATM    9  C   UNL     1      -9.800  10.973  66.012  1.00  0.00    -0.229 C  
BRANCH   7  10
HETATM   10  C   UNL     1      -7.544  10.614  66.995  1.00  0.00    -0.110 C  
HETATM   11  O   UNL     1      -7.054   9.620  67.527  1.00  0.00    -0.086 OA 
BRANCH  10  12
HETATM   12  N   UNL     1      -7.171  11.890  67.330  1.00  0.00    -0.138 N  
HETATM   13  H   UNL     1      -6.478  12.362  66.748  1.00  0.00     0.000 HD 
BRANCH  12  14
HETATM   14  C   UNL     1      -7.714  12.600  68.470  1.00  0.00    -0.114 C  
BRANCH  14  15
HETATM   15  C   UNL     1      -6.642  13.346  69.284  1.00  0.00    -0.097 C  
BRANCH  15  16
HETATM   16  C   UNL     1      -6.504  14.820  68.943  1.00  0.00    -0.089 A  
HETATM   17  C   UNL     1      -6.234  15.780  69.930  1.00  0.00    -0.157 A  
HETATM   18  C   UNL     1      -6.166  17.137  69.613  1.00  0.00    -0.235 A  
HETATM   19  C   UNL     1      -6.298  17.558  68.289  1.00  0.00    -0.180 A  
HETATM   20  C   UNL     1      -6.522  16.614  67.282  1.00  0.00    -0.215 A  
HETATM   21  C   UNL     1      -6.616  15.253  67.610  1.00  0.00    -0.196 A  
BRANCH  19  22
HETATM   22  S   UNL     1      -6.349  19.302  67.926  1.00  0.00    -0.219 S  
HETATM   23  O   UNL     1      -6.716  19.984  69.150  1.00  0.00    -0.319 OA 
HETATM   24  O   UNL     1      -5.137  19.668  67.225  1.00  0.00    -0.159 OA 
BRANCH  22  25
HETATM   25  N   UNL     1      -7.663  19.498  66.910  1.00  0.00    -0.246 N  
HETATM   26  H   UNL     1      -7.495  19.543  65.905  1.00  0.00     0.000 HD 
BRANCH  25  27
HETATM   27  C   UNL     1      -8.965  19.602  67.360  1.00  0.00    -0.315 C  
HETATM   28  O   UNL     1      -9.672  20.567  67.113  1.00  0.00    -0.441 OA 
BRANCH  27  29
HETATM   29  N   UNL     1      -9.408  18.535  68.106  1.00  0.00    -0.303 N  
HETATM   30  H   UNL     1      -8.887  18.219  68.923  1.00  0.00     0.000 HD 
BRANCH  29  31
HETATM   31  C   UNL     1     -10.641  17.866  67.698  1.00  0.00    -0.387 C  
HETATM   32  C   UNL     1     -10.610  17.380  66.244  1.00  0.00    -0.194 C  
HETATM   33  C   UNL     1      -9.964  16.011  66.037  1.00  0.00    -0.365 C  
HETATM   34  C   UNL     1     -10.461  14.947  67.022  1.00  0.00    -0.272 C  
HETATM   35  C   UNL     1     -10.295  15.453  68.459  1.00  0.00    -0.226 C  
HETATM   36  C   UNL     1     -11.903  14.512  66.733  1.00  0.00    -0.390 C  
HETATM   37  C   UNL     1     -11.032  16.769  68.700  1.00  0.00    -0.298 C  
ENDBRANCH  29  31
ENDBRANCH  27  29
ENDBRANCH  25  27
ENDBRANCH  22  25
ENDBRANCH  19  22
ENDBRANCH  15  16
ENDBRANCH  14  15
ENDBRANCH  12  14
ENDBRANCH  10  12
ENDBRANCH   7  10
ENDBRANCH   2   3
TORSDOF 11
ENDMDL
MODEL      130
REMARK 921   NORMALIZED FREE ENERGY PREDICTED BY IDOCK:   -5.30 KCAL/MOL
REMARK 922        TOTAL FREE ENERGY PREDICTED BY IDOCK:  -11.02 KCAL/MOL
REMARK 923 INTER-LIGAND FREE ENERGY PREDICTED BY IDOCK:   -8.21 KCAL/MOL
REMARK 924 INTRA-LIGAND FREE ENERGY PREDICTED BY IDOCK:   -2.81 KCAL/MOL
REMARK 927      BINDING AFFINITY PREDICTED BY RF-SCORE:    0.00 PKD
ROOT
HETATM    1  C   UNL     1     -11.526  16.059  70.882  1.00  0.00    -0.451 C  
HETATM    2  C   UNL     1     -10.431  15.327  70.121  1.00  0.00    -0.252 C  
ENDROOT
BRANCH   2   3
HETATM    3  C   UNL     1     -10.693  15.314  68.657  1.00  0.00    -0.245 C  
HETATM    4  C   UNL     1     -10.176  16.043  67.657  1.00  0.00    -0.262 C  
HETATM    5  C   UNL     1     -10.757  15.677  66.330  1.00  0.00    -0.295 C  
HETATM    6  C   UNL     1      -9.111  17.078  67.745  1.00  0.00    -0.228 C  
HETATM    7  N   UNL     1     -11.617  14.576  66.668  1.00  0.00    -0.371 N  
HETATM    8  O   UNL     1     -12.363  13.602  68.668  1.00  0.00    -0.258 OA 
HETATM    9  C   UNL     1     -11.661  14.381  68.043  1.00  0.00    -0.340 C  
BRANCH   7  10
HETATM   10  C   UNL     1     -12.109  13.740  65.682  1.00  0.00    -0.418 C  
HETATM   11  O   UNL     1     -12.545  14.166  64.615  1.00  0.00    -0.627 OA 
BRANCH  10  12
HETATM   12  N   UNL     1     -12.036  12.401  65.969  1.00  0.00    -0.403 N  
HETATM   13  H   UNL     1     -12.888  11.918  66.257  1.00  0.00     0.000 HD 
BRANCH  12  14
HETATM   14  C   UNL     1     -10.806  11.640  65.883  1.00  0.00    -0.287 C  
BRANCH  14  15
HETATM   15  C   UNL     1     -10.373  11.037  67.231  1.00  0.00    -0.249 C  
BRANCH  15  16
HETATM   16  C   UNL     1      -9.740   9.659  67.130  1.00  0.00    -0.222 A  
HETATM   17  C   UNL     1     -10.515   8.508  66.924  1.00  0.00    -0.345 A  
HETATM   18  C   UNL     1      -9.928   7.242  66.891  1.00  0.00    -0.302 A  
HETATM   19  C   UNL     1      -8.543   7.107  66.994  1.00  0.00    -0.122 A  
HETATM   20  C   UNL     1      -7.746   8.244  67.154  1.00  0.00    -0.097 A  
HETATM   21  C   UNL     1      -8.344   9.512  67.214  1.00  0.00    -0.125 A  
BRANCH  19  22
HETATM   22  S   UNL     1      -7.828   5.476  67.090  1.00  0.00    -0.101 S  
HETATM   23  O   UNL     1      -8.915   4.525  66.972  1.00  0.00    -0.111 OA 
HETATM   24  O   UNL     1      -6.700   5.408  66.187  1.00  0.00    -0.054 OA 
BRANCH  22  25
HETATM   25  N   UNL     1      -7.292   5.328  68.667  1.00  0.00    -0.069 N  
HETATM   26  H   UNL     1      -6.424   5.798  68.929  1.00  0.00     0.000 HD 
BRANCH  25  27
HETATM   27  C   UNL     1      -7.960   4.605  69.635  1.00  0.00    -0.065 C  
HETATM   28  O   UNL     1      -7.422   3.728  70.292  1.00  0.00    -0.041 OA 
BRANCH  27  29
HETATM   29  N   UNL     1      -9.281   4.948  69.806  1.00  0.00    -0.113 N  
HETATM   30  H   UNL     1      -9.979   4.702  69.105  1.00  0.00     0.000 HD 
BRANCH  29  31
HETATM   31  C   UNL     1      -9.660   5.673  71.016  1.00  0.00    -0.169 C  
HETATM   32  C   UNL     1      -8.859   6.966  71.218  1.00  0.00    -0.135 C  
HETATM   33  C   UNL     1      -9.410   8.186  70.483  1.00  0.00    -0.159 C  
HETATM   34  C   UNL     1     -10.921   8.374  70.660  1.00  0.00    -0.266 C  
HETATM   35  C   UNL     1     -11.653   7.085  70.272  1.00  0.00    -0.309 C  
HETATM   36  C   UNL     1     -11.289   8.835  72.075  1.00  0.00    -0.441 C  
HETATM   37  C   UNL     1     -11.180   5.881  71.083  1.00  0.00    -0.281 C  
ENDBRANCH  29  31
ENDBRANCH  27  29
ENDBRANCH  25  27
ENDBRANCH  22  25
ENDBRANCH  19  22
ENDBRANCH  15  16
ENDBRANCH  14  15
ENDBRANCH  12  14
ENDBRANCH  10  12
ENDBRANCH   7  10
ENDBRANCH   2   3
TORSDOF 11
ENDMDL
MODEL      131
REMARK 921   NORMALIZED FREE ENERGY PREDICTED BY IDOCK:   -5.30 KCAL/MOL
REMARK 922        TOTAL FREE ENERGY PREDICTED BY IDOCK:  -11.02 KCAL/MOL
REMARK 923 INTER-LIGAND FREE ENERGY PREDICTED BY IDOCK:   -9.55 KCAL/MOL
REMARK 924 INTRA-LIGAND FREE ENERGY PREDICTED BY IDOCK:   -1.47 KCAL/MOL
REMARK 927      BINDING AFFINITY PREDICTED BY RF-SCORE:    0.00 PKD
ROOT
HETATM    1  C   UNL     1      -5.155  18.556  64.764  1.00  0.00    -0.189 C  
HETATM    2  C   UNL     1      -5.540  18.314  66.216  1.00  0.00    -0.194 C  
ENDROOT
BRANCH   2   3
HETATM    3  C   UNL     1      -6.998  18.508  66.439  1.00  0.00    -0.257 C  
HETATM    4  C   UNL     1      -7.702  19.587  66.811  1.00  0.00    -0.277 C  
HETATM    5  C   UNL     1      -9.166  19.302  66.911  1.00  0.00    -0.311 C  
HETATM    6  C   UNL     1      -7.191  20.961  67.066  1.00  0.00    -0.351 C  
HETATM    7  N   UNL     1      -9.240  17.939  66.462  1.00  0.00    -0.278 N  
HETATM    8  O   UNL     1      -7.674  16.265  65.956  1.00  0.00    -0.018 OA 
HETATM    9  C   UNL     1      -7.972  17.414  66.244  1.00  0.00    -0.279 C  
BRANCH   7  10
HETATM   10  C   UNL     1     -10.455  17.382  66.104  1.00  0.00    -0.284 C  
HETATM   11  O   UNL     1     -10.792  17.235  64.931  1.00  0.00    -0.773 OA 
BRANCH  10  12
HETATM   12  N   UNL     1     -11.234  16.969  67.154  1.00  0.00     0.183 N  
HETATM   13  H   UNL     1     -12.049  17.531  67.405  1.00  0.00     0.000 HD 
BRANCH  12  14
HETATM   14  C   UNL     1     -10.956  15.774  67.925  1.00  0.00    -0.324 C  
BRANCH  14  15
HETATM   15  C   UNL     1     -11.634  14.516  67.354  1.00  0.00    -0.406 C  
BRANCH  15  16
HETATM   16  C   UNL     1     -11.841  13.400  68.364  1.00  0.00    -0.401 A  
HETATM   17  C   UNL     1     -12.215  13.667  69.689  1.00  0.00    -0.326 A  
HETATM   18  C   UNL     1     -12.346  12.637  70.621  1.00  0.00    -0.375 A  
HETATM   19  C   UNL     1     -12.174  11.309  70.231  1.00  0.00    -0.345 A  
HETATM   20  C   UNL     1     -11.846  11.015  68.904  1.00  0.00    -0.378 A  
HETATM   21  C   UNL     1     -11.688  12.056  67.977  1.00  0.00    -0.398 A  
BRANCH  19  22
HETATM   22  S   UNL     1     -12.207  10.022  71.464  1.00  0.00    -0.382 S  
HETATM   23  O   UNL     1     -10.834   9.642  71.725  1.00  0.00    -0.210 OA 
HETATM   24  O   UNL     1     -13.065  10.441  72.551  1.00  0.00    -0.155 OA 
BRANCH  22  25
HETATM   25  N   UNL     1     -12.884   8.700  70.696  1.00  0.00    -0.275 N  
HETATM   26  H   UNL     1     -12.987   8.731  69.682  1.00  0.00     0.000 HD 
BRANCH  25  27
HETATM   27  C   UNL     1     -13.310   7.568  71.362  1.00  0.00    -0.311 C  
HETATM   28  O   UNL     1     -14.378   7.025  71.123  1.00  0.00    -0.227 OA 
BRANCH  27  29
HETATM   29  N   UNL     1     -12.440   7.093  72.315  1.00  0.00    -0.517 N  
HETATM   30  H   UNL     1     -12.348   7.560  73.216  1.00  0.00     0.000 HD 
BRANCH  29  31
HETATM   31  C   UNL     1     -11.650   5.904  72.004  1.00  0.00    -0.228 C  
HETATM   32  C   UNL     1     -10.316   6.229  71.321  1.00  0.00    -0.255 C  
HETATM   33  C   UNL     1      -9.171   6.569  72.272  1.00  0.00    -0.138 C  
HETATM   34  C   UNL     1      -9.031   5.582  73.437  1.00  0.00    -0.129 C  
HETATM   35  C   UNL     1     -10.371   5.450  74.168  1.00  0.00    -0.307 C  
HETATM   36  C   UNL     1      -8.491   4.220  72.984  1.00  0.00    -0.094 C  
HETATM   37  C   UNL     1     -11.498   5.003  73.239  1.00  0.00    -0.339 C  
ENDBRANCH  29  31
ENDBRANCH  27  29
ENDBRANCH  25  27
ENDBRANCH  22  25
ENDBRANCH  19  22
ENDBRANCH  15  16
ENDBRANCH  14  15
ENDBRANCH  12  14
ENDBRANCH  10  12
ENDBRANCH   7  10
ENDBRANCH   2   3
TORSDOF 11
ENDMDL
MODEL      132
REMARK 921   NORMALIZED FREE ENERGY PREDICTED BY IDOCK:   -5.29 KCAL/MOL
REMARK 922        TOTAL FREE ENERGY PREDICTED BY IDOCK:  -11.00 KCAL/MOL
REMARK 923 INTER-LIGAND FREE ENERGY PREDICTED BY IDOCK:   -9.44 KCAL/MOL
REMARK 924 INTRA-LIGAND FREE ENERGY PREDICTED BY IDOCK:   -1.56 KCAL/MOL
REMARK 927      BINDING AFFINITY PREDICTED BY RF-SCORE:    0.00 PKD
ROOT
HETATM    1  C   UNL     1     -11.835   8.693  72.128  1.00  0.00    -0.447 C  
HETATM    2  C   UNL     1     -11.273   7.280  72.095  1.00  0.00    -0.288 C  
ENDROOT
BRANCH   2   3
HETATM    3  C   UNL     1     -10.145   7.159  71.133  1.00  0.00    -0.193 C  
HETATM    4  C   UNL     1      -8.826   7.347  71.284  1.00  0.00    -0.138 C  
HETATM    5  C   UNL     1      -8.070   7.111  70.016  1.00  0.00    -0.127 C  
HETATM    6  C   UNL     1      -8.096   7.695  72.533  1.00  0.00    -0.140 C  
HETATM    7  N   UNL     1      -9.107   6.674  69.122  1.00  0.00    -0.138 N  
HETATM    8  O   UNL     1     -11.449   6.561  69.219  1.00  0.00    -0.340 OA 
HETATM    9  C   UNL     1     -10.356   6.760  69.725  1.00  0.00    -0.201 C  
BRANCH   7  10
HETATM   10  C   UNL     1      -8.789   6.053  67.928  1.00  0.00    -0.110 C  
HETATM   11  O   UNL     1      -8.725   4.831  67.817  1.00  0.00    -0.103 OA 
BRANCH  10  12
HETATM   12  N   UNL     1      -8.593   6.903  66.869  1.00  0.00    -0.114 N  
HETATM   13  H   UNL     1      -7.927   6.631  66.145  1.00  0.00     0.000 HD 
BRANCH  12  14
HETATM   14  C   UNL     1      -9.288   8.167  66.729  1.00  0.00    -0.183 C  
BRANCH  14  15
HETATM   15  C   UNL     1      -8.953   8.898  65.417  1.00  0.00    -0.232 C  
BRANCH  15  16
HETATM   16  C   UNL     1      -9.659  10.232  65.242  1.00  0.00    -0.324 A  
HETATM   17  C   UNL     1     -10.343  10.846  66.301  1.00  0.00    -0.306 A  
HETATM   18  C   UNL     1     -11.036  12.043  66.113  1.00  0.00    -0.367 A  
HETATM   19  C   UNL     1     -11.001  12.688  64.876  1.00  0.00    -0.293 A  
HETATM   20  C   UNL     1     -10.286  12.119  63.818  1.00  0.00    -0.465 A  
HETATM   21  C   UNL     1      -9.614  10.901  64.006  1.00  0.00    -0.321 A  
BRANCH  19  22
HETATM   22  S   UNL     1     -12.005  14.138  64.617  1.00  0.00    -0.466 S  
HETATM   23  O   UNL     1     -12.576  14.033  63.290  1.00  0.00    -0.801 OA 
HETATM   24  O   UNL     1     -12.864  14.322  65.766  1.00  0.00    -0.460 OA 
BRANCH  22  25
HETATM   25  N   UNL     1     -10.920  15.408  64.522  1.00  0.00    -0.680 N  
HETATM   26  H   UNL     1     -10.732  15.815  63.606  1.00  0.00     0.000 HD 
BRANCH  25  27
HETATM   27  C   UNL     1     -10.265  15.934  65.618  1.00  0.00    -0.379 C  
HETATM   28  O   UNL     1     -10.691  16.894  66.242  1.00  0.00    -0.229 OA 
BRANCH  27  29
HETATM   29  N   UNL     1      -9.096  15.295  65.957  1.00  0.00    -0.453 N  
HETATM   30  H   UNL     1      -8.474  14.929  65.238  1.00  0.00     0.000 HD 
BRANCH  29  31
HETATM   31  C   UNL     1      -8.768  15.152  67.374  1.00  0.00    -0.190 C  
HETATM   32  C   UNL     1      -8.349  13.726  67.754  1.00  0.00    -0.180 C  
HETATM   33  C   UNL     1      -6.873  13.406  67.523  1.00  0.00    -0.154 C  
HETATM   34  C   UNL     1      -5.923  14.481  68.063  1.00  0.00    -0.158 C  
HETATM   35  C   UNL     1      -6.314  15.849  67.495  1.00  0.00    -0.198 C  
HETATM   36  C   UNL     1      -5.868  14.494  69.596  1.00  0.00    -0.104 C  
HETATM   37  C   UNL     1      -7.759  16.222  67.818  1.00  0.00    -0.157 C  
ENDBRANCH  29  31
ENDBRANCH  27  29
ENDBRANCH  25  27
ENDBRANCH  22  25
ENDBRANCH  19  22
ENDBRANCH  15  16
ENDBRANCH  14  15
ENDBRANCH  12  14
ENDBRANCH  10  12
ENDBRANCH   7  10
ENDBRANCH   2   3
TORSDOF 11
ENDMDL
MODEL      133
REMARK 921   NORMALIZED FREE ENERGY PREDICTED BY IDOCK:   -5.29 KCAL/MOL
REMARK 922        TOTAL FREE ENERGY PREDICTED BY IDOCK:  -10.99 KCAL/MOL
REMARK 923 INTER-LIGAND FREE ENERGY PREDICTED BY IDOCK:   -8.89 KCAL/MOL
REMARK 924 INTRA-LIGAND FREE ENERGY PREDICTED BY IDOCK:   -2.10 KCAL/MOL
REMARK 927      BINDING AFFINITY PREDICTED BY RF-SCORE:    0.00 PKD
ROOT
HETATM    1  C   UNL     1     -10.308  10.310  66.893  1.00  0.00    -0.298 C  
HETATM    2  C   UNL     1      -9.830  11.329  65.870  1.00  0.00    -0.272 C  
ENDROOT
BRANCH   2   3
HETATM    3  C   UNL     1     -10.391  12.680  66.135  1.00  0.00    -0.273 C  
HETATM    4  C   UNL     1     -11.534  13.259  65.740  1.00  0.00    -0.349 C  
HETATM    5  C   UNL     1     -11.671  14.655  66.257  1.00  0.00    -0.320 C  
HETATM    6  C   UNL     1     -12.626  12.654  64.929  1.00  0.00    -0.525 C  
HETATM    7  N   UNL     1     -10.502  14.789  67.081  1.00  0.00    -0.263 N  
HETATM    8  O   UNL     1      -8.578  13.500  67.462  1.00  0.00    -0.170 OA 
HETATM    9  C   UNL     1      -9.685  13.670  66.976  1.00  0.00    -0.251 C  
BRANCH   7  10
HETATM   10  C   UNL     1     -10.400  15.823  67.995  1.00  0.00    -0.252 C  
HETATM   11  O   UNL     1     -10.761  16.969  67.735  1.00  0.00    -0.347 OA 
BRANCH  10  12
HETATM   12  N   UNL     1      -9.908  15.463  69.223  1.00  0.00    -0.246 N  
HETATM   13  H   UNL     1      -8.918  15.226  69.299  1.00  0.00     0.000 HD 
BRANCH  12  14
HETATM   14  C   UNL     1     -10.726  15.404  70.418  1.00  0.00    -0.286 C  
BRANCH  14  15
HETATM   15  C   UNL     1     -12.165  14.934  70.142  1.00  0.00    -0.387 C  
BRANCH  15  16
HETATM   16  C   UNL     1     -12.437  13.486  70.512  1.00  0.00    -0.373 A  
HETATM   17  C   UNL     1     -13.248  13.148  71.605  1.00  0.00    -0.435 A  
HETATM   18  C   UNL     1     -13.444  11.814  71.970  1.00  0.00    -0.319 A  
HETATM   19  C   UNL     1     -12.888  10.788  71.207  1.00  0.00    -0.438 A  
HETATM   20  C   UNL     1     -12.113  11.100  70.086  1.00  0.00    -0.443 A  
HETATM   21  C   UNL     1     -11.897  12.443  69.740  1.00  0.00    -0.387 A  
BRANCH  19  22
HETATM   22  S   UNL     1     -13.033   9.102  71.769  1.00  0.00    -0.410 S  
HETATM   23  O   UNL     1     -14.052   9.081  72.799  1.00  0.00    -0.524 OA 
HETATM   24  O   UNL     1     -13.144   8.234  70.618  1.00  0.00     0.307 OA 
BRANCH  22  25
HETATM   25  N   UNL     1     -11.600   8.786  72.572  1.00  0.00    -0.251 N  
HETATM   26  H   UNL     1     -11.207   9.516  73.166  1.00  0.00     0.000 HD 
BRANCH  25  27
HETATM   27  C   UNL     1     -10.919   7.588  72.473  1.00  0.00    -0.313 C  
HETATM   28  O   UNL     1     -11.437   6.513  72.731  1.00  0.00    -0.226 OA 
BRANCH  27  29
HETATM   29  N   UNL     1      -9.613   7.696  72.058  1.00  0.00    -0.153 N  
HETATM   30  H   UNL     1      -9.320   8.461  71.450  1.00  0.00     0.000 HD 
BRANCH  29  31
HETATM   31  C   UNL     1      -8.655   6.689  72.508  1.00  0.00    -0.124 C  
HETATM   32  C   UNL     1      -7.426   6.579  71.597  1.00  0.00    -0.089 C  
HETATM   33  C   UNL     1      -6.308   7.575  71.901  1.00  0.00    -0.039 C  
HETATM   34  C   UNL     1      -5.954   7.660  73.390  1.00  0.00    -0.060 C  
HETATM   35  C   UNL     1      -7.219   7.942  74.207  1.00  0.00    -0.178 C  
HETATM   36  C   UNL     1      -5.221   6.409  73.887  1.00  0.00    -0.041 C  
HETATM   37  C   UNL     1      -8.300   6.886  73.989  1.00  0.00    -0.157 C  
ENDBRANCH  29  31
ENDBRANCH  27  29
ENDBRANCH  25  27
ENDBRANCH  22  25
ENDBRANCH  19  22
ENDBRANCH  15  16
ENDBRANCH  14  15
ENDBRANCH  12  14
ENDBRANCH  10  12
ENDBRANCH   7  10
ENDBRANCH   2   3
TORSDOF 11
ENDMDL
MODEL      134
REMARK 921   NORMALIZED FREE ENERGY PREDICTED BY IDOCK:   -5.29 KCAL/MOL
REMARK 922        TOTAL FREE ENERGY PREDICTED BY IDOCK:  -10.99 KCAL/MOL
REMARK 923 INTER-LIGAND FREE ENERGY PREDICTED BY IDOCK:   -8.83 KCAL/MOL
REMARK 924 INTRA-LIGAND FREE ENERGY PREDICTED BY IDOCK:   -2.16 KCAL/MOL
REMARK 927      BINDING AFFINITY PREDICTED BY RF-SCORE:    0.00 PKD
ROOT
HETATM    1  C   UNL     1      -9.837  16.089  68.226  1.00  0.00    -0.219 C  
HETATM    2  C   UNL     1      -9.229  15.911  66.843  1.00  0.00    -0.247 C  
ENDROOT
BRANCH   2   3
HETATM    3  C   UNL     1     -10.009  14.951  66.018  1.00  0.00    -0.337 C  
HETATM    4  C   UNL     1     -10.908  15.146  65.042  1.00  0.00    -0.457 C  
HETATM    5  C   UNL     1     -11.442  13.860  64.498  1.00  0.00    -0.381 C  
HETATM    6  C   UNL     1     -11.349  16.442  64.460  1.00  0.00    -0.120 C  
HETATM    7  N   UNL     1     -10.674  12.883  65.220  1.00  0.00    -0.289 N  
HETATM    8  O   UNL     1      -9.172  12.947  67.022  1.00  0.00    -0.212 OA 
HETATM    9  C   UNL     1      -9.870  13.487  66.179  1.00  0.00    -0.283 C  
BRANCH   7  10
HETATM   10  C   UNL     1     -10.634  11.567  64.795  1.00  0.00    -0.305 C  
HETATM   11  O   UNL     1     -10.681  11.257  63.606  1.00  0.00    -0.375 OA 
BRANCH  10  12
HETATM   12  N   UNL     1     -10.496  10.640  65.796  1.00  0.00    -0.205 N  
HETATM   13  H   UNL     1     -11.084  10.729  66.625  1.00  0.00     0.000 HD 
BRANCH  12  14
HETATM   14  C   UNL     1      -9.555   9.540  65.732  1.00  0.00    -0.270 C  
BRANCH  14  15
HETATM   15  C   UNL     1      -8.479   9.601  66.830  1.00  0.00    -0.121 C  
BRANCH  15  16
HETATM   16  C   UNL     1      -8.657   8.580  67.942  1.00  0.00    -0.134 A  
HETATM   17  C   UNL     1      -7.764   8.506  69.021  1.00  0.00    -0.096 A  
HETATM   18  C   UNL     1      -7.905   7.527  70.006  1.00  0.00    -0.099 A  
HETATM   19  C   UNL     1      -8.985   6.644  69.970  1.00  0.00    -0.144 A  
HETATM   20  C   UNL     1      -9.914   6.730  68.930  1.00  0.00    -0.159 A  
HETATM   21  C   UNL     1      -9.752   7.698  67.927  1.00  0.00    -0.174 A  
BRANCH  19  22
HETATM   22  S   UNL     1      -9.069   5.316  71.156  1.00  0.00    -0.146 S  
HETATM   23  O   UNL     1      -9.952   4.307  70.607  1.00  0.00    -0.201 OA 
HETATM   24  O   UNL     1      -7.725   4.966  71.559  1.00  0.00    -0.090 OA 
BRANCH  22  25
HETATM   25  N   UNL     1      -9.897   5.951  72.463  1.00  0.00    -0.161 N  
HETATM   26  H   UNL     1      -9.372   6.486  73.155  1.00  0.00     0.000 HD 
BRANCH  25  27
HETATM   27  C   UNL     1     -11.255   5.789  72.656  1.00  0.00    -0.301 C  
HETATM   28  O   UNL     1     -11.724   4.856  73.289  1.00  0.00    -0.312 OA 
BRANCH  27  29
HETATM   29  N   UNL     1     -12.042   6.761  72.084  1.00  0.00    -0.453 N  
HETATM   30  H   UNL     1     -12.649   6.543  71.294  1.00  0.00     0.000 HD 
BRANCH  29  31
HETATM   31  C   UNL     1     -11.987   8.114  72.634  1.00  0.00    -0.292 C  
HETATM   32  C   UNL     1     -10.955   9.006  71.934  1.00  0.00    -0.423 C  
HETATM   33  C   UNL     1     -11.454   9.694  70.665  1.00  0.00    -0.376 C  
HETATM   34  C   UNL     1     -12.822  10.364  70.831  1.00  0.00    -0.482 C  
HETATM   35  C   UNL     1     -13.833   9.350  71.376  1.00  0.00    -0.253 C  
HETATM   36  C   UNL     1     -12.752  11.624  71.703  1.00  0.00    -0.375 C  
HETATM   37  C   UNL     1     -13.388   8.740  72.703  1.00  0.00    -0.340 C  
ENDBRANCH  29  31
ENDBRANCH  27  29
ENDBRANCH  25  27
ENDBRANCH  22  25
ENDBRANCH  19  22
ENDBRANCH  15  16
ENDBRANCH  14  15
ENDBRANCH  12  14
ENDBRANCH  10  12
ENDBRANCH   7  10
ENDBRANCH   2   3
TORSDOF 11
ENDMDL
MODEL      135
REMARK 921   NORMALIZED FREE ENERGY PREDICTED BY IDOCK:   -5.29 KCAL/MOL
REMARK 922        TOTAL FREE ENERGY PREDICTED BY IDOCK:  -10.99 KCAL/MOL
REMARK 923 INTER-LIGAND FREE ENERGY PREDICTED BY IDOCK:   -9.97 KCAL/MOL
REMARK 924 INTRA-LIGAND FREE ENERGY PREDICTED BY IDOCK:   -1.02 KCAL/MOL
REMARK 927      BINDING AFFINITY PREDICTED BY RF-SCORE:    0.00 PKD
ROOT
HETATM    1  C   UNL     1      -9.402  19.770  65.957  1.00  0.00    -0.367 C  
HETATM    2  C   UNL     1     -10.659  18.938  66.165  1.00  0.00    -0.476 C  
ENDROOT
BRANCH   2   3
HETATM    3  C   UNL     1     -10.342  17.496  66.341  1.00  0.00    -0.334 C  
HETATM    4  C   UNL     1      -9.722  16.839  67.332  1.00  0.00    -0.245 C  
HETATM    5  C   UNL     1      -9.625  15.371  67.066  1.00  0.00    -0.218 C  
HETATM    6  C   UNL     1      -9.203  17.401  68.609  1.00  0.00    -0.265 C  
HETATM    7  N   UNL     1     -10.349  15.239  65.831  1.00  0.00    -0.306 N  
HETATM    8  O   UNL     1     -11.260  16.733  64.268  1.00  0.00    -1.163 OA 
HETATM    9  C   UNL     1     -10.724  16.482  65.336  1.00  0.00    -0.259 C  
BRANCH   7  10
HETATM   10  C   UNL     1     -10.767  13.996  65.392  1.00  0.00    -0.337 C  
HETATM   11  O   UNL     1     -10.350  13.491  64.352  1.00  0.00    -0.433 OA 
BRANCH  10  12
HETATM   12  N   UNL     1     -11.648  13.354  66.224  1.00  0.00    -0.330 N  
HETATM   13  H   UNL     1     -12.625  13.648  66.217  1.00  0.00     0.000 HD 
BRANCH  12  14
HETATM   14  C   UNL     1     -11.257  12.277  67.111  1.00  0.00    -0.307 C  
BRANCH  14  15
HETATM   15  C   UNL     1     -11.808  12.441  68.538  1.00  0.00    -0.352 C  
BRANCH  15  16
HETATM   16  C   UNL     1     -11.459  11.303  69.483  1.00  0.00    -0.376 A  
HETATM   17  C   UNL     1     -10.194  10.697  69.467  1.00  0.00    -0.190 A  
HETATM   18  C   UNL     1      -9.904   9.615  70.300  1.00  0.00    -0.321 A  
HETATM   19  C   UNL     1     -10.853   9.159  71.216  1.00  0.00    -0.332 A  
HETATM   20  C   UNL     1     -12.105   9.777  71.282  1.00  0.00    -0.470 A  
HETATM   21  C   UNL     1     -12.400  10.847  70.423  1.00  0.00    -0.436 A  
BRANCH  19  22
HETATM   22  S   UNL     1     -10.514   7.691  72.169  1.00  0.00    -0.236 S  
HETATM   23  O   UNL     1      -9.493   8.035  73.138  1.00  0.00    -0.262 OA 
HETATM   24  O   UNL     1     -11.769   7.119  72.606  1.00  0.00    -0.234 OA 
BRANCH  22  25
HETATM   25  N   UNL     1      -9.763   6.643  71.103  1.00  0.00    -0.174 N  
HETATM   26  H   UNL     1      -8.819   6.325  71.324  1.00  0.00     0.000 HD 
BRANCH  25  27
HETATM   27  C   UNL     1     -10.352   6.187  69.941  1.00  0.00    -0.213 C  
HETATM   28  O   UNL     1     -11.563   6.132  69.793  1.00  0.00    -0.405 OA 
BRANCH  27  29
HETATM   29  N   UNL     1      -9.471   5.801  68.957  1.00  0.00    -0.122 N  
HETATM   30  H   UNL     1      -8.934   4.939  69.048  1.00  0.00     0.000 HD 
BRANCH  29  31
HETATM   31  C   UNL     1      -9.325   6.654  67.781  1.00  0.00    -0.119 C  
HETATM   32  C   UNL     1      -7.904   7.206  67.611  1.00  0.00    -0.113 C  
HETATM   33  C   UNL     1      -6.934   6.276  66.884  1.00  0.00    -0.071 C  
HETATM   34  C   UNL     1      -7.511   5.680  65.595  1.00  0.00    -0.074 C  
HETATM   35  C   UNL     1      -8.852   5.000  65.894  1.00  0.00    -0.134 C  
HETATM   36  C   UNL     1      -7.636   6.721  64.476  1.00  0.00    -0.103 C  
HETATM   37  C   UNL     1      -9.862   5.957  66.522  1.00  0.00    -0.189 C  
ENDBRANCH  29  31
ENDBRANCH  27  29
ENDBRANCH  25  27
ENDBRANCH  22  25
ENDBRANCH  19  22
ENDBRANCH  15  16
ENDBRANCH  14  15
ENDBRANCH  12  14
ENDBRANCH  10  12
ENDBRANCH   7  10
ENDBRANCH   2   3
TORSDOF 11
ENDMDL
MODEL      136
REMARK 921   NORMALIZED FREE ENERGY PREDICTED BY IDOCK:   -5.26 KCAL/MOL
REMARK 922        TOTAL FREE ENERGY PREDICTED BY IDOCK:  -10.94 KCAL/MOL
REMARK 923 INTER-LIGAND FREE ENERGY PREDICTED BY IDOCK:   -7.88 KCAL/MOL
REMARK 924 INTRA-LIGAND FREE ENERGY PREDICTED BY IDOCK:   -3.06 KCAL/MOL
REMARK 927      BINDING AFFINITY PREDICTED BY RF-SCORE:    0.00 PKD
ROOT
HETATM    1  C   UNL     1     -11.994  13.628  69.151  1.00  0.00    -0.394 C  
HETATM    2  C   UNL     1     -10.772  13.665  68.247  1.00  0.00    -0.266 C  
ENDROOT
BRANCH   2   3
HETATM    3  C   UNL     1     -10.889  12.696  67.124  1.00  0.00    -0.282 C  
HETATM    4  C   UNL     1     -11.582  12.748  65.977  1.00  0.00    -0.432 C  
HETATM    5  C   UNL     1     -11.395  11.520  65.146  1.00  0.00    -0.086 C  
HETATM    6  C   UNL     1     -12.423  13.867  65.474  1.00  0.00    -0.541 C  
HETATM    7  N   UNL     1     -10.431  10.779  65.912  1.00  0.00    -0.234 N  
HETATM    8  O   UNL     1      -9.473  11.001  68.043  1.00  0.00    -0.158 OA 
HETATM    9  C   UNL     1     -10.164  11.408  67.122  1.00  0.00    -0.202 C  
BRANCH   7  10
HETATM   10  C   UNL     1      -9.746   9.720  65.344  1.00  0.00    -0.313 C  
HETATM   11  O   UNL     1      -9.172   9.811  64.262  1.00  0.00    -0.249 OA 
BRANCH  10  12
HETATM   12  N   UNL     1      -9.722   8.575  66.100  1.00  0.00    -0.409 N  
HETATM   13  H   UNL     1     -10.548   8.338  66.648  1.00  0.00     0.000 HD 
BRANCH  12  14
HETATM   14  C   UNL     1      -8.577   7.688  66.155  1.00  0.00    -0.148 C  
BRANCH  14  15
HETATM   15  C   UNL     1      -7.578   8.060  67.264  1.00  0.00    -0.097 C  
BRANCH  15  16
HETATM   16  C   UNL     1      -7.594   7.130  68.465  1.00  0.00    -0.115 A  
HETATM   17  C   UNL     1      -7.917   5.771  68.337  1.00  0.00    -0.104 A  
HETATM   18  C   UNL     1      -7.984   4.939  69.456  1.00  0.00    -0.070 A  
HETATM   19  C   UNL     1      -7.662   5.434  70.720  1.00  0.00    -0.090 A  
HETATM   20  C   UNL     1      -7.293   6.774  70.866  1.00  0.00    -0.082 A  
HETATM   21  C   UNL     1      -7.254   7.613  69.741  1.00  0.00    -0.079 A  
BRANCH  19  22
HETATM   22  S   UNL     1      -7.890   4.395  72.151  1.00  0.00    -0.092 S  
HETATM   23  O   UNL     1      -8.765   3.309  71.756  1.00  0.00    -0.081 OA 
HETATM   24  O   UNL     1      -6.597   4.111  72.732  1.00  0.00    -0.040 OA 
BRANCH  22  25
HETATM   25  N   UNL     1      -8.794   5.313  73.217  1.00  0.00    -0.119 N  
HETATM   26  H   UNL     1      -8.305   5.978  73.817  1.00  0.00     0.000 HD 
BRANCH  25  27
HETATM   27  C   UNL     1     -10.167   5.220  73.329  1.00  0.00    -0.189 C  
HETATM   28  O   UNL     1     -10.726   4.955  74.382  1.00  0.00    -0.327 OA 
BRANCH  27  29
HETATM   29  N   UNL     1     -10.861   5.450  72.164  1.00  0.00    -0.228 N  
HETATM   30  H   UNL     1     -10.778   4.813  71.373  1.00  0.00     0.000 HD 
BRANCH  29  31
HETATM   31  C   UNL     1     -11.719   6.630  72.088  1.00  0.00    -0.304 C  
HETATM   32  C   UNL     1     -11.193   7.811  72.913  1.00  0.00    -0.434 C  
HETATM   33  C   UNL     1     -10.163   8.686  72.201  1.00  0.00    -0.394 C  
HETATM   34  C   UNL     1     -10.575   9.077  70.777  1.00  0.00    -0.300 C  
HETATM   35  C   UNL     1     -10.919   7.819  69.974  1.00  0.00    -0.218 C  
HETATM   36  C   UNL     1     -11.720  10.096  70.760  1.00  0.00    -0.446 C  
HETATM   37  C   UNL     1     -12.027   6.996  70.628  1.00  0.00    -0.361 C  
ENDBRANCH  29  31
ENDBRANCH  27  29
ENDBRANCH  25  27
ENDBRANCH  22  25
ENDBRANCH  19  22
ENDBRANCH  15  16
ENDBRANCH  14  15
ENDBRANCH  12  14
ENDBRANCH  10  12
ENDBRANCH   7  10
ENDBRANCH   2   3
TORSDOF 11
ENDMDL
MODEL      137
REMARK 921   NORMALIZED FREE ENERGY PREDICTED BY IDOCK:   -5.25 KCAL/MOL
REMARK 922        TOTAL FREE ENERGY PREDICTED BY IDOCK:  -10.93 KCAL/MOL
REMARK 923 INTER-LIGAND FREE ENERGY PREDICTED BY IDOCK:   -8.95 KCAL/MOL
REMARK 924 INTRA-LIGAND FREE ENERGY PREDICTED BY IDOCK:   -1.98 KCAL/MOL
REMARK 927      BINDING AFFINITY PREDICTED BY RF-SCORE:    0.00 PKD
ROOT
HETATM    1  C   UNL     1      -9.692   6.314  73.776  1.00  0.00    -0.194 C  
HETATM    2  C   UNL     1     -10.826   5.475  73.208  1.00  0.00    -0.337 C  
ENDROOT
BRANCH   2   3
HETATM    3  C   UNL     1     -11.003   5.703  71.749  1.00  0.00    -0.290 C  
HETATM    4  C   UNL     1     -11.828   6.515  71.071  1.00  0.00    -0.390 C  
HETATM    5  C   UNL     1     -11.649   6.399  69.592  1.00  0.00    -0.282 C  
HETATM    6  C   UNL     1     -12.802   7.491  71.630  1.00  0.00    -0.392 C  
HETATM    7  N   UNL     1     -10.549   5.479  69.491  1.00  0.00    -0.306 N  
HETATM    8  O   UNL     1      -9.367   4.126  71.001  1.00  0.00    -0.125 OA 
HETATM    9  C   UNL     1     -10.190   4.991  70.741  1.00  0.00    -0.229 C  
BRANCH   7  10
HETATM   10  C   UNL     1      -9.859   5.337  68.300  1.00  0.00    -0.155 C  
HETATM   11  O   UNL     1      -9.728   4.250  67.742  1.00  0.00    -0.165 OA 
BRANCH  10  12
HETATM   12  N   UNL     1      -9.371   6.504  67.771  1.00  0.00    -0.119 N  
HETATM   13  H   UNL     1      -9.922   6.982  67.057  1.00  0.00     0.000 HD 
BRANCH  12  14
HETATM   14  C   UNL     1      -8.110   7.090  68.177  1.00  0.00    -0.119 C  
BRANCH  14  15
HETATM   15  C   UNL     1      -8.218   7.922  69.467  1.00  0.00    -0.130 C  
BRANCH  15  16
HETATM   16  C   UNL     1      -8.862   9.286  69.285  1.00  0.00    -0.146 A  
HETATM   17  C   UNL     1     -10.088   9.606  69.887  1.00  0.00    -0.279 A  
HETATM   18  C   UNL     1     -10.697  10.842  69.666  1.00  0.00    -0.232 A  
HETATM   19  C   UNL     1     -10.059  11.811  68.891  1.00  0.00    -0.071 A  
HETATM   20  C   UNL     1      -8.815  11.532  68.318  1.00  0.00    -0.166 A  
HETATM   21  C   UNL     1      -8.220  10.278  68.522  1.00  0.00    -0.111 A  
BRANCH  19  22
HETATM   22  S   UNL     1     -10.916  13.327  68.506  1.00  0.00    -0.276 S  
HETATM   23  O   UNL     1     -10.476  13.745  67.191  1.00  0.00    -0.269 OA 
HETATM   24  O   UNL     1     -12.326  13.147  68.778  1.00  0.00    -0.146 OA 
BRANCH  22  25
HETATM   25  N   UNL     1     -10.284  14.464  69.557  1.00  0.00    -0.432 N  
HETATM   26  H   UNL     1      -9.429  14.232  70.062  1.00  0.00     0.000 HD 
BRANCH  25  27
HETATM   27  C   UNL     1     -10.858  15.701  69.776  1.00  0.00    -0.308 C  
HETATM   28  O   UNL     1     -11.269  16.051  70.871  1.00  0.00    -0.358 OA 
BRANCH  27  29
HETATM   29  N   UNL     1     -10.929  16.512  68.668  1.00  0.00    -0.344 N  
HETATM   30  H   UNL     1     -11.831  16.780  68.276  1.00  0.00     0.000 HD 
BRANCH  29  31
HETATM   31  C   UNL     1      -9.682  16.979  68.067  1.00  0.00    -0.260 C  
HETATM   32  C   UNL     1      -9.756  17.091  66.539  1.00  0.00    -0.296 C  
HETATM   33  C   UNL     1     -10.336  18.404  66.017  1.00  0.00    -0.397 C  
HETATM   34  C   UNL     1      -9.737  19.645  66.689  1.00  0.00    -0.494 C  
HETATM   35  C   UNL     1      -9.861  19.522  68.211  1.00  0.00    -0.512 C  
HETATM   36  C   UNL     1      -8.289  19.902  66.253  1.00  0.00    -0.371 C  
HETATM   37  C   UNL     1      -9.186  18.262  68.749  1.00  0.00    -0.252 C  
ENDBRANCH  29  31
ENDBRANCH  27  29
ENDBRANCH  25  27
ENDBRANCH  22  25
ENDBRANCH  19  22
ENDBRANCH  15  16
ENDBRANCH  14  15
ENDBRANCH  12  14
ENDBRANCH  10  12
ENDBRANCH   7  10
ENDBRANCH   2   3
TORSDOF 11
ENDMDL
MODEL      138
REMARK 921   NORMALIZED FREE ENERGY PREDICTED BY IDOCK:   -5.25 KCAL/MOL
REMARK 922        TOTAL FREE ENERGY PREDICTED BY IDOCK:  -10.93 KCAL/MOL
REMARK 923 INTER-LIGAND FREE ENERGY PREDICTED BY IDOCK:   -7.43 KCAL/MOL
REMARK 924 INTRA-LIGAND FREE ENERGY PREDICTED BY IDOCK:   -3.49 KCAL/MOL
REMARK 927      BINDING AFFINITY PREDICTED BY RF-SCORE:    0.00 PKD
ROOT
HETATM    1  C   UNL     1      -9.574   4.235  64.671  1.00  0.00    -0.160 C  
HETATM    2  C   UNL     1      -8.878   4.748  65.923  1.00  0.00    -0.127 C  
ENDROOT
BRANCH   2   3
HETATM    3  C   UNL     1      -8.883   6.233  65.986  1.00  0.00    -0.159 C  
HETATM    4  C   UNL     1      -9.773   7.097  66.498  1.00  0.00    -0.199 C  
HETATM    5  C   UNL     1      -9.350   8.519  66.321  1.00  0.00    -0.224 C  
HETATM    6  C   UNL     1     -11.034   6.778  67.222  1.00  0.00    -0.433 C  
HETATM    7  N   UNL     1      -8.053   8.377  65.719  1.00  0.00    -0.111 N  
HETATM    8  O   UNL     1      -6.812   6.588  64.843  1.00  0.00    -0.044 OA 
HETATM    9  C   UNL     1      -7.775   7.044  65.438  1.00  0.00    -0.111 C  
BRANCH   7  10
HETATM   10  C   UNL     1      -7.178   9.447  65.673  1.00  0.00    -0.091 C  
HETATM   11  O   UNL     1      -7.527  10.568  65.310  1.00  0.00    -0.137 OA 
BRANCH  10  12
HETATM   12  N   UNL     1      -5.905   9.172  66.103  1.00  0.00    -0.053 N  
HETATM   13  H   UNL     1      -5.219   8.852  65.418  1.00  0.00     0.000 HD 
BRANCH  12  14
HETATM   14  C   UNL     1      -5.487   9.315  67.483  1.00  0.00    -0.037 C  
BRANCH  14  15
HETATM   15  C   UNL     1      -5.734   8.050  68.323  1.00  0.00    -0.033 C  
BRANCH  15  16
HETATM   16  C   UNL     1      -7.050   8.045  69.082  1.00  0.00    -0.068 A  
HETATM   17  C   UNL     1      -7.645   6.850  69.514  1.00  0.00    -0.099 A  
HETATM   18  C   UNL     1      -8.882   6.855  70.160  1.00  0.00    -0.145 A  
HETATM   19  C   UNL     1      -9.520   8.062  70.450  1.00  0.00    -0.166 A  
HETATM   20  C   UNL     1      -8.924   9.268  70.070  1.00  0.00    -0.216 A  
HETATM   21  C   UNL     1      -7.693   9.256  69.396  1.00  0.00    -0.082 A  
BRANCH  19  22
HETATM   22  S   UNL     1     -11.160   8.040  71.147  1.00  0.00    -0.257 S  
HETATM   23  O   UNL     1     -11.770   6.782  70.767  1.00  0.00    -0.345 OA 
HETATM   24  O   UNL     1     -11.079   8.417  72.541  1.00  0.00    -0.361 OA 
BRANCH  22  25
HETATM   25  N   UNL     1     -12.009   9.206  70.301  1.00  0.00    -0.461 N  
HETATM   26  H   UNL     1     -12.352   8.973  69.369  1.00  0.00     0.000 HD 
BRANCH  25  27
HETATM   27  C   UNL     1     -12.271  10.468  70.797  1.00  0.00    -0.369 C  
HETATM   28  O   UNL     1     -13.129  10.680  71.639  1.00  0.00    -0.425 OA 
BRANCH  27  29
HETATM   29  N   UNL     1     -11.489  11.471  70.273  1.00  0.00    -0.515 N  
HETATM   30  H   UNL     1     -10.584  11.696  70.685  1.00  0.00     0.000 HD 
BRANCH  29  31
HETATM   31  C   UNL     1     -11.986  12.204  69.111  1.00  0.00    -0.255 C  
HETATM   32  C   UNL     1     -11.790  13.721  69.229  1.00  0.00    -0.392 C  
HETATM   33  C   UNL     1     -10.419  14.230  68.788  1.00  0.00    -0.249 C  
HETATM   34  C   UNL     1      -9.962  13.662  67.439  1.00  0.00    -0.234 C  
HETATM   35  C   UNL     1     -10.028  12.132  67.472  1.00  0.00    -0.202 C  
HETATM   36  C   UNL     1     -10.756  14.242  66.263  1.00  0.00    -0.297 C  
HETATM   37  C   UNL     1     -11.427  11.617  67.806  1.00  0.00    -0.373 C  
ENDBRANCH  29  31
ENDBRANCH  27  29
ENDBRANCH  25  27
ENDBRANCH  22  25
ENDBRANCH  19  22
ENDBRANCH  15  16
ENDBRANCH  14  15
ENDBRANCH  12  14
ENDBRANCH  10  12
ENDBRANCH   7  10
ENDBRANCH   2   3
TORSDOF 11
ENDMDL
MODEL      139
REMARK 921   NORMALIZED FREE ENERGY PREDICTED BY IDOCK:   -5.23 KCAL/MOL
REMARK 922        TOTAL FREE ENERGY PREDICTED BY IDOCK:  -10.91 KCAL/MOL
REMARK 923 INTER-LIGAND FREE ENERGY PREDICTED BY IDOCK:   -9.20 KCAL/MOL
REMARK 924 INTRA-LIGAND FREE ENERGY PREDICTED BY IDOCK:   -1.71 KCAL/MOL
REMARK 927      BINDING AFFINITY PREDICTED BY RF-SCORE:    0.00 PKD
ROOT
HETATM    1  C   UNL     1      -8.616   1.556  67.054  1.00  0.00    -0.107 C  
HETATM    2  C   UNL     1      -7.805   2.334  68.079  1.00  0.00    -0.058 C  
ENDROOT
BRANCH   2   3
HETATM    3  C   UNL     1      -8.399   3.669  68.353  1.00  0.00    -0.096 C  
HETATM    4  C   UNL     1      -8.282   4.841  67.711  1.00  0.00    -0.100 C  
HETATM    5  C   UNL     1      -9.071   5.928  68.366  1.00  0.00    -0.115 C  
HETATM    6  C   UNL     1      -7.526   5.118  66.460  1.00  0.00    -0.087 C  
HETATM    7  N   UNL     1      -9.739   5.222  69.425  1.00  0.00    -0.158 N  
HETATM    8  O   UNL     1      -9.599   3.061  70.331  1.00  0.00    -0.159 OA 
HETATM    9  C   UNL     1      -9.310   3.902  69.494  1.00  0.00    -0.176 C  
BRANCH   7  10
HETATM   10  C   UNL     1     -10.811   5.794  70.084  1.00  0.00    -0.313 C  
HETATM   11  O   UNL     1     -11.756   6.304  69.486  1.00  0.00    -0.360 OA 
BRANCH  10  12
HETATM   12  N   UNL     1     -10.761   5.713  71.452  1.00  0.00    -0.253 N  
HETATM   13  H   UNL     1     -10.030   5.142  71.878  1.00  0.00     0.000 HD 
BRANCH  12  14
HETATM   14  C   UNL     1     -11.696   6.399  72.321  1.00  0.00    -0.290 C  
BRANCH  14  15
HETATM   15  C   UNL     1     -11.183   7.768  72.799  1.00  0.00    -0.456 C  
BRANCH  15  16
HETATM   16  C   UNL     1     -11.286   8.876  71.764  1.00  0.00    -0.432 A  
HETATM   17  C   UNL     1     -10.209   9.201  70.927  1.00  0.00    -0.351 A  
HETATM   18  C   UNL     1     -10.297  10.258  70.019  1.00  0.00    -0.255 A  
HETATM   19  C   UNL     1     -11.489  10.969  69.881  1.00  0.00    -0.320 A  
HETATM   20  C   UNL     1     -12.591  10.632  70.673  1.00  0.00    -0.454 A  
HETATM   21  C   UNL     1     -12.488   9.587  71.603  1.00  0.00    -0.476 A  
BRANCH  19  22
HETATM   22  S   UNL     1     -11.537  12.401  68.821  1.00  0.00    -0.345 S  
HETATM   23  O   UNL     1     -11.948  11.948  67.507  1.00  0.00    -0.586 OA 
HETATM   24  O   UNL     1     -12.271  13.452  69.490  1.00  0.00    -0.286 OA 
BRANCH  22  25
HETATM   25  N   UNL     1      -9.940  12.862  68.639  1.00  0.00    -0.391 N  
HETATM   26  H   UNL     1      -9.291  12.670  69.403  1.00  0.00     0.000 HD 
BRANCH  25  27
HETATM   27  C   UNL     1      -9.451  13.489  67.510  1.00  0.00    -0.222 C  
HETATM   28  O   UNL     1      -8.550  13.019  66.833  1.00  0.00    -0.194 OA 
BRANCH  27  29
HETATM   29  N   UNL     1     -10.058  14.683  67.201  1.00  0.00    -0.243 N  
HETATM   30  H   UNL     1     -10.638  14.774  66.368  1.00  0.00     0.000 HD 
BRANCH  29  31
HETATM   31  C   UNL     1      -9.853  15.819  68.097  1.00  0.00    -0.209 C  
HETATM   32  C   UNL     1      -8.394  16.288  68.150  1.00  0.00    -0.172 C  
HETATM   33  C   UNL     1      -7.991  17.265  67.047  1.00  0.00    -0.242 C  
HETATM   34  C   UNL     1      -8.990  18.411  66.853  1.00  0.00    -0.280 C  
HETATM   35  C   UNL     1     -10.396  17.842  66.637  1.00  0.00    -0.362 C  
HETATM   36  C   UNL     1      -8.954  19.419  68.008  1.00  0.00    -0.371 C  
HETATM   37  C   UNL     1     -10.847  16.951  67.792  1.00  0.00    -0.281 C  
ENDBRANCH  29  31
ENDBRANCH  27  29
ENDBRANCH  25  27
ENDBRANCH  22  25
ENDBRANCH  19  22
ENDBRANCH  15  16
ENDBRANCH  14  15
ENDBRANCH  12  14
ENDBRANCH  10  12
ENDBRANCH   7  10
ENDBRANCH   2   3
TORSDOF 11
ENDMDL
MODEL      140
REMARK 921   NORMALIZED FREE ENERGY PREDICTED BY IDOCK:   -5.22 KCAL/MOL
REMARK 922        TOTAL FREE ENERGY PREDICTED BY IDOCK:  -10.89 KCAL/MOL
REMARK 923 INTER-LIGAND FREE ENERGY PREDICTED BY IDOCK:   -9.72 KCAL/MOL
REMARK 924 INTRA-LIGAND FREE ENERGY PREDICTED BY IDOCK:   -1.17 KCAL/MOL
REMARK 927      BINDING AFFINITY PREDICTED BY RF-SCORE:    0.00 PKD
ROOT
HETATM    1  C   UNL     1      -8.276   2.501  63.723  1.00  0.00    -0.082 C  
HETATM    2  C   UNL     1      -7.074   2.950  64.541  1.00  0.00    -0.050 C  
ENDROOT
BRANCH   2   3
HETATM    3  C   UNL     1      -7.485   3.602  65.812  1.00  0.00    -0.077 C  
HETATM    4  C   UNL     1      -7.831   3.088  67.002  1.00  0.00    -0.075 C  
HETATM    5  C   UNL     1      -8.179   4.146  67.998  1.00  0.00    -0.093 C  
HETATM    6  C   UNL     1      -7.847   1.654  67.401  1.00  0.00    -0.060 C  
HETATM    7  N   UNL     1      -7.907   5.353  67.266  1.00  0.00    -0.100 N  
HETATM    8  O   UNL     1      -7.371   5.863  65.039  1.00  0.00    -0.067 OA 
HETATM    9  C   UNL     1      -7.566   5.072  65.948  1.00  0.00    -0.090 C  
BRANCH   7  10
HETATM   10  C   UNL     1      -7.800   6.565  67.924  1.00  0.00    -0.108 C  
HETATM   11  O   UNL     1      -6.714   7.076  68.190  1.00  0.00    -0.059 OA 
BRANCH  10  12
HETATM   12  N   UNL     1      -8.994   7.171  68.218  1.00  0.00    -0.126 N  
HETATM   13  H   UNL     1      -9.252   7.287  69.199  1.00  0.00     0.000 HD 
BRANCH  12  14
HETATM   14  C   UNL     1      -9.907   7.655  67.203  1.00  0.00    -0.202 C  
BRANCH  14  15
HETATM   15  C   UNL     1      -9.198   8.394  66.054  1.00  0.00    -0.247 C  
BRANCH  15  16
HETATM   16  C   UNL     1      -9.846   9.708  65.655  1.00  0.00    -0.369 A  
HETATM   17  C   UNL     1     -10.409  10.569  66.608  1.00  0.00    -0.295 A  
HETATM   18  C   UNL     1     -11.053  11.747  66.223  1.00  0.00    -0.364 A  
HETATM   19  C   UNL     1     -11.087  12.122  64.880  1.00  0.00    -0.319 A  
HETATM   20  C   UNL     1     -10.492  11.303  63.917  1.00  0.00    -0.452 A  
HETATM   21  C   UNL     1      -9.870  10.106  64.306  1.00  0.00    -0.270 A  
BRANCH  19  22
HETATM   22  S   UNL     1     -12.033  13.553  64.396  1.00  0.00    -0.434 S  
HETATM   23  O   UNL     1     -12.422  13.362  63.013  1.00  0.00    -0.667 OA 
HETATM   24  O   UNL     1     -13.037  13.812  65.404  1.00  0.00    -0.727 OA 
BRANCH  22  25
HETATM   25  N   UNL     1     -10.933  14.813  64.366  1.00  0.00    -0.618 N  
HETATM   26  H   UNL     1      -9.980  14.615  64.061  1.00  0.00     0.000 HD 
BRANCH  25  27
HETATM   27  C   UNL     1     -11.247  16.107  64.732  1.00  0.00    -0.304 C  
HETATM   28  O   UNL     1     -11.721  16.917  63.951  1.00  0.00    -0.845 OA 
BRANCH  27  29
HETATM   29  N   UNL     1     -10.988  16.416  66.047  1.00  0.00    -0.062 N  
HETATM   30  H   UNL     1     -11.628  16.128  66.786  1.00  0.00     0.000 HD 
BRANCH  29  31
HETATM   31  C   UNL     1      -9.775  17.168  66.358  1.00  0.00    -0.292 C  
HETATM   32  C   UNL     1      -9.952  18.685  66.210  1.00  0.00    -0.398 C  
HETATM   33  C   UNL     1     -10.533  19.388  67.435  1.00  0.00    -0.581 C  
HETATM   34  C   UNL     1      -9.859  18.981  68.750  1.00  0.00    -0.485 C  
HETATM   35  C   UNL     1      -9.880  17.456  68.893  1.00  0.00    -0.286 C  
HETATM   36  C   UNL     1      -8.438  19.546  68.875  1.00  0.00    -0.291 C  
HETATM   37  C   UNL     1      -9.201  16.752  67.721  1.00  0.00    -0.222 C  
ENDBRANCH  29  31
ENDBRANCH  27  29
ENDBRANCH  25  27
ENDBRANCH  22  25
ENDBRANCH  19  22
ENDBRANCH  15  16
ENDBRANCH  14  15
ENDBRANCH  12  14
ENDBRANCH  10  12
ENDBRANCH   7  10
ENDBRANCH   2   3
TORSDOF 11
ENDMDL
MODEL      141
REMARK 921   NORMALIZED FREE ENERGY PREDICTED BY IDOCK:   -5.20 KCAL/MOL
REMARK 922        TOTAL FREE ENERGY PREDICTED BY IDOCK:  -10.85 KCAL/MOL
REMARK 923 INTER-LIGAND FREE ENERGY PREDICTED BY IDOCK:   -8.77 KCAL/MOL
REMARK 924 INTRA-LIGAND FREE ENERGY PREDICTED BY IDOCK:   -2.08 KCAL/MOL
REMARK 927      BINDING AFFINITY PREDICTED BY RF-SCORE:    0.00 PKD
ROOT
HETATM    1  C   UNL     1     -10.276  18.482  68.075  1.00  0.00    -0.415 C  
HETATM    2  C   UNL     1      -9.484  17.363  67.417  1.00  0.00    -0.246 C  
ENDROOT
BRANCH   2   3
HETATM    3  C   UNL     1     -10.319  16.151  67.203  1.00  0.00    -0.291 C  
HETATM    4  C   UNL     1     -10.738  15.201  68.053  1.00  0.00    -0.264 C  
HETATM    5  C   UNL     1     -11.564  14.157  67.373  1.00  0.00    -0.372 C  
HETATM    6  C   UNL     1     -10.510  15.132  69.521  1.00  0.00    -0.268 C  
HETATM    7  N   UNL     1     -11.650  14.664  66.031  1.00  0.00    -0.351 N  
HETATM    8  O   UNL     1     -10.638  16.420  64.847  1.00  0.00    -0.677 OA 
HETATM    9  C   UNL     1     -10.866  15.801  65.875  1.00  0.00    -0.268 C  
BRANCH   7  10
HETATM   10  C   UNL     1     -12.588  14.160  65.148  1.00  0.00    -0.408 C  
HETATM   11  O   UNL     1     -13.766  14.000  65.459  1.00  0.00    -0.415 OA 
BRANCH  10  12
HETATM   12  N   UNL     1     -12.112  13.891  63.890  1.00  0.00    -0.754 N  
HETATM   13  H   UNL     1     -12.037  14.661  63.224  1.00  0.00     0.000 HD 
BRANCH  12  14
HETATM   14  C   UNL     1     -11.711  12.566  63.461  1.00  0.00    -0.518 C  
BRANCH  14  15
HETATM   15  C   UNL     1     -10.239  12.249  63.777  1.00  0.00    -0.427 C  
BRANCH  15  16
HETATM   16  C   UNL     1      -9.995  11.726  65.183  1.00  0.00    -0.285 A  
HETATM   17  C   UNL     1      -8.937  12.202  65.971  1.00  0.00     0.017 A  
HETATM   18  C   UNL     1      -8.689  11.673  67.238  1.00  0.00    -0.159 A  
HETATM   19  C   UNL     1      -9.537  10.703  67.773  1.00  0.00    -0.157 A  
HETATM   20  C   UNL     1     -10.625  10.246  67.025  1.00  0.00    -0.302 A  
HETATM   21  C   UNL     1     -10.854  10.762  65.740  1.00  0.00    -0.076 A  
BRANCH  19  22
HETATM   22  S   UNL     1      -9.122   9.941  69.331  1.00  0.00    -0.218 S  
HETATM   23  O   UNL     1      -7.882  10.538  69.783  1.00  0.00    -0.139 OA 
HETATM   24  O   UNL     1     -10.291   9.958  70.183  1.00  0.00    -0.255 OA 
BRANCH  22  25
HETATM   25  N   UNL     1      -8.729   8.360  68.952  1.00  0.00    -0.135 N  
HETATM   26  H   UNL     1      -9.134   7.613  69.516  1.00  0.00     0.000 HD 
BRANCH  25  27
HETATM   27  C   UNL     1      -7.886   8.012  67.915  1.00  0.00    -0.126 C  
HETATM   28  O   UNL     1      -6.690   8.260  67.926  1.00  0.00    -0.063 OA 
BRANCH  27  29
HETATM   29  N   UNL     1      -8.494   7.362  66.867  1.00  0.00    -0.120 N  
HETATM   30  H   UNL     1      -9.288   7.780  66.383  1.00  0.00     0.000 HD 
BRANCH  29  31
HETATM   31  C   UNL     1      -7.975   6.056  66.464  1.00  0.00    -0.105 C  
HETATM   32  C   UNL     1      -7.600   5.165  67.654  1.00  0.00    -0.087 C  
HETATM   33  C   UNL     1      -8.757   4.364  68.248  1.00  0.00    -0.116 C  
HETATM   34  C   UNL     1      -9.607   3.645  67.195  1.00  0.00    -0.194 C  
HETATM   35  C   UNL     1     -10.080   4.648  66.138  1.00  0.00    -0.291 C  
HETATM   36  C   UNL     1      -8.870   2.456  66.565  1.00  0.00    -0.135 C  
HETATM   37  C   UNL     1      -8.917   5.372  65.462  1.00  0.00    -0.149 C  
ENDBRANCH  29  31
ENDBRANCH  27  29
ENDBRANCH  25  27
ENDBRANCH  22  25
ENDBRANCH  19  22
ENDBRANCH  15  16
ENDBRANCH  14  15
ENDBRANCH  12  14
ENDBRANCH  10  12
ENDBRANCH   7  10
ENDBRANCH   2   3
TORSDOF 11
ENDMDL
MODEL      142
REMARK 921   NORMALIZED FREE ENERGY PREDICTED BY IDOCK:   -5.18 KCAL/MOL
REMARK 922        TOTAL FREE ENERGY PREDICTED BY IDOCK:  -10.81 KCAL/MOL
REMARK 923 INTER-LIGAND FREE ENERGY PREDICTED BY IDOCK:   -8.46 KCAL/MOL
REMARK 924 INTRA-LIGAND FREE ENERGY PREDICTED BY IDOCK:   -2.35 KCAL/MOL
REMARK 927      BINDING AFFINITY PREDICTED BY RF-SCORE:    0.00 PKD
ROOT
HETATM    1  C   UNL     1     -10.331  17.582  68.062  1.00  0.00    -0.368 C  
HETATM    2  C   UNL     1      -9.602  16.451  68.773  1.00  0.00    -0.249 C  
ENDROOT
BRANCH   2   3
HETATM    3  C   UNL     1     -10.411  15.203  68.794  1.00  0.00    -0.236 C  
HETATM    4  C   UNL     1     -11.383  14.790  69.620  1.00  0.00    -0.316 C  
HETATM    5  C   UNL     1     -11.909  13.441  69.247  1.00  0.00    -0.334 C  
HETATM    6  C   UNL     1     -11.977  15.531  70.765  1.00  0.00    -0.420 C  
HETATM    7  N   UNL     1     -11.181  13.154  68.042  1.00  0.00    -0.262 N  
HETATM    8  O   UNL     1      -9.389  14.154  66.902  1.00  0.00    -0.243 OA 
HETATM    9  C   UNL     1     -10.234  14.138  67.783  1.00  0.00    -0.242 C  
BRANCH   7  10
HETATM   10  C   UNL     1     -11.590  12.137  67.199  1.00  0.00    -0.335 C  
HETATM   11  O   UNL     1     -12.246  12.349  66.181  1.00  0.00    -0.635 OA 
BRANCH  10  12
HETATM   12  N   UNL     1     -11.174  10.882  67.562  1.00  0.00    -0.315 N  
HETATM   13  H   UNL     1     -11.233  10.616  68.545  1.00  0.00     0.000 HD 
BRANCH  12  14
HETATM   14  C   UNL     1     -10.656   9.915  66.615  1.00  0.00    -0.115 C  
BRANCH  14  15
HETATM   15  C   UNL     1      -9.229   9.448  66.948  1.00  0.00    -0.173 C  
BRANCH  15  16
HETATM   16  C   UNL     1      -9.158   8.142  67.721  1.00  0.00    -0.140 A  
HETATM   17  C   UNL     1     -10.227   7.234  67.729  1.00  0.00    -0.247 A  
HETATM   18  C   UNL     1     -10.172   6.065  68.489  1.00  0.00    -0.227 A  
HETATM   19  C   UNL     1      -9.017   5.743  69.203  1.00  0.00    -0.118 A  
HETATM   20  C   UNL     1      -7.921   6.610  69.172  1.00  0.00    -0.112 A  
HETATM   21  C   UNL     1      -7.992   7.798  68.429  1.00  0.00    -0.122 A  
BRANCH  19  22
HETATM   22  S   UNL     1      -9.019   4.320  70.276  1.00  0.00    -0.100 S  
HETATM   23  O   UNL     1      -9.281   3.160  69.447  1.00  0.00    -0.124 OA 
HETATM   24  O   UNL     1      -7.840   4.365  71.112  1.00  0.00    -0.069 OA 
BRANCH  22  25
HETATM   25  N   UNL     1     -10.385   4.491  71.225  1.00  0.00    -0.097 N  
HETATM   26  H   UNL     1     -11.278   4.170  70.849  1.00  0.00     0.000 HD 
BRANCH  25  27
HETATM   27  C   UNL     1     -10.370   5.043  72.490  1.00  0.00    -0.202 C  
HETATM   28  O   UNL     1     -10.973   4.552  73.432  1.00  0.00    -0.245 OA 
BRANCH  27  29
HETATM   29  N   UNL     1      -9.619   6.189  72.614  1.00  0.00    -0.156 N  
HETATM   30  H   UNL     1      -8.610   6.169  72.472  1.00  0.00     0.000 HD 
BRANCH  29  31
HETATM   31  C   UNL     1     -10.303   7.435  72.953  1.00  0.00    -0.279 C  
HETATM   32  C   UNL     1      -9.563   8.682  72.454  1.00  0.00    -0.305 C  
HETATM   33  C   UNL     1      -9.864   9.074  71.008  1.00  0.00    -0.352 C  
HETATM   34  C   UNL     1     -11.360   9.083  70.677  1.00  0.00    -0.311 C  
HETATM   35  C   UNL     1     -11.982   7.735  71.053  1.00  0.00    -0.281 C  
HETATM   36  C   UNL     1     -12.096  10.255  71.339  1.00  0.00    -0.457 C  
HETATM   37  C   UNL     1     -11.778   7.390  72.526  1.00  0.00    -0.277 C  
ENDBRANCH  29  31
ENDBRANCH  27  29
ENDBRANCH  25  27
ENDBRANCH  22  25
ENDBRANCH  19  22
ENDBRANCH  15  16
ENDBRANCH  14  15
ENDBRANCH  12  14
ENDBRANCH  10  12
ENDBRANCH   7  10
ENDBRANCH   2   3
TORSDOF 11
ENDMDL
MODEL      143
REMARK 921   NORMALIZED FREE ENERGY PREDICTED BY IDOCK:   -5.17 KCAL/MOL
REMARK 922        TOTAL FREE ENERGY PREDICTED BY IDOCK:  -10.81 KCAL/MOL
REMARK 923 INTER-LIGAND FREE ENERGY PREDICTED BY IDOCK:   -9.49 KCAL/MOL
REMARK 924 INTRA-LIGAND FREE ENERGY PREDICTED BY IDOCK:   -1.32 KCAL/MOL
REMARK 927      BINDING AFFINITY PREDICTED BY RF-SCORE:    0.00 PKD
ROOT
HETATM    1  C   UNL     1      -6.941   2.770  70.982  1.00  0.00    -0.033 C  
HETATM    2  C   UNL     1      -7.177   3.995  71.853  1.00  0.00    -0.058 C  
ENDROOT
BRANCH   2   3
HETATM    3  C   UNL     1      -8.598   4.434  71.813  1.00  0.00    -0.124 C  
HETATM    4  C   UNL     1      -9.655   4.084  72.560  1.00  0.00    -0.189 C  
HETATM    5  C   UNL     1     -10.903   4.793  72.143  1.00  0.00    -0.016 C  
HETATM    6  C   UNL     1      -9.679   3.153  73.720  1.00  0.00    -0.141 C  
HETATM    7  N   UNL     1     -10.423   5.672  71.112  1.00  0.00    -0.231 N  
HETATM    8  O   UNL     1      -8.394   5.934  69.960  1.00  0.00    -0.117 OA 
HETATM    9  C   UNL     1      -9.081   5.436  70.839  1.00  0.00    -0.139 C  
BRANCH   7  10
HETATM   10  C   UNL     1     -11.198   6.730  70.672  1.00  0.00    -0.312 C  
HETATM   11  O   UNL     1     -11.268   7.047  69.487  1.00  0.00    -0.220 OA 
BRANCH  10  12
HETATM   12  N   UNL     1     -11.912   7.371  71.652  1.00  0.00    -0.293 N  
HETATM   13  H   UNL     1     -11.567   7.327  72.612  1.00  0.00     0.000 HD 
BRANCH  12  14
HETATM   14  C   UNL     1     -13.133   8.106  71.389  1.00  0.00    -0.225 C  
BRANCH  14  15
HETATM   15  C   UNL     1     -13.307   9.333  72.301  1.00  0.00    -0.547 C  
BRANCH  15  16
HETATM   16  C   UNL     1     -12.865  10.647  71.680  1.00  0.00    -0.570 A  
HETATM   17  C   UNL     1     -13.307  11.881  72.179  1.00  0.00    -0.361 A  
HETATM   18  C   UNL     1     -12.939  13.079  71.564  1.00  0.00    -0.398 A  
HETATM   19  C   UNL     1     -12.065  13.072  70.477  1.00  0.00    -0.292 A  
HETATM   20  C   UNL     1     -11.575  11.857  69.991  1.00  0.00    -0.301 A  
HETATM   21  C   UNL     1     -11.969  10.654  70.596  1.00  0.00    -0.466 A  
BRANCH  19  22
HETATM   22  S   UNL     1     -11.721  14.598  69.621  1.00  0.00    -0.332 S  
HETATM   23  O   UNL     1     -12.671  15.582  70.101  1.00  0.00    -0.347 OA 
HETATM   24  O   UNL     1     -10.301  14.862  69.694  1.00  0.00    -0.205 OA 
BRANCH  22  25
HETATM   25  N   UNL     1     -12.157  14.314  68.032  1.00  0.00    -0.565 N  
HETATM   26  H   UNL     1     -12.840  13.580  67.842  1.00  0.00     0.000 HD 
BRANCH  25  27
HETATM   27  C   UNL     1     -11.641  15.019  66.963  1.00  0.00    -0.240 C  
HETATM   28  O   UNL     1     -11.746  14.636  65.808  1.00  0.00    -0.352 OA 
BRANCH  27  29
HETATM   29  N   UNL     1     -11.002  16.190  67.295  1.00  0.00    -0.237 N  
HETATM   30  H   UNL     1     -11.132  16.613  68.214  1.00  0.00     0.000 HD 
BRANCH  29  31
HETATM   31  C   UNL     1     -10.130  16.813  66.301  1.00  0.00    -0.326 C  
HETATM   32  C   UNL     1     -10.208  18.345  66.309  1.00  0.00    -0.427 C  
HETATM   33  C   UNL     1      -9.301  19.031  67.328  1.00  0.00    -0.344 C  
HETATM   34  C   UNL     1      -7.865  18.497  67.324  1.00  0.00    -0.240 C  
HETATM   35  C   UNL     1      -7.878  16.974  67.493  1.00  0.00    -0.186 C  
HETATM   36  C   UNL     1      -7.087  18.925  66.074  1.00  0.00    -0.297 C  
HETATM   37  C   UNL     1      -8.696  16.275  66.409  1.00  0.00    -0.354 C  
ENDBRANCH  29  31
ENDBRANCH  27  29
ENDBRANCH  25  27
ENDBRANCH  22  25
ENDBRANCH  19  22
ENDBRANCH  15  16
ENDBRANCH  14  15
ENDBRANCH  12  14
ENDBRANCH  10  12
ENDBRANCH   7  10
ENDBRANCH   2   3
TORSDOF 11
ENDMDL
MODEL      144
REMARK 921   NORMALIZED FREE ENERGY PREDICTED BY IDOCK:   -5.17 KCAL/MOL
REMARK 922        TOTAL FREE ENERGY PREDICTED BY IDOCK:  -10.81 KCAL/MOL
REMARK 923 INTER-LIGAND FREE ENERGY PREDICTED BY IDOCK:   -8.09 KCAL/MOL
REMARK 924 INTRA-LIGAND FREE ENERGY PREDICTED BY IDOCK:   -2.72 KCAL/MOL
REMARK 927      BINDING AFFINITY PREDICTED BY RF-SCORE:    0.00 PKD
ROOT
HETATM    1  C   UNL     1     -10.988  11.888  64.147  1.00  0.00    -0.430 C  
HETATM    2  C   UNL     1     -12.200  12.472  64.857  1.00  0.00    -0.534 C  
ENDROOT
BRANCH   2   3
HETATM    3  C   UNL     1     -11.825  13.122  66.141  1.00  0.00    -0.453 C  
HETATM    4  C   UNL     1     -11.758  12.642  67.392  1.00  0.00    -0.432 C  
HETATM    5  C   UNL     1     -11.331  13.683  68.376  1.00  0.00    -0.295 C  
HETATM    6  C   UNL     1     -12.007  11.247  67.843  1.00  0.00    -0.080 C  
HETATM    7  N   UNL     1     -11.070  14.814  67.528  1.00  0.00    -0.308 N  
HETATM    8  O   UNL     1     -11.419  15.309  65.261  1.00  0.00    -0.309 OA 
HETATM    9  C   UNL     1     -11.420  14.542  66.211  1.00  0.00    -0.358 C  
BRANCH   7  10
HETATM   10  C   UNL     1     -10.354  15.897  68.003  1.00  0.00    -0.262 C  
HETATM   11  O   UNL     1     -10.880  16.806  68.641  1.00  0.00    -0.336 OA 
BRANCH  10  12
HETATM   12  N   UNL     1      -9.007  15.860  67.744  1.00  0.00    -0.176 N  
HETATM   13  H   UNL     1      -8.657  16.350  66.920  1.00  0.00     0.000 HD 
BRANCH  12  14
HETATM   14  C   UNL     1      -8.059  15.157  68.584  1.00  0.00    -0.154 C  
BRANCH  14  15
HETATM   15  C   UNL     1      -7.084  14.273  67.786  1.00  0.00    -0.190 C  
BRANCH  15  16
HETATM   16  C   UNL     1      -7.391  12.786  67.844  1.00  0.00    -0.120 A  
HETATM   17  C   UNL     1      -8.117  12.146  66.829  1.00  0.00    -0.055 A  
HETATM   18  C   UNL     1      -8.441  10.791  66.922  1.00  0.00    -0.131 A  
HETATM   19  C   UNL     1      -7.986  10.032  68.000  1.00  0.00    -0.101 A  
HETATM   20  C   UNL     1      -7.222  10.638  69.000  1.00  0.00    -0.095 A  
HETATM   21  C   UNL     1      -6.922  12.006  68.916  1.00  0.00    -0.104 A  
BRANCH  19  22
HETATM   22  S   UNL     1      -8.528   8.342  68.170  1.00  0.00    -0.133 S  
HETATM   23  O   UNL     1      -9.975   8.346  68.090  1.00  0.00    -0.177 OA 
HETATM   24  O   UNL     1      -7.752   7.511  67.275  1.00  0.00    -0.111 OA 
BRANCH  22  25
HETATM   25  N   UNL     1      -8.184   7.931  69.754  1.00  0.00    -0.120 N  
HETATM   26  H   UNL     1      -7.538   8.524  70.278  1.00  0.00     0.000 HD 
BRANCH  25  27
HETATM   27  C   UNL     1      -8.726   6.833  70.392  1.00  0.00    -0.151 C  
HETATM   28  O   UNL     1      -8.041   5.937  70.860  1.00  0.00    -0.115 OA 
BRANCH  27  29
HETATM   29  N   UNL     1     -10.100   6.825  70.464  1.00  0.00    -0.183 N  
HETATM   30  H   UNL     1     -10.661   6.475  69.689  1.00  0.00     0.000 HD 
BRANCH  29  31
HETATM   31  C   UNL     1     -10.735   7.330  71.680  1.00  0.00    -0.215 C  
HETATM   32  C   UNL     1     -10.901   8.854  71.683  1.00  0.00    -0.420 C  
HETATM   33  C   UNL     1     -12.158   9.366  70.982  1.00  0.00    -0.373 C  
HETATM   34  C   UNL     1     -13.432   8.616  71.387  1.00  0.00    -0.268 C  
HETATM   35  C   UNL     1     -13.231   7.110  71.189  1.00  0.00    -0.265 C  
HETATM   36  C   UNL     1     -13.875   8.949  72.817  1.00  0.00    -0.280 C  
HETATM   37  C   UNL     1     -12.038   6.573  71.977  1.00  0.00    -0.358 C  
ENDBRANCH  29  31
ENDBRANCH  27  29
ENDBRANCH  25  27
ENDBRANCH  22  25
ENDBRANCH  19  22
ENDBRANCH  15  16
ENDBRANCH  14  15
ENDBRANCH  12  14
ENDBRANCH  10  12
ENDBRANCH   7  10
ENDBRANCH   2   3
TORSDOF 11
ENDMDL
MODEL      145
REMARK 921   NORMALIZED FREE ENERGY PREDICTED BY IDOCK:   -5.17 KCAL/MOL
REMARK 922        TOTAL FREE ENERGY PREDICTED BY IDOCK:  -10.80 KCAL/MOL
REMARK 923 INTER-LIGAND FREE ENERGY PREDICTED BY IDOCK:   -8.95 KCAL/MOL
REMARK 924 INTRA-LIGAND FREE ENERGY PREDICTED BY IDOCK:   -1.85 KCAL/MOL
REMARK 927      BINDING AFFINITY PREDICTED BY RF-SCORE:    0.00 PKD
ROOT
HETATM    1  C   UNL     1     -12.802  14.986  73.509  1.00  0.00    -0.636 C  
HETATM    2  C   UNL     1     -13.743  14.327  72.512  1.00  0.00    -0.608 C  
ENDROOT
BRANCH   2   3
HETATM    3  C   UNL     1     -13.020  13.859  71.299  1.00  0.00    -0.414 C  
HETATM    4  C   UNL     1     -12.595  12.640  70.935  1.00  0.00    -0.338 C  
HETATM    5  C   UNL     1     -11.900  12.653  69.612  1.00  0.00    -0.311 C  
HETATM    6  C   UNL     1     -12.789  11.357  71.662  1.00  0.00    -0.497 C  
HETATM    7  N   UNL     1     -12.050  14.024  69.205  1.00  0.00    -0.355 N  
HETATM    8  O   UNL     1     -12.823  15.989  70.228  1.00  0.00    -0.262 OA 
HETATM    9  C   UNL     1     -12.641  14.782  70.208  1.00  0.00    -0.315 C  
BRANCH   7  10
HETATM   10  C   UNL     1     -11.820  14.396  67.893  1.00  0.00    -0.349 C  
HETATM   11  O   UNL     1     -11.337  15.485  67.592  1.00  0.00    -0.324 OA 
BRANCH  10  12
HETATM   12  N   UNL     1     -12.133  13.443  66.957  1.00  0.00    -0.369 N  
HETATM   13  H   UNL     1     -12.871  12.773  67.174  1.00  0.00     0.000 HD 
BRANCH  12  14
HETATM   14  C   UNL     1     -11.464  13.342  65.676  1.00  0.00    -0.318 C  
BRANCH  14  15
HETATM   15  C   UNL     1     -10.072  12.692  65.770  1.00  0.00    -0.284 C  
BRANCH  15  16
HETATM   16  C   UNL     1      -9.948  11.624  66.844  1.00  0.00    -0.225 A  
HETATM   17  C   UNL     1     -10.775  10.492  66.853  1.00  0.00    -0.281 A  
HETATM   18  C   UNL     1     -10.689   9.546  67.877  1.00  0.00    -0.285 A  
HETATM   19  C   UNL     1      -9.725   9.678  68.876  1.00  0.00    -0.162 A  
HETATM   20  C   UNL     1      -8.859  10.775  68.862  1.00  0.00    -0.154 A  
HETATM   21  C   UNL     1      -8.967  11.736  67.846  1.00  0.00    -0.180 A  
BRANCH  19  22
HETATM   22  S   UNL     1      -9.725   8.539  70.248  1.00  0.00    -0.174 S  
HETATM   23  O   UNL     1      -9.436   9.306  71.442  1.00  0.00    -0.245 OA 
HETATM   24  O   UNL     1     -10.918   7.724  70.177  1.00  0.00    -0.256 OA 
BRANCH  22  25
HETATM   25  N   UNL     1      -8.377   7.577  70.014  1.00  0.00    -0.134 N  
HETATM   26  H   UNL     1      -7.480   8.034  69.849  1.00  0.00     0.000 HD 
BRANCH  25  27
HETATM   27  C   UNL     1      -8.413   6.196  70.034  1.00  0.00    -0.129 C  
HETATM   28  O   UNL     1      -7.863   5.535  70.900  1.00  0.00    -0.098 OA 
BRANCH  27  29
HETATM   29  N   UNL     1      -9.119   5.621  69.003  1.00  0.00    -0.111 N  
HETATM   30  H   UNL     1     -10.008   5.153  69.177  1.00  0.00     0.000 HD 
BRANCH  29  31
HETATM   31  C   UNL     1      -8.564   5.695  67.654  1.00  0.00    -0.108 C  
HETATM   32  C   UNL     1      -7.962   4.367  67.177  1.00  0.00    -0.101 C  
HETATM   33  C   UNL     1      -8.963   3.391  66.561  1.00  0.00    -0.158 C  
HETATM   34  C   UNL     1      -9.893   4.041  65.530  1.00  0.00    -0.186 C  
HETATM   35  C   UNL     1     -10.581   5.261  66.150  1.00  0.00    -0.251 C  
HETATM   36  C   UNL     1      -9.163   4.397  64.229  1.00  0.00    -0.145 C  
HETATM   37  C   UNL     1      -9.581   6.291  66.670  1.00  0.00    -0.190 C  
ENDBRANCH  29  31
ENDBRANCH  27  29
ENDBRANCH  25  27
ENDBRANCH  22  25
ENDBRANCH  19  22
ENDBRANCH  15  16
ENDBRANCH  14  15
ENDBRANCH  12  14
ENDBRANCH  10  12
ENDBRANCH   7  10
ENDBRANCH   2   3
TORSDOF 11
ENDMDL
MODEL      146
REMARK 921   NORMALIZED FREE ENERGY PREDICTED BY IDOCK:   -5.17 KCAL/MOL
REMARK 922        TOTAL FREE ENERGY PREDICTED BY IDOCK:  -10.80 KCAL/MOL
REMARK 923 INTER-LIGAND FREE ENERGY PREDICTED BY IDOCK:   -8.34 KCAL/MOL
REMARK 924 INTRA-LIGAND FREE ENERGY PREDICTED BY IDOCK:   -2.46 KCAL/MOL
REMARK 927      BINDING AFFINITY PREDICTED BY RF-SCORE:    0.00 PKD
ROOT
HETATM    1  C   UNL     1     -10.094  18.149  68.607  1.00  0.00    -0.406 C  
HETATM    2  C   UNL     1      -9.515  16.743  68.536  1.00  0.00    -0.245 C  
ENDROOT
BRANCH   2   3
HETATM    3  C   UNL     1     -10.483  15.779  67.948  1.00  0.00    -0.270 C  
HETATM    4  C   UNL     1     -11.501  15.099  68.496  1.00  0.00    -0.335 C  
HETATM    5  C   UNL     1     -12.202  14.229  67.503  1.00  0.00    -0.202 C  
HETATM    6  C   UNL     1     -11.989  15.171  69.900  1.00  0.00    -0.372 C  
HETATM    7  N   UNL     1     -11.519  14.555  66.280  1.00  0.00    -0.353 N  
HETATM    8  O   UNL     1      -9.611  15.802  65.721  1.00  0.00    -0.330 OA 
HETATM    9  C   UNL     1     -10.450  15.411  66.517  1.00  0.00    -0.294 C  
BRANCH   7  10
HETATM   10  C   UNL     1     -12.061  14.202  65.058  1.00  0.00    -0.421 C  
HETATM   11  O   UNL     1     -13.272  14.213  64.846  1.00  0.00    -0.579 OA 
BRANCH  10  12
HETATM   12  N   UNL     1     -11.145  13.881  64.089  1.00  0.00    -0.589 N  
HETATM   13  H   UNL     1     -10.770  14.631  63.507  1.00  0.00     0.000 HD 
BRANCH  12  14
HETATM   14  C   UNL     1     -10.685  12.528  63.853  1.00  0.00    -0.437 C  
BRANCH  14  15
HETATM   15  C   UNL     1      -9.440  12.160  64.680  1.00  0.00     0.159 C  
BRANCH  15  16
HETATM   16  C   UNL     1      -9.742  11.652  66.080  1.00  0.00    -0.253 A  
HETATM   17  C   UNL     1      -8.888  11.922  67.160  1.00  0.00    -0.180 A  
HETATM   18  C   UNL     1      -9.147  11.402  68.429  1.00  0.00    -0.179 A  
HETATM   19  C   UNL     1     -10.303  10.657  68.661  1.00  0.00    -0.186 A  
HETATM   20  C   UNL     1     -11.193  10.414  67.611  1.00  0.00    -0.287 A  
HETATM   21  C   UNL     1     -10.914  10.916  66.330  1.00  0.00    -0.156 A  
BRANCH  19  22
HETATM   22  S   UNL     1     -10.543   9.885  70.251  1.00  0.00    -0.305 S  
HETATM   23  O   UNL     1      -9.229   9.574  70.778  1.00  0.00    -0.236 OA 
HETATM   24  O   UNL     1     -11.465  10.687  71.024  1.00  0.00    -0.252 OA 
BRANCH  22  25
HETATM   25  N   UNL     1     -11.237   8.401  69.915  1.00  0.00    -0.444 N  
HETATM   26  H   UNL     1     -12.249   8.310  70.006  1.00  0.00     0.000 HD 
BRANCH  25  27
HETATM   27  C   UNL     1     -10.513   7.293  69.520  1.00  0.00    -0.230 C  
HETATM   28  O   UNL     1     -10.385   6.973  68.349  1.00  0.00    -0.178 OA 
BRANCH  27  29
HETATM   29  N   UNL     1      -9.944   6.577  70.547  1.00  0.00    -0.183 N  
HETATM   30  H   UNL     1     -10.487   6.328  71.373  1.00  0.00     0.000 HD 
BRANCH  29  31
HETATM   31  C   UNL     1      -8.542   6.183  70.425  1.00  0.00    -0.134 C  
HETATM   32  C   UNL     1      -7.697   6.582  71.641  1.00  0.00    -0.099 C  
HETATM   33  C   UNL     1      -7.731   5.590  72.802  1.00  0.00    -0.098 C  
HETATM   34  C   UNL     1      -7.519   4.135  72.368  1.00  0.00    -0.068 C  
HETATM   35  C   UNL     1      -8.522   3.772  71.267  1.00  0.00    -0.096 C  
HETATM   36  C   UNL     1      -6.074   3.859  71.936  1.00  0.00    -0.013 C  
HETATM   37  C   UNL     1      -8.416   4.697  70.057  1.00  0.00    -0.089 C  
ENDBRANCH  29  31
ENDBRANCH  27  29
ENDBRANCH  25  27
ENDBRANCH  22  25
ENDBRANCH  19  22
ENDBRANCH  15  16
ENDBRANCH  14  15
ENDBRANCH  12  14
ENDBRANCH  10  12
ENDBRANCH   7  10
ENDBRANCH   2   3
TORSDOF 11
ENDMDL
MODEL      147
REMARK 921   NORMALIZED FREE ENERGY PREDICTED BY IDOCK:   -5.17 KCAL/MOL
REMARK 922        TOTAL FREE ENERGY PREDICTED BY IDOCK:  -10.80 KCAL/MOL
REMARK 923 INTER-LIGAND FREE ENERGY PREDICTED BY IDOCK:  -10.61 KCAL/MOL
REMARK 924 INTRA-LIGAND FREE ENERGY PREDICTED BY IDOCK:   -0.19 KCAL/MOL
REMARK 927      BINDING AFFINITY PREDICTED BY RF-SCORE:    0.00 PKD
ROOT
HETATM    1  C   UNL     1      -9.406   2.381  68.063  1.00  0.00    -0.253 C  
HETATM    2  C   UNL     1      -8.735   3.469  68.889  1.00  0.00    -0.138 C  
ENDROOT
BRANCH   2   3
HETATM    3  C   UNL     1      -9.643   4.624  69.119  1.00  0.00    -0.245 C  
HETATM    4  C   UNL     1     -10.079   5.588  68.295  1.00  0.00    -0.226 C  
HETATM    5  C   UNL     1     -10.988   6.554  68.983  1.00  0.00    -0.321 C  
HETATM    6  C   UNL     1      -9.794   5.738  66.842  1.00  0.00    -0.179 C  
HETATM    7  N   UNL     1     -11.102   5.981  70.297  1.00  0.00    -0.347 N  
HETATM    8  O   UNL     1     -10.043   4.228  71.444  1.00  0.00    -0.179 OA 
HETATM    9  C   UNL     1     -10.263   4.881  70.436  1.00  0.00    -0.222 C  
BRANCH   7  10
HETATM   10  C   UNL     1     -12.101   6.393  71.160  1.00  0.00    -0.147 C  
HETATM   11  O   UNL     1     -12.160   6.015  72.328  1.00  0.00    -0.301 OA 
BRANCH  10  12
HETATM   12  N   UNL     1     -12.994   7.286  70.626  1.00  0.00    -0.537 N  
HETATM   13  H   UNL     1     -13.040   7.381  69.611  1.00  0.00     0.000 HD 
BRANCH  12  14
HETATM   14  C   UNL     1     -13.876   8.103  71.436  1.00  0.00    -0.256 C  
BRANCH  14  15
HETATM   15  C   UNL     1     -13.122   9.097  72.336  1.00  0.00    -0.493 C  
BRANCH  15  16
HETATM   16  C   UNL     1     -12.799  10.426  71.673  1.00  0.00    -0.579 A  
HETATM   17  C   UNL     1     -11.991  10.499  70.529  1.00  0.00    -0.436 A  
HETATM   18  C   UNL     1     -11.655  11.730  69.963  1.00  0.00    -0.318 A  
HETATM   19  C   UNL     1     -12.176  12.912  70.490  1.00  0.00    -0.314 A  
HETATM   20  C   UNL     1     -13.020  12.860  71.603  1.00  0.00    -0.410 A  
HETATM   21  C   UNL     1     -13.333  11.622  72.184  1.00  0.00    -0.310 A  
BRANCH  19  22
HETATM   22  S   UNL     1     -11.622  14.477  69.842  1.00  0.00    -0.293 S  
HETATM   23  O   UNL     1     -12.363  14.721  68.620  1.00  0.00    -0.131 OA 
HETATM   24  O   UNL     1     -11.636  15.455  70.908  1.00  0.00    -0.294 OA 
BRANCH  22  25
HETATM   25  N   UNL     1     -10.047  14.212  69.347  1.00  0.00    -0.419 N  
HETATM   26  H   UNL     1      -9.294  14.660  69.870  1.00  0.00     0.000 HD 
BRANCH  25  27
HETATM   27  C   UNL     1      -9.711  13.419  68.268  1.00  0.00    -0.226 C  
HETATM   28  O   UNL     1      -8.907  12.502  68.348  1.00  0.00    -0.181 OA 
BRANCH  27  29
HETATM   29  N   UNL     1     -10.352  13.736  67.093  1.00  0.00    -0.260 N  
HETATM   30  H   UNL     1     -10.252  14.661  66.678  1.00  0.00     0.000 HD 
BRANCH  29  31
HETATM   31  C   UNL     1     -11.179  12.714  66.455  1.00  0.00    -0.305 C  
HETATM   32  C   UNL     1     -12.502  13.266  65.909  1.00  0.00    -0.433 C  
HETATM   33  C   UNL     1     -12.418  13.873  64.510  1.00  0.00    -0.336 C  
HETATM   34  C   UNL     1     -11.669  12.990  63.506  1.00  0.00    -0.532 C  
HETATM   35  C   UNL     1     -10.288  12.628  64.063  1.00  0.00    -0.414 C  
HETATM   36  C   UNL     1     -12.471  11.743  63.114  1.00  0.00    -0.274 C  
HETATM   37  C   UNL     1     -10.374  11.922  65.414  1.00  0.00    -0.306 C  
ENDBRANCH  29  31
ENDBRANCH  27  29
ENDBRANCH  25  27
ENDBRANCH  22  25
ENDBRANCH  19  22
ENDBRANCH  15  16
ENDBRANCH  14  15
ENDBRANCH  12  14
ENDBRANCH  10  12
ENDBRANCH   7  10
ENDBRANCH   2   3
TORSDOF 11
ENDMDL
MODEL      148
REMARK 921   NORMALIZED FREE ENERGY PREDICTED BY IDOCK:   -5.16 KCAL/MOL
REMARK 922        TOTAL FREE ENERGY PREDICTED BY IDOCK:  -10.79 KCAL/MOL
REMARK 923 INTER-LIGAND FREE ENERGY PREDICTED BY IDOCK:   -9.01 KCAL/MOL
REMARK 924 INTRA-LIGAND FREE ENERGY PREDICTED BY IDOCK:   -1.78 KCAL/MOL
REMARK 927      BINDING AFFINITY PREDICTED BY RF-SCORE:    0.00 PKD
ROOT
HETATM    1  C   UNL     1     -10.744  17.459  68.075  1.00  0.00    -0.359 C  
HETATM    2  C   UNL     1     -10.550  16.814  69.439  1.00  0.00    -0.318 C  
ENDROOT
BRANCH   2   3
HETATM    3  C   UNL     1     -11.076  15.424  69.470  1.00  0.00    -0.284 C  
HETATM    4  C   UNL     1     -12.075  14.869  70.172  1.00  0.00    -0.379 C  
HETATM    5  C   UNL     1     -12.239  13.414  69.873  1.00  0.00    -0.271 C  
HETATM    6  C   UNL     1     -13.003  15.544  71.119  1.00  0.00    -0.560 C  
HETATM    7  N   UNL     1     -11.264  13.205  68.838  1.00  0.00    -0.265 N  
HETATM    8  O   UNL     1      -9.540  14.488  67.893  1.00  0.00    -0.209 OA 
HETATM    9  C   UNL     1     -10.508  14.352  68.625  1.00  0.00    -0.247 C  
BRANCH   7  10
HETATM   10  C   UNL     1     -11.299  12.063  68.058  1.00  0.00    -0.296 C  
HETATM   11  O   UNL     1     -12.009  11.099  68.335  1.00  0.00    -0.561 OA 
BRANCH  10  12
HETATM   12  N   UNL     1     -10.515  12.105  66.934  1.00  0.00    -0.222 N  
HETATM   13  H   UNL     1      -9.688  12.704  66.940  1.00  0.00     0.000 HD 
BRANCH  12  14
HETATM   14  C   UNL     1     -10.805  11.341  65.738  1.00  0.00    -0.194 C  
BRANCH  14  15
HETATM   15  C   UNL     1      -9.569  10.625  65.164  1.00  0.00    -0.304 C  
BRANCH  15  16
HETATM   16  C   UNL     1      -9.321   9.240  65.738  1.00  0.00    -0.306 A  
HETATM   17  C   UNL     1     -10.310   8.555  66.459  1.00  0.00    -0.215 A  
HETATM   18  C   UNL     1     -10.051   7.308  67.030  1.00  0.00    -0.316 A  
HETATM   19  C   UNL     1      -8.817   6.687  66.832  1.00  0.00    -0.118 A  
HETATM   20  C   UNL     1      -7.832   7.330  66.078  1.00  0.00    -0.106 A  
HETATM   21  C   UNL     1      -8.088   8.596  65.530  1.00  0.00    -0.114 A  
BRANCH  19  22
HETATM   22  S   UNL     1      -8.459   5.163  67.684  1.00  0.00    -0.104 S  
HETATM   23  O   UNL     1      -8.468   4.106  66.693  1.00  0.00    -0.104 OA 
HETATM   24  O   UNL     1      -7.299   5.361  68.526  1.00  0.00    -0.072 OA 
BRANCH  22  25
HETATM   25  N   UNL     1      -9.800   4.872  68.640  1.00  0.00    -0.162 N  
HETATM   26  H   UNL     1     -10.724   5.014  68.232  1.00  0.00     0.000 HD 
BRANCH  25  27
HETATM   27  C   UNL     1      -9.723   4.449  69.952  1.00  0.00    -0.221 C  
HETATM   28  O   UNL     1      -9.352   3.328  70.263  1.00  0.00    -0.143 OA 
BRANCH  27  29
HETATM   29  N   UNL     1     -10.094   5.387  70.886  1.00  0.00    -0.207 N  
HETATM   30  H   UNL     1     -10.043   5.180  71.883  1.00  0.00     0.000 HD 
BRANCH  29  31
HETATM   31  C   UNL     1     -10.562   6.689  70.416  1.00  0.00    -0.223 C  
HETATM   32  C   UNL     1     -12.082   6.859  70.527  1.00  0.00    -0.315 C  
HETATM   33  C   UNL     1     -12.579   7.330  71.893  1.00  0.00    -0.326 C  
HETATM   34  C   UNL     1     -11.793   8.522  72.450  1.00  0.00    -0.437 C  
HETATM   35  C   UNL     1     -10.296   8.197  72.460  1.00  0.00    -0.401 C  
HETATM   36  C   UNL     1     -12.090   9.822  71.692  1.00  0.00    -0.475 C  
HETATM   37  C   UNL     1      -9.771   7.831  71.073  1.00  0.00    -0.174 C  
ENDBRANCH  29  31
ENDBRANCH  27  29
ENDBRANCH  25  27
ENDBRANCH  22  25
ENDBRANCH  19  22
ENDBRANCH  15  16
ENDBRANCH  14  15
ENDBRANCH  12  14
ENDBRANCH  10  12
ENDBRANCH   7  10
ENDBRANCH   2   3
TORSDOF 11
ENDMDL
MODEL      149
REMARK 921   NORMALIZED FREE ENERGY PREDICTED BY IDOCK:   -5.16 KCAL/MOL
REMARK 922        TOTAL FREE ENERGY PREDICTED BY IDOCK:  -10.79 KCAL/MOL
REMARK 923 INTER-LIGAND FREE ENERGY PREDICTED BY IDOCK:   -9.23 KCAL/MOL
REMARK 924 INTRA-LIGAND FREE ENERGY PREDICTED BY IDOCK:   -1.56 KCAL/MOL
REMARK 927      BINDING AFFINITY PREDICTED BY RF-SCORE:    0.00 PKD
ROOT
HETATM    1  C   UNL     1      -9.050  17.070  66.001  1.00  0.00    -0.172 C  
HETATM    2  C   UNL     1     -10.388  16.369  65.818  1.00  0.00    -0.388 C  
ENDROOT
BRANCH   2   3
HETATM    3  C   UNL     1     -10.709  15.487  66.972  1.00  0.00    -0.321 C  
HETATM    4  C   UNL     1     -10.879  15.757  68.274  1.00  0.00    -0.305 C  
HETATM    5  C   UNL     1     -11.189  14.532  69.072  1.00  0.00    -0.268 C  
HETATM    6  C   UNL     1     -10.838  17.088  68.939  1.00  0.00    -0.228 C  
HETATM    7  N   UNL     1     -11.268  13.520  68.054  1.00  0.00    -0.259 N  
HETATM    8  O   UNL     1     -10.786  13.427  65.759  1.00  0.00    -0.273 OA 
HETATM    9  C   UNL     1     -10.918  14.033  66.811  1.00  0.00    -0.297 C  
BRANCH   7  10
HETATM   10  C   UNL     1     -11.843  12.292  68.327  1.00  0.00    -0.310 C  
HETATM   11  O   UNL     1     -12.026  11.442  67.458  1.00  0.00    -0.626 OA 
BRANCH  10  12
HETATM   12  N   UNL     1     -12.155  12.079  69.646  1.00  0.00    -0.264 N  
HETATM   13  H   UNL     1     -12.821  12.707  70.095  1.00  0.00     0.000 HD 
BRANCH  12  14
HETATM   14  C   UNL     1     -11.581  11.004  70.430  1.00  0.00    -0.293 C  
BRANCH  14  15
HETATM   15  C   UNL     1     -12.642  10.111  71.097  1.00  0.00    -0.486 C  
BRANCH  15  16
HETATM   16  C   UNL     1     -12.100   8.816  71.679  1.00  0.00    -0.401 A  
HETATM   17  C   UNL     1     -10.831   8.752  72.272  1.00  0.00    -0.328 A  
HETATM   18  C   UNL     1     -10.321   7.544  72.752  1.00  0.00    -0.331 A  
HETATM   19  C   UNL     1     -11.098   6.387  72.710  1.00  0.00    -0.248 A  
HETATM   20  C   UNL     1     -12.385   6.436  72.166  1.00  0.00    -0.231 A  
HETATM   21  C   UNL     1     -12.882   7.647  71.660  1.00  0.00    -0.378 A  
BRANCH  19  22
HETATM   22  S   UNL     1     -10.378   4.831  73.198  1.00  0.00    -0.196 S  
HETATM   23  O   UNL     1      -9.483   5.101  74.305  1.00  0.00    -0.121 OA 
HETATM   24  O   UNL     1     -11.434   3.852  73.338  1.00  0.00    -0.223 OA 
BRANCH  22  25
HETATM   25  N   UNL     1      -9.378   4.398  71.929  1.00  0.00    -0.132 N  
HETATM   26  H   UNL     1      -8.371   4.507  72.049  1.00  0.00     0.000 HD 
BRANCH  25  27
HETATM   27  C   UNL     1      -9.843   3.899  70.728  1.00  0.00    -0.141 C  
HETATM   28  O   UNL     1      -9.786   2.713  70.441  1.00  0.00    -0.103 OA 
BRANCH  27  29
HETATM   29  N   UNL     1     -10.380   4.838  69.879  1.00  0.00    -0.172 N  
HETATM   30  H   UNL     1     -11.348   5.140  69.981  1.00  0.00     0.000 HD 
BRANCH  29  31
HETATM   31  C   UNL     1      -9.529   5.392  68.828  1.00  0.00    -0.130 C  
HETATM   32  C   UNL     1     -10.146   5.273  67.429  1.00  0.00    -0.228 C  
HETATM   33  C   UNL     1     -11.106   6.399  67.052  1.00  0.00    -0.405 C  
HETATM   34  C   UNL     1     -10.557   7.797  67.356  1.00  0.00    -0.345 C  
HETATM   35  C   UNL     1     -10.122   7.875  68.822  1.00  0.00    -0.203 C  
HETATM   36  C   UNL     1      -9.424   8.199  66.402  1.00  0.00    -0.285 C  
HETATM   37  C   UNL     1      -9.078   6.818  69.177  1.00  0.00    -0.138 C  
ENDBRANCH  29  31
ENDBRANCH  27  29
ENDBRANCH  25  27
ENDBRANCH  22  25
ENDBRANCH  19  22
ENDBRANCH  15  16
ENDBRANCH  14  15
ENDBRANCH  12  14
ENDBRANCH  10  12
ENDBRANCH   7  10
ENDBRANCH   2   3
TORSDOF 11
ENDMDL
MODEL      150
REMARK 921   NORMALIZED FREE ENERGY PREDICTED BY IDOCK:   -5.16 KCAL/MOL
REMARK 922        TOTAL FREE ENERGY PREDICTED BY IDOCK:  -10.79 KCAL/MOL
REMARK 923 INTER-LIGAND FREE ENERGY PREDICTED BY IDOCK:   -8.37 KCAL/MOL
REMARK 924 INTRA-LIGAND FREE ENERGY PREDICTED BY IDOCK:   -2.42 KCAL/MOL
REMARK 927      BINDING AFFINITY PREDICTED BY RF-SCORE:    0.00 PKD
ROOT
HETATM    1  C   UNL     1      -7.295   7.429  72.511  1.00  0.00    -0.076 C  
HETATM    2  C   UNL     1      -7.949   6.420  71.579  1.00  0.00    -0.105 C  
ENDROOT
BRANCH   2   3
HETATM    3  C   UNL     1      -9.404   6.279  71.854  1.00  0.00    -0.153 C  
HETATM    4  C   UNL     1     -10.084   5.399  72.604  1.00  0.00    -0.211 C  
HETATM    5  C   UNL     1     -11.557   5.650  72.575  1.00  0.00    -0.246 C  
HETATM    6  C   UNL     1      -9.530   4.303  73.444  1.00  0.00    -0.125 C  
HETATM    7  N   UNL     1     -11.647   6.845  71.783  1.00  0.00    -0.272 N  
HETATM    8  O   UNL     1     -10.142   8.104  70.495  1.00  0.00    -0.190 OA 
HETATM    9  C   UNL     1     -10.403   7.205  71.278  1.00  0.00    -0.198 C  
BRANCH   7  10
HETATM   10  C   UNL     1     -12.810   7.594  71.769  1.00  0.00    -0.330 C  
HETATM   11  O   UNL     1     -13.909   7.099  71.528  1.00  0.00    -0.376 OA 
BRANCH  10  12
HETATM   12  N   UNL     1     -12.649   8.919  72.085  1.00  0.00    -0.384 N  
HETATM   13  H   UNL     1     -12.004   9.164  72.836  1.00  0.00     0.000 HD 
BRANCH  12  14
HETATM   14  C   UNL     1     -13.351   9.986  71.401  1.00  0.00    -0.347 C  
BRANCH  14  15
HETATM   15  C   UNL     1     -12.675  11.358  71.568  1.00  0.00    -0.462 C  
BRANCH  15  16
HETATM   16  C   UNL     1     -12.344  12.060  70.262  1.00  0.00    -0.275 A  
HETATM   17  C   UNL     1     -12.141  11.343  69.073  1.00  0.00    -0.316 A  
HETATM   18  C   UNL     1     -11.781  11.995  67.892  1.00  0.00    -0.393 A  
HETATM   19  C   UNL     1     -11.684  13.386  67.859  1.00  0.00    -0.361 A  
HETATM   20  C   UNL     1     -11.927  14.125  69.020  1.00  0.00    -0.376 A  
HETATM   21  C   UNL     1     -12.262  13.463  70.211  1.00  0.00    -0.405 A  
BRANCH  19  22
HETATM   22  S   UNL     1     -11.088  14.186  66.381  1.00  0.00    -0.327 S  
HETATM   23  O   UNL     1     -11.872  13.678  65.273  1.00  0.00    -0.324 OA 
HETATM   24  O   UNL     1     -11.007  15.610  66.622  1.00  0.00    -0.299 OA 
BRANCH  22  25
HETATM   25  N   UNL     1      -9.551  13.571  66.142  1.00  0.00    -0.429 N  
HETATM   26  H   UNL     1      -9.320  13.191  65.224  1.00  0.00     0.000 HD 
BRANCH  25  27
HETATM   27  C   UNL     1      -8.579  13.549  67.122  1.00  0.00    -0.195 C  
HETATM   28  O   UNL     1      -8.481  14.419  67.973  1.00  0.00    -0.148 OA 
BRANCH  27  29
HETATM   29  N   UNL     1      -7.728  12.470  67.071  1.00  0.00    -0.362 N  
HETATM   30  H   UNL     1      -6.720  12.603  66.997  1.00  0.00     0.000 HD 
BRANCH  29  31
HETATM   31  C   UNL     1      -8.303  11.128  67.124  1.00  0.00    -0.136 C  
HETATM   32  C   UNL     1      -7.593  10.131  66.199  1.00  0.00    -0.114 C  
HETATM   33  C   UNL     1      -6.351   9.471  66.796  1.00  0.00    -0.066 C  
HETATM   34  C   UNL     1      -6.568   8.933  68.215  1.00  0.00    -0.060 C  
HETATM   35  C   UNL     1      -7.119  10.046  69.112  1.00  0.00    -0.069 C  
HETATM   36  C   UNL     1      -7.462   7.688  68.235  1.00  0.00    -0.104 C  
HETATM   37  C   UNL     1      -8.422  10.635  68.574  1.00  0.00    -0.136 C  
ENDBRANCH  29  31
ENDBRANCH  27  29
ENDBRANCH  25  27
ENDBRANCH  22  25
ENDBRANCH  19  22
ENDBRANCH  15  16
ENDBRANCH  14  15
ENDBRANCH  12  14
ENDBRANCH  10  12
ENDBRANCH   7  10
ENDBRANCH   2   3
TORSDOF 11
ENDMDL
MODEL      151
REMARK 921   NORMALIZED FREE ENERGY PREDICTED BY IDOCK:   -5.15 KCAL/MOL
REMARK 922        TOTAL FREE ENERGY PREDICTED BY IDOCK:  -10.77 KCAL/MOL
REMARK 923 INTER-LIGAND FREE ENERGY PREDICTED BY IDOCK:   -9.29 KCAL/MOL
REMARK 924 INTRA-LIGAND FREE ENERGY PREDICTED BY IDOCK:   -1.48 KCAL/MOL
REMARK 927      BINDING AFFINITY PREDICTED BY RF-SCORE:    0.00 PKD
ROOT
HETATM    1  C   UNL     1     -12.806  14.828  73.442  1.00  0.00    -0.597 C  
HETATM    2  C   UNL     1     -13.626  13.953  72.506  1.00  0.00    -0.680 C  
ENDROOT
BRANCH   2   3
HETATM    3  C   UNL     1     -12.875  13.618  71.267  1.00  0.00    -0.424 C  
HETATM    4  C   UNL     1     -12.489  12.441  70.755  1.00  0.00    -0.356 C  
HETATM    5  C   UNL     1     -11.741  12.599  69.470  1.00  0.00    -0.308 C  
HETATM    6  C   UNL     1     -12.766  11.081  71.293  1.00  0.00    -0.537 C  
HETATM    7  N   UNL     1     -11.816  14.017  69.249  1.00  0.00    -0.322 N  
HETATM    8  O   UNL     1     -12.545  15.861  70.504  1.00  0.00    -0.377 OA 
HETATM    9  C   UNL     1     -12.414  14.660  70.325  1.00  0.00    -0.346 C  
BRANCH   7  10
HETATM   10  C   UNL     1     -11.517  14.551  68.008  1.00  0.00    -0.321 C  
HETATM   11  O   UNL     1     -10.565  15.307  67.828  1.00  0.00    -0.255 OA 
BRANCH  10  12
HETATM   12  N   UNL     1     -12.338  14.141  66.989  1.00  0.00    -0.571 N  
HETATM   13  H   UNL     1     -13.181  14.684  66.795  1.00  0.00     0.000 HD 
BRANCH  12  14
HETATM   14  C   UNL     1     -12.066  12.974  66.174  1.00  0.00    -0.409 C  
BRANCH  14  15
HETATM   15  C   UNL     1     -10.613  12.916  65.669  1.00  0.00    -0.295 C  
BRANCH  15  16
HETATM   16  C   UNL     1      -9.685  12.064  66.519  1.00  0.00    -0.230 A  
HETATM   17  C   UNL     1      -9.940  10.704  66.748  1.00  0.00    -0.254 A  
HETATM   18  C   UNL     1      -9.111   9.947  67.577  1.00  0.00    -0.145 A  
HETATM   19  C   UNL     1      -7.969  10.517  68.141  1.00  0.00    -0.111 A  
HETATM   20  C   UNL     1      -7.670  11.859  67.890  1.00  0.00    -0.131 A  
HETATM   21  C   UNL     1      -8.522  12.624  67.077  1.00  0.00    -0.150 A  
BRANCH  19  22
HETATM   22  S   UNL     1      -7.004   9.575  69.306  1.00  0.00    -0.052 S  
HETATM   23  O   UNL     1      -5.687  10.175  69.356  1.00  0.00    -0.038 OA 
HETATM   24  O   UNL     1      -7.773   9.406  70.520  1.00  0.00    -0.134 OA 
BRANCH  22  25
HETATM   25  N   UNL     1      -6.774   8.086  68.578  1.00  0.00    -0.064 N  
HETATM   26  H   UNL     1      -5.904   7.926  68.071  1.00  0.00     0.000 HD 
BRANCH  25  27
HETATM   27  C   UNL     1      -7.700   7.063  68.628  1.00  0.00    -0.120 C  
HETATM   28  O   UNL     1      -8.050   6.443  67.636  1.00  0.00    -0.112 OA 
BRANCH  27  29
HETATM   29  N   UNL     1      -8.198   6.791  69.881  1.00  0.00    -0.125 N  
HETATM   30  H   UNL     1      -7.638   6.971  70.714  1.00  0.00     0.000 HD 
BRANCH  29  31
HETATM   31  C   UNL     1      -9.546   6.240  69.989  1.00  0.00    -0.158 C  
HETATM   32  C   UNL     1      -9.890   5.764  71.406  1.00  0.00    -0.213 C  
HETATM   33  C   UNL     1     -10.411   6.852  72.342  1.00  0.00    -0.234 C  
HETATM   34  C   UNL     1     -11.503   7.726  71.714  1.00  0.00    -0.307 C  
HETATM   35  C   UNL     1     -11.007   8.297  70.382  1.00  0.00    -0.244 C  
HETATM   36  C   UNL     1     -12.831   6.974  71.554  1.00  0.00    -0.420 C  
HETATM   37  C   UNL     1     -10.587   7.205  69.401  1.00  0.00    -0.246 C  
ENDBRANCH  29  31
ENDBRANCH  27  29
ENDBRANCH  25  27
ENDBRANCH  22  25
ENDBRANCH  19  22
ENDBRANCH  15  16
ENDBRANCH  14  15
ENDBRANCH  12  14
ENDBRANCH  10  12
ENDBRANCH   7  10
ENDBRANCH   2   3
TORSDOF 11
ENDMDL
MODEL      152
REMARK 921   NORMALIZED FREE ENERGY PREDICTED BY IDOCK:   -5.15 KCAL/MOL
REMARK 922        TOTAL FREE ENERGY PREDICTED BY IDOCK:  -10.77 KCAL/MOL
REMARK 923 INTER-LIGAND FREE ENERGY PREDICTED BY IDOCK:   -7.77 KCAL/MOL
REMARK 924 INTRA-LIGAND FREE ENERGY PREDICTED BY IDOCK:   -3.00 KCAL/MOL
REMARK 927      BINDING AFFINITY PREDICTED BY RF-SCORE:    0.00 PKD
ROOT
HETATM    1  C   UNL     1     -12.633  13.132  65.490  1.00  0.00    -0.468 C  
HETATM    2  C   UNL     1     -12.310  14.446  66.186  1.00  0.00    -0.335 C  
ENDROOT
BRANCH   2   3
HETATM    3  C   UNL     1     -11.170  14.304  67.130  1.00  0.00    -0.333 C  
HETATM    4  C   UNL     1     -11.135  14.168  68.464  1.00  0.00    -0.276 C  
HETATM    5  C   UNL     1      -9.738  14.063  68.986  1.00  0.00     0.056 C  
HETATM    6  C   UNL     1     -12.289  14.069  69.397  1.00  0.00    -0.247 C  
HETATM    7  N   UNL     1      -8.961  14.064  67.777  1.00  0.00    -0.177 N  
HETATM    8  O   UNL     1      -9.419  14.434  65.505  1.00  0.00    -0.151 OA 
HETATM    9  C   UNL     1      -9.767  14.279  66.665  1.00  0.00    -0.287 C  
BRANCH   7  10
HETATM   10  C   UNL     1      -7.636  13.670  67.793  1.00  0.00    -0.164 C  
HETATM   11  O   UNL     1      -6.877  13.947  68.719  1.00  0.00    -0.093 OA 
BRANCH  10  12
HETATM   12  N   UNL     1      -7.244  12.912  66.718  1.00  0.00    -0.199 N  
HETATM   13  H   UNL     1      -7.020  13.388  65.844  1.00  0.00     0.000 HD 
BRANCH  12  14
HETATM   14  C   UNL     1      -7.134  11.468  66.766  1.00  0.00    -0.112 C  
BRANCH  14  15
HETATM   15  C   UNL     1      -8.449  10.750  66.416  1.00  0.00    -0.158 C  
BRANCH  15  16
HETATM   16  C   UNL     1      -9.369  10.508  67.601  1.00  0.00    -0.160 A  
HETATM   17  C   UNL     1      -8.867  10.138  68.858  1.00  0.00    -0.154 A  
HETATM   18  C   UNL     1      -9.726   9.864  69.923  1.00  0.00    -0.274 A  
HETATM   19  C   UNL     1     -11.104  10.020  69.773  1.00  0.00    -0.274 A  
HETATM   20  C   UNL     1     -11.625  10.433  68.543  1.00  0.00    -0.152 A  
HETATM   21  C   UNL     1     -10.758  10.682  67.467  1.00  0.00    -0.321 A  
BRANCH  19  22
HETATM   22  S   UNL     1     -12.190   9.530  71.099  1.00  0.00    -0.342 S  
HETATM   23  O   UNL     1     -11.381   9.418  72.296  1.00  0.00    -0.070 OA 
HETATM   24  O   UNL     1     -13.356  10.386  71.088  1.00  0.00    -0.344 OA 
BRANCH  22  25
HETATM   25  N   UNL     1     -12.644   7.962  70.735  1.00  0.00    -0.507 N  
HETATM   26  H   UNL     1     -12.586   7.656  69.763  1.00  0.00     0.000 HD 
BRANCH  25  27
HETATM   27  C   UNL     1     -13.091   7.060  71.679  1.00  0.00    -0.330 C  
HETATM   28  O   UNL     1     -14.194   6.538  71.621  1.00  0.00    -0.038 OA 
BRANCH  27  29
HETATM   29  N   UNL     1     -12.200   6.788  72.690  1.00  0.00    -0.477 N  
HETATM   30  H   UNL     1     -12.139   7.392  73.508  1.00  0.00     0.000 HD 
BRANCH  29  31
HETATM   31  C   UNL     1     -11.341   5.612  72.562  1.00  0.00    -0.294 C  
HETATM   32  C   UNL     1     -10.606   5.547  71.218  1.00  0.00    -0.304 C  
HETATM   33  C   UNL     1      -9.299   6.335  71.160  1.00  0.00    -0.169 C  
HETATM   34  C   UNL     1      -8.383   6.088  72.365  1.00  0.00    -0.116 C  
HETATM   35  C   UNL     1      -9.156   6.343  73.663  1.00  0.00    -0.140 C  
HETATM   36  C   UNL     1      -7.753   4.690  72.341  1.00  0.00    -0.086 C  
HETATM   37  C   UNL     1     -10.408   5.476  73.775  1.00  0.00    -0.271 C  
ENDBRANCH  29  31
ENDBRANCH  27  29
ENDBRANCH  25  27
ENDBRANCH  22  25
ENDBRANCH  19  22
ENDBRANCH  15  16
ENDBRANCH  14  15
ENDBRANCH  12  14
ENDBRANCH  10  12
ENDBRANCH   7  10
ENDBRANCH   2   3
TORSDOF 11
ENDMDL
MODEL      153
REMARK 921   NORMALIZED FREE ENERGY PREDICTED BY IDOCK:   -5.15 KCAL/MOL
REMARK 922        TOTAL FREE ENERGY PREDICTED BY IDOCK:  -10.76 KCAL/MOL
REMARK 923 INTER-LIGAND FREE ENERGY PREDICTED BY IDOCK:   -8.62 KCAL/MOL
REMARK 924 INTRA-LIGAND FREE ENERGY PREDICTED BY IDOCK:   -2.14 KCAL/MOL
REMARK 927      BINDING AFFINITY PREDICTED BY RF-SCORE:    0.00 PKD
ROOT
HETATM    1  C   UNL     1      -7.401   6.736  64.768  1.00  0.00    -0.088 C  
HETATM    2  C   UNL     1      -8.460   7.432  65.610  1.00  0.00    -0.137 C  
ENDROOT
BRANCH   2   3
HETATM    3  C   UNL     1      -8.442   6.957  67.019  1.00  0.00    -0.121 C  
HETATM    4  C   UNL     1      -7.754   7.381  68.090  1.00  0.00    -0.120 C  
HETATM    5  C   UNL     1      -8.062   6.582  69.315  1.00  0.00    -0.112 C  
HETATM    6  C   UNL     1      -6.815   8.533  68.167  1.00  0.00    -0.069 C  
HETATM    7  N   UNL     1      -9.086   5.690  68.846  1.00  0.00    -0.114 N  
HETATM    8  O   UNL     1     -10.004   5.165  66.750  1.00  0.00    -0.163 OA 
HETATM    9  C   UNL     1      -9.285   5.832  67.477  1.00  0.00    -0.108 C  
BRANCH   7  10
HETATM   10  C   UNL     1      -9.871   4.987  69.742  1.00  0.00    -0.216 C  
HETATM   11  O   UNL     1      -9.796   3.767  69.867  1.00  0.00    -0.179 OA 
BRANCH  10  12
HETATM   12  N   UNL     1     -10.707   5.759  70.508  1.00  0.00    -0.286 N  
HETATM   13  H   UNL     1     -10.786   5.549  71.503  1.00  0.00     0.000 HD 
BRANCH  12  14
HETATM   14  C   UNL     1     -11.483   6.858  69.970  1.00  0.00    -0.277 C  
BRANCH  14  15
HETATM   15  C   UNL     1     -11.207   8.196  70.679  1.00  0.00    -0.268 C  
BRANCH  15  16
HETATM   16  C   UNL     1     -11.237   9.410  69.766  1.00  0.00    -0.139 A  
HETATM   17  C   UNL     1     -11.704  10.654  70.214  1.00  0.00    -0.433 A  
HETATM   18  C   UNL     1     -11.781  11.748  69.350  1.00  0.00    -0.405 A  
HETATM   19  C   UNL     1     -11.327  11.638  68.035  1.00  0.00    -0.296 A  
HETATM   20  C   UNL     1     -10.815  10.420  67.579  1.00  0.00    -0.358 A  
HETATM   21  C   UNL     1     -10.765   9.316  68.445  1.00  0.00    -0.192 A  
BRANCH  19  22
HETATM   22  S   UNL     1     -11.564  13.001  66.911  1.00  0.00    -0.385 S  
HETATM   23  O   UNL     1     -12.435  12.536  65.851  1.00  0.00    -0.596 OA 
HETATM   24  O   UNL     1     -11.912  14.180  67.674  1.00  0.00    -0.377 OA 
BRANCH  22  25
HETATM   25  N   UNL     1     -10.076  13.227  66.181  1.00  0.00    -0.288 N  
HETATM   26  H   UNL     1      -9.869  12.699  65.333  1.00  0.00     0.000 HD 
BRANCH  25  27
HETATM   27  C   UNL     1      -9.113  14.091  66.665  1.00  0.00    -0.200 C  
HETATM   28  O   UNL     1      -8.151  13.709  67.313  1.00  0.00    -0.176 OA 
BRANCH  27  29
HETATM   29  N   UNL     1      -9.317  15.416  66.359  1.00  0.00    -0.275 N  
HETATM   30  H   UNL     1      -9.854  15.684  65.535  1.00  0.00     0.000 HD 
BRANCH  29  31
HETATM   31  C   UNL     1      -8.745  16.429  67.242  1.00  0.00    -0.181 C  
HETATM   32  C   UNL     1      -8.526  17.779  66.547  1.00  0.00    -0.288 C  
HETATM   33  C   UNL     1      -9.748  18.694  66.519  1.00  0.00    -0.369 C  
HETATM   34  C   UNL     1     -10.449  18.818  67.877  1.00  0.00    -0.448 C  
HETATM   35  C   UNL     1     -10.783  17.423  68.416  1.00  0.00    -0.301 C  
HETATM   36  C   UNL     1      -9.632  19.638  68.883  1.00  0.00    -0.421 C  
HETATM   37  C   UNL     1      -9.545  16.539  68.549  1.00  0.00    -0.233 C  
ENDBRANCH  29  31
ENDBRANCH  27  29
ENDBRANCH  25  27
ENDBRANCH  22  25
ENDBRANCH  19  22
ENDBRANCH  15  16
ENDBRANCH  14  15
ENDBRANCH  12  14
ENDBRANCH  10  12
ENDBRANCH   7  10
ENDBRANCH   2   3
TORSDOF 11
ENDMDL
MODEL      154
REMARK 921   NORMALIZED FREE ENERGY PREDICTED BY IDOCK:   -5.13 KCAL/MOL
REMARK 922        TOTAL FREE ENERGY PREDICTED BY IDOCK:  -10.74 KCAL/MOL
REMARK 923 INTER-LIGAND FREE ENERGY PREDICTED BY IDOCK:   -8.04 KCAL/MOL
REMARK 924 INTRA-LIGAND FREE ENERGY PREDICTED BY IDOCK:   -2.70 KCAL/MOL
REMARK 927      BINDING AFFINITY PREDICTED BY RF-SCORE:    0.00 PKD
ROOT
HETATM    1  C   UNL     1     -10.598  17.612  67.730  1.00  0.00    -0.380 C  
HETATM    2  C   UNL     1      -9.615  16.639  67.097  1.00  0.00    -0.244 C  
ENDROOT
BRANCH   2   3
HETATM    3  C   UNL     1     -10.289  15.395  66.640  1.00  0.00    -0.281 C  
HETATM    4  C   UNL     1     -10.963  15.114  65.515  1.00  0.00    -0.370 C  
HETATM    5  C   UNL     1     -11.476  13.710  65.497  1.00  0.00    -0.305 C  
HETATM    6  C   UNL     1     -11.185  16.003  64.343  1.00  0.00    -0.218 C  
HETATM    7  N   UNL     1     -10.939  13.175  66.719  1.00  0.00    -0.276 N  
HETATM    8  O   UNL     1      -9.817  14.071  68.575  1.00  0.00    -0.227 OA 
HETATM    9  C   UNL     1     -10.295  14.162  67.455  1.00  0.00    -0.248 C  
BRANCH   7  10
HETATM   10  C   UNL     1     -10.916  11.810  66.938  1.00  0.00    -0.285 C  
HETATM   11  O   UNL     1     -11.809  11.226  67.547  1.00  0.00    -0.613 OA 
BRANCH  10  12
HETATM   12  N   UNL     1      -9.844  11.154  66.389  1.00  0.00    -0.205 N  
HETATM   13  H   UNL     1      -9.929  10.797  65.437  1.00  0.00     0.000 HD 
BRANCH  12  14
HETATM   14  C   UNL     1      -8.597  10.944  67.097  1.00  0.00    -0.130 C  
BRANCH  14  15
HETATM   15  C   UNL     1      -8.450   9.516  67.650  1.00  0.00    -0.122 C  
BRANCH  15  16
HETATM   16  C   UNL     1      -9.456   9.150  68.727  1.00  0.00    -0.147 A  
HETATM   17  C   UNL     1      -9.465   9.795  69.973  1.00  0.00    -0.278 A  
HETATM   18  C   UNL     1     -10.358   9.411  70.975  1.00  0.00    -0.382 A  
HETATM   19  C   UNL     1     -11.308   8.419  70.729  1.00  0.00    -0.265 A  
HETATM   20  C   UNL     1     -11.348   7.794  69.479  1.00  0.00     0.211 A  
HETATM   21  C   UNL     1     -10.430   8.165  68.484  1.00  0.00    -0.199 A  
BRANCH  19  22
HETATM   22  S   UNL     1     -12.342   7.847  72.063  1.00  0.00    -0.296 S  
HETATM   23  O   UNL     1     -12.755   9.015  72.816  1.00  0.00    -0.309 OA 
HETATM   24  O   UNL     1     -13.333   6.939  71.528  1.00  0.00    -0.329 OA 
BRANCH  22  25
HETATM   25  N   UNL     1     -11.314   7.014  73.086  1.00  0.00    -0.546 N  
HETATM   26  H   UNL     1     -10.768   7.549  73.762  1.00  0.00     0.000 HD 
BRANCH  25  27
HETATM   27  C   UNL     1     -11.165   5.642  73.064  1.00  0.00    -0.270 C  
HETATM   28  O   UNL     1     -11.183   4.961  74.078  1.00  0.00    -0.259 OA 
BRANCH  27  29
HETATM   29  N   UNL     1     -10.997   5.096  71.813  1.00  0.00    -0.082 N  
HETATM   30  H   UNL     1     -11.730   5.173  71.108  1.00  0.00     0.000 HD 
BRANCH  29  31
HETATM   31  C   UNL     1      -9.744   4.404  71.518  1.00  0.00    -0.174 C  
HETATM   32  C   UNL     1      -9.684   3.852  70.089  1.00  0.00    -0.242 C  
HETATM   33  C   UNL     1      -9.218   4.851  69.032  1.00  0.00    -0.165 C  
HETATM   34  C   UNL     1      -7.959   5.625  69.436  1.00  0.00    -0.099 C  
HETATM   35  C   UNL     1      -8.174   6.286  70.801  1.00  0.00    -0.125 C  
HETATM   36  C   UNL     1      -6.703   4.745  69.419  1.00  0.00    -0.045 C  
HETATM   37  C   UNL     1      -8.533   5.274  71.887  1.00  0.00    -0.126 C  
ENDBRANCH  29  31
ENDBRANCH  27  29
ENDBRANCH  25  27
ENDBRANCH  22  25
ENDBRANCH  19  22
ENDBRANCH  15  16
ENDBRANCH  14  15
ENDBRANCH  12  14
ENDBRANCH  10  12
ENDBRANCH   7  10
ENDBRANCH   2   3
TORSDOF 11
ENDMDL
MODEL      155
REMARK 921   NORMALIZED FREE ENERGY PREDICTED BY IDOCK:   -5.12 KCAL/MOL
REMARK 922        TOTAL FREE ENERGY PREDICTED BY IDOCK:  -10.72 KCAL/MOL
REMARK 923 INTER-LIGAND FREE ENERGY PREDICTED BY IDOCK:   -8.80 KCAL/MOL
REMARK 924 INTRA-LIGAND FREE ENERGY PREDICTED BY IDOCK:   -1.92 KCAL/MOL
REMARK 927      BINDING AFFINITY PREDICTED BY RF-SCORE:    0.00 PKD
ROOT
HETATM    1  C   UNL     1     -10.407   3.950  74.537  1.00  0.00    -0.266 C  
HETATM    2  C   UNL     1     -11.232   4.336  73.317  1.00  0.00    -0.338 C  
ENDROOT
BRANCH   2   3
HETATM    3  C   UNL     1     -10.487   5.257  72.419  1.00  0.00    -0.268 C  
HETATM    4  C   UNL     1      -9.792   5.030  71.294  1.00  0.00    -0.246 C  
HETATM    5  C   UNL     1      -9.202   6.282  70.730  1.00  0.00    -0.154 C  
HETATM    6  C   UNL     1      -9.613   3.735  70.583  1.00  0.00    -0.259 C  
HETATM    7  N   UNL     1      -9.715   7.287  71.619  1.00  0.00    -0.156 N  
HETATM    8  O   UNL     1     -10.896   7.268  73.647  1.00  0.00    -0.356 OA 
HETATM    9  C   UNL     1     -10.418   6.712  72.671  1.00  0.00    -0.212 C  
BRANCH   7  10
HETATM   10  C   UNL     1      -9.664   8.625  71.272  1.00  0.00    -0.237 C  
HETATM   11  O   UNL     1      -8.715   9.111  70.660  1.00  0.00    -0.192 OA 
BRANCH  10  12
HETATM   12  N   UNL     1     -10.769   9.357  71.625  1.00  0.00    -0.321 N  
HETATM   13  H   UNL     1     -10.857   9.668  72.593  1.00  0.00     0.000 HD 
BRANCH  12  14
HETATM   14  C   UNL     1     -11.816   9.711  70.689  1.00  0.00    -0.256 C  
BRANCH  14  15
HETATM   15  C   UNL     1     -12.363  11.133  70.902  1.00  0.00    -0.500 C  
BRANCH  15  16
HETATM   16  C   UNL     1     -12.052  12.103  69.775  1.00  0.00    -0.306 A  
HETATM   17  C   UNL     1     -11.900  11.666  68.451  1.00  0.00    -0.346 A  
HETATM   18  C   UNL     1     -11.558  12.559  67.434  1.00  0.00    -0.434 A  
HETATM   19  C   UNL     1     -11.429  13.921  67.708  1.00  0.00    -0.323 A  
HETATM   20  C   UNL     1     -11.622  14.386  69.011  1.00  0.00    -0.330 A  
HETATM   21  C   UNL     1     -11.939  13.480  70.036  1.00  0.00    -0.410 A  
BRANCH  19  22
HETATM   22  S   UNL     1     -10.856  15.020  66.427  1.00  0.00    -0.328 S  
HETATM   23  O   UNL     1     -11.555  14.661  65.209  1.00  0.00    -0.345 OA 
HETATM   24  O   UNL     1     -10.908  16.379  66.921  1.00  0.00    -0.249 OA 
BRANCH  22  25
HETATM   25  N   UNL     1      -9.264  14.583  66.157  1.00  0.00    -0.498 N  
HETATM   26  H   UNL     1      -8.952  14.466  65.193  1.00  0.00     0.000 HD 
BRANCH  25  27
HETATM   27  C   UNL     1      -8.350  14.373  67.171  1.00  0.00    -0.191 C  
HETATM   28  O   UNL     1      -8.254  15.115  68.136  1.00  0.00    -0.138 OA 
BRANCH  27  29
HETATM   29  N   UNL     1      -7.555  13.262  67.014  1.00  0.00    -0.369 N  
HETATM   30  H   UNL     1      -6.590  13.351  66.699  1.00  0.00     0.000 HD 
BRANCH  29  31
HETATM   31  C   UNL     1      -8.128  11.950  67.308  1.00  0.00    -0.171 C  
HETATM   32  C   UNL     1      -8.185  11.030  66.082  1.00  0.00    -0.155 C  
HETATM   33  C   UNL     1      -6.902  10.251  65.802  1.00  0.00    -0.128 C  
HETATM   34  C   UNL     1      -6.317   9.570  67.045  1.00  0.00    -0.066 C  
HETATM   35  C   UNL     1      -6.136  10.602  68.163  1.00  0.00    -0.050 C  
HETATM   36  C   UNL     1      -7.159   8.373  67.504  1.00  0.00    -0.083 C  
HETATM   37  C   UNL     1      -7.442  11.306  68.522  1.00  0.00    -0.115 C  
ENDBRANCH  29  31
ENDBRANCH  27  29
ENDBRANCH  25  27
ENDBRANCH  22  25
ENDBRANCH  19  22
ENDBRANCH  15  16
ENDBRANCH  14  15
ENDBRANCH  12  14
ENDBRANCH  10  12
ENDBRANCH   7  10
ENDBRANCH   2   3
TORSDOF 11
ENDMDL
MODEL      156
REMARK 921   NORMALIZED FREE ENERGY PREDICTED BY IDOCK:   -5.11 KCAL/MOL
REMARK 922        TOTAL FREE ENERGY PREDICTED BY IDOCK:  -10.70 KCAL/MOL
REMARK 923 INTER-LIGAND FREE ENERGY PREDICTED BY IDOCK:   -8.42 KCAL/MOL
REMARK 924 INTRA-LIGAND FREE ENERGY PREDICTED BY IDOCK:   -2.28 KCAL/MOL
REMARK 927      BINDING AFFINITY PREDICTED BY RF-SCORE:    0.00 PKD
ROOT
HETATM    1  C   UNL     1      -5.460  11.466  66.939  1.00  0.00    -0.115 C  
HETATM    2  C   UNL     1      -6.919  11.215  66.590  1.00  0.00    -0.142 C  
ENDROOT
BRANCH   2   3
HETATM    3  C   UNL     1      -7.448  10.003  67.270  1.00  0.00    -0.091 C  
HETATM    4  C   UNL     1      -7.529   8.726  66.871  1.00  0.00    -0.090 C  
HETATM    5  C   UNL     1      -8.150   7.846  67.907  1.00  0.00    -0.129 C  
HETATM    6  C   UNL     1      -7.040   8.142  65.592  1.00  0.00    -0.067 C  
HETATM    7  N   UNL     1      -8.342   8.756  69.003  1.00  0.00    -0.127 N  
HETATM    8  O   UNL     1      -8.143  11.076  69.292  1.00  0.00    -0.110 OA 
HETATM    9  C   UNL     1      -8.007  10.055  68.638  1.00  0.00    -0.097 C  
BRANCH   7  10
HETATM   10  C   UNL     1      -8.606   8.280  70.274  1.00  0.00    -0.127 C  
HETATM   11  O   UNL     1      -8.353   7.125  70.610  1.00  0.00    -0.123 OA 
BRANCH  10  12
HETATM   12  N   UNL     1      -9.133   9.204  71.140  1.00  0.00    -0.236 N  
HETATM   13  H   UNL     1      -8.533   9.963  71.463  1.00  0.00     0.000 HD 
BRANCH  12  14
HETATM   14  C   UNL     1     -10.500   9.151  71.618  1.00  0.00    -0.332 C  
BRANCH  14  15
HETATM   15  C   UNL     1     -11.538   9.197  70.484  1.00  0.00    -0.238 C  
BRANCH  15  16
HETATM   16  C   UNL     1     -11.531  10.482  69.674  1.00  0.00    -0.349 A  
HETATM   17  C   UNL     1     -11.635  11.739  70.288  1.00  0.00    -0.210 A  
HETATM   18  C   UNL     1     -11.684  12.909  69.529  1.00  0.00    -0.387 A  
HETATM   19  C   UNL     1     -11.561  12.852  68.141  1.00  0.00    -0.336 A  
HETATM   20  C   UNL     1     -11.410  11.614  67.509  1.00  0.00    -0.364 A  
HETATM   21  C   UNL     1     -11.388  10.439  68.275  1.00  0.00    -0.292 A  
BRANCH  19  22
HETATM   22  S   UNL     1     -11.767  14.341  67.182  1.00  0.00    -0.418 S  
HETATM   23  O   UNL     1     -12.821  14.089  66.221  1.00  0.00    -0.331 OA 
HETATM   24  O   UNL     1     -11.860  15.467  68.085  1.00  0.00    -0.301 OA 
BRANCH  22  25
HETATM   25  N   UNL     1     -10.371  14.469  66.270  1.00  0.00    -0.285 N  
HETATM   26  H   UNL     1      -9.793  13.637  66.153  1.00  0.00     0.000 HD 
BRANCH  25  27
HETATM   27  C   UNL     1      -9.960  15.641  65.667  1.00  0.00    -0.354 C  
HETATM   28  O   UNL     1     -10.558  16.146  64.730  1.00  0.00    -0.630 OA 
BRANCH  27  29
HETATM   29  N   UNL     1      -8.825  16.202  66.204  1.00  0.00    -0.336 N  
HETATM   30  H   UNL     1      -7.900  15.901  65.898  1.00  0.00     0.000 HD 
BRANCH  29  31
HETATM   31  C   UNL     1      -8.976  17.239  67.222  1.00  0.00    -0.227 C  
HETATM   32  C   UNL     1      -8.269  16.896  68.539  1.00  0.00    -0.249 C  
HETATM   33  C   UNL     1      -6.786  17.261  68.588  1.00  0.00    -0.207 C  
HETATM   34  C   UNL     1      -6.491  18.681  68.092  1.00  0.00    -0.220 C  
HETATM   35  C   UNL     1      -7.089  18.877  66.696  1.00  0.00    -0.227 C  
HETATM   36  C   UNL     1      -6.973  19.754  69.076  1.00  0.00    -0.372 C  
HETATM   37  C   UNL     1      -8.594  18.619  66.667  1.00  0.00    -0.304 C  
ENDBRANCH  29  31
ENDBRANCH  27  29
ENDBRANCH  25  27
ENDBRANCH  22  25
ENDBRANCH  19  22
ENDBRANCH  15  16
ENDBRANCH  14  15
ENDBRANCH  12  14
ENDBRANCH  10  12
ENDBRANCH   7  10
ENDBRANCH   2   3
TORSDOF 11
ENDMDL
MODEL      157
REMARK 921   NORMALIZED FREE ENERGY PREDICTED BY IDOCK:   -5.08 KCAL/MOL
REMARK 922        TOTAL FREE ENERGY PREDICTED BY IDOCK:  -10.65 KCAL/MOL
REMARK 923 INTER-LIGAND FREE ENERGY PREDICTED BY IDOCK:   -8.91 KCAL/MOL
REMARK 924 INTRA-LIGAND FREE ENERGY PREDICTED BY IDOCK:   -1.74 KCAL/MOL
REMARK 927      BINDING AFFINITY PREDICTED BY RF-SCORE:    0.00 PKD
ROOT
HETATM    1  C   UNL     1      -8.911   7.962  73.736  1.00  0.00    -0.332 C  
HETATM    2  C   UNL     1     -10.266   7.279  73.632  1.00  0.00    -0.393 C  
ENDROOT
BRANCH   2   3
HETATM    3  C   UNL     1     -10.457   6.635  72.305  1.00  0.00    -0.229 C  
HETATM    4  C   UNL     1     -11.136   7.028  71.217  1.00  0.00    -0.282 C  
HETATM    5  C   UNL     1     -11.047   6.035  70.104  1.00  0.00    -0.361 C  
HETATM    6  C   UNL     1     -11.876   8.304  71.022  1.00  0.00    -0.276 C  
HETATM    7  N   UNL     1     -10.153   5.049  70.647  1.00  0.00    -0.234 N  
HETATM    8  O   UNL     1      -9.194   4.652  72.752  1.00  0.00    -0.127 OA 
HETATM    9  C   UNL     1      -9.842   5.332  71.972  1.00  0.00    -0.174 C  
BRANCH   7  10
HETATM   10  C   UNL     1      -9.556   4.112  69.823  1.00  0.00    -0.211 C  
HETATM   11  O   UNL     1      -9.658   2.903  70.019  1.00  0.00    -0.144 OA 
BRANCH  10  12
HETATM   12  N   UNL     1      -8.878   4.632  68.750  1.00  0.00    -0.097 N  
HETATM   13  H   UNL     1      -8.358   5.501  68.879  1.00  0.00     0.000 HD 
BRANCH  12  14
HETATM   14  C   UNL     1      -8.866   4.007  67.443  1.00  0.00    -0.119 C  
BRANCH  14  15
HETATM   15  C   UNL     1      -9.826   4.676  66.444  1.00  0.00    -0.242 C  
BRANCH  15  16
HETATM   16  C   UNL     1      -9.766   6.195  66.433  1.00  0.00    -0.152 A  
HETATM   17  C   UNL     1     -10.757   6.974  67.048  1.00  0.00    -0.423 A  
HETATM   18  C   UNL     1     -10.720   8.368  66.981  1.00  0.00    -0.204 A  
HETATM   19  C   UNL     1      -9.653   9.014  66.358  1.00  0.00    -0.244 A  
HETATM   20  C   UNL     1      -8.629   8.259  65.779  1.00  0.00    -0.182 A  
HETATM   21  C   UNL     1      -8.685   6.857  65.824  1.00  0.00    -0.120 A  
BRANCH  19  22
HETATM   22  S   UNL     1      -9.696  10.785  66.162  1.00  0.00    -0.217 S  
HETATM   23  O   UNL     1      -9.908  11.357  67.476  1.00  0.00    -0.176 OA 
HETATM   24  O   UNL     1      -8.561  11.194  65.365  1.00  0.00    -0.129 OA 
BRANCH  22  25
HETATM   25  N   UNL     1     -11.109  11.096  65.322  1.00  0.00    -0.083 N  
HETATM   26  H   UNL     1     -11.602  10.310  64.897  1.00  0.00     0.000 HD 
BRANCH  25  27
HETATM   27  C   UNL     1     -11.646  12.360  65.175  1.00  0.00    -0.362 C  
HETATM   28  O   UNL     1     -12.796  12.550  64.813  1.00  0.00    -0.755 OA 
BRANCH  27  29
HETATM   29  N   UNL     1     -10.786  13.393  65.471  1.00  0.00    -0.285 N  
HETATM   30  H   UNL     1      -9.777  13.266  65.406  1.00  0.00     0.000 HD 
BRANCH  29  31
HETATM   31  C   UNL     1     -11.355  14.675  65.881  1.00  0.00    -0.338 C  
HETATM   32  C   UNL     1     -11.667  14.743  67.381  1.00  0.00    -0.371 C  
HETATM   33  C   UNL     1     -10.488  15.142  68.266  1.00  0.00    -0.241 C  
HETATM   34  C   UNL     1      -9.723  16.366  67.749  1.00  0.00    -0.235 C  
HETATM   35  C   UNL     1      -9.303  16.137  66.294  1.00  0.00    -0.351 C  
HETATM   36  C   UNL     1     -10.522  17.665  67.915  1.00  0.00    -0.392 C  
HETATM   37  C   UNL     1     -10.494  15.845  65.383  1.00  0.00    -0.429 C  
ENDBRANCH  29  31
ENDBRANCH  27  29
ENDBRANCH  25  27
ENDBRANCH  22  25
ENDBRANCH  19  22
ENDBRANCH  15  16
ENDBRANCH  14  15
ENDBRANCH  12  14
ENDBRANCH  10  12
ENDBRANCH   7  10
ENDBRANCH   2   3
TORSDOF 11
ENDMDL
MODEL      158
REMARK 921   NORMALIZED FREE ENERGY PREDICTED BY IDOCK:   -5.08 KCAL/MOL
REMARK 922        TOTAL FREE ENERGY PREDICTED BY IDOCK:  -10.65 KCAL/MOL
REMARK 923 INTER-LIGAND FREE ENERGY PREDICTED BY IDOCK:   -8.92 KCAL/MOL
REMARK 924 INTRA-LIGAND FREE ENERGY PREDICTED BY IDOCK:   -1.73 KCAL/MOL
REMARK 927      BINDING AFFINITY PREDICTED BY RF-SCORE:    0.00 PKD
ROOT
HETATM    1  C   UNL     1      -7.077   7.274  70.679  1.00  0.00    -0.065 C  
HETATM    2  C   UNL     1      -8.279   6.412  71.037  1.00  0.00    -0.122 C  
ENDROOT
BRANCH   2   3
HETATM    3  C   UNL     1      -9.171   6.199  69.867  1.00  0.00    -0.156 C  
HETATM    4  C   UNL     1     -10.315   6.799  69.503  1.00  0.00    -0.225 C  
HETATM    5  C   UNL     1     -10.868   6.240  68.232  1.00  0.00    -0.319 C  
HETATM    6  C   UNL     1     -11.004   7.929  70.183  1.00  0.00    -0.235 C  
HETATM    7  N   UNL     1      -9.855   5.295  67.849  1.00  0.00    -0.141 N  
HETATM    8  O   UNL     1      -7.930   4.416  68.865  1.00  0.00    -0.072 OA 
HETATM    9  C   UNL     1      -8.874   5.191  68.828  1.00  0.00    -0.093 C  
BRANCH   7  10
HETATM   10  C   UNL     1      -9.823   4.780  66.566  1.00  0.00    -0.217 C  
HETATM   11  O   UNL     1      -9.902   3.575  66.338  1.00  0.00    -0.091 OA 
BRANCH  10  12
HETATM   12  N   UNL     1      -9.739   5.717  65.568  1.00  0.00    -0.351 N  
HETATM   13  H   UNL     1     -10.601   6.035  65.126  1.00  0.00     0.000 HD 
BRANCH  12  14
HETATM   14  C   UNL     1      -8.482   6.276  65.112  1.00  0.00    -0.084 C  
BRANCH  14  15
HETATM   15  C   UNL     1      -8.005   7.465  65.965  1.00  0.00    -0.115 C  
BRANCH  15  16
HETATM   16  C   UNL     1      -8.757   8.761  65.716  1.00  0.00    -0.209 A  
HETATM   17  C   UNL     1      -9.563   9.345  66.705  1.00  0.00    -0.250 A  
HETATM   18  C   UNL     1     -10.293  10.505  66.444  1.00  0.00    -0.283 A  
HETATM   19  C   UNL     1     -10.179  11.146  65.210  1.00  0.00    -0.280 A  
HETATM   20  C   UNL     1      -9.346  10.608  64.226  1.00  0.00    -0.298 A  
HETATM   21  C   UNL     1      -8.635   9.426  64.483  1.00  0.00    -0.219 A  
BRANCH  19  22
HETATM   22  S   UNL     1     -11.226  12.544  64.850  1.00  0.00    -0.318 S  
HETATM   23  O   UNL     1     -11.436  12.564  63.417  1.00  0.00    -0.472 OA 
HETATM   24  O   UNL     1     -12.357  12.523  65.751  1.00  0.00    -0.627 OA 
BRANCH  22  25
HETATM   25  N   UNL     1     -10.282  13.888  65.168  1.00  0.00    -0.478 N  
HETATM   26  H   UNL     1      -9.765  14.309  64.396  1.00  0.00     0.000 HD 
BRANCH  25  27
HETATM   27  C   UNL     1     -10.165  14.458  66.421  1.00  0.00    -0.289 C  
HETATM   28  O   UNL     1      -9.672  13.868  67.370  1.00  0.00    -0.225 OA 
BRANCH  27  29
HETATM   29  N   UNL     1     -10.644  15.743  66.520  1.00  0.00    -0.309 N  
HETATM   30  H   UNL     1     -11.586  15.923  66.866  1.00  0.00     0.000 HD 
BRANCH  29  31
HETATM   31  C   UNL     1      -9.772  16.843  66.116  1.00  0.00    -0.272 C  
HETATM   32  C   UNL     1     -10.497  18.193  66.052  1.00  0.00    -0.346 C  
HETATM   33  C   UNL     1     -10.588  18.939  67.382  1.00  0.00    -0.534 C  
HETATM   34  C   UNL     1      -9.258  19.001  68.140  1.00  0.00    -0.371 C  
HETATM   35  C   UNL     1      -8.691  17.587  68.307  1.00  0.00    -0.270 C  
HETATM   36  C   UNL     1      -8.250  19.945  67.473  1.00  0.00    -0.358 C  
HETATM   37  C   UNL     1      -8.495  16.877  66.969  1.00  0.00    -0.228 C  
ENDBRANCH  29  31
ENDBRANCH  27  29
ENDBRANCH  25  27
ENDBRANCH  22  25
ENDBRANCH  19  22
ENDBRANCH  15  16
ENDBRANCH  14  15
ENDBRANCH  12  14
ENDBRANCH  10  12
ENDBRANCH   7  10
ENDBRANCH   2   3
TORSDOF 11
ENDMDL
MODEL      159
REMARK 921   NORMALIZED FREE ENERGY PREDICTED BY IDOCK:   -5.07 KCAL/MOL
REMARK 922        TOTAL FREE ENERGY PREDICTED BY IDOCK:  -10.64 KCAL/MOL
REMARK 923 INTER-LIGAND FREE ENERGY PREDICTED BY IDOCK:   -8.69 KCAL/MOL
REMARK 924 INTRA-LIGAND FREE ENERGY PREDICTED BY IDOCK:   -1.95 KCAL/MOL
REMARK 927      BINDING AFFINITY PREDICTED BY RF-SCORE:    0.00 PKD
ROOT
HETATM    1  C   UNL     1      -7.107  13.732  68.941  1.00  0.00    -0.107 C  
HETATM    2  C   UNL     1      -8.139  13.031  68.070  1.00  0.00    -0.157 C  
ENDROOT
BRANCH   2   3
HETATM    3  C   UNL     1      -7.837  11.583  67.918  1.00  0.00    -0.123 C  
HETATM    4  C   UNL     1      -8.347  10.502  68.528  1.00  0.00    -0.129 C  
HETATM    5  C   UNL     1      -7.722   9.233  68.047  1.00  0.00    -0.088 C  
HETATM    6  C   UNL     1      -9.441  10.459  69.535  1.00  0.00    -0.164 C  
HETATM    7  N   UNL     1      -6.842   9.701  67.011  1.00  0.00    -0.083 N  
HETATM    8  O   UNL     1      -6.124  11.807  66.264  1.00  0.00    -0.105 OA 
HETATM    9  C   UNL     1      -6.829  11.089  66.956  1.00  0.00    -0.109 C  
BRANCH   7  10
HETATM   10  C   UNL     1      -6.302   8.817  66.095  1.00  0.00    -0.064 C  
HETATM   11  O   UNL     1      -5.133   8.887  65.722  1.00  0.00    -0.029 OA 
BRANCH  10  12
HETATM   12  N   UNL     1      -7.156   7.833  65.667  1.00  0.00    -0.059 N  
HETATM   13  H   UNL     1      -6.855   6.861  65.743  1.00  0.00     0.000 HD 
BRANCH  12  14
HETATM   14  C   UNL     1      -8.465   8.109  65.110  1.00  0.00    -0.116 C  
BRANCH  14  15
HETATM   15  C   UNL     1      -8.448   9.222  64.049  1.00  0.00    -0.202 C  
BRANCH  15  16
HETATM   16  C   UNL     1      -9.484  10.313  64.263  1.00  0.00    -0.365 A  
HETATM   17  C   UNL     1      -9.839  11.201  63.237  1.00  0.00    -0.415 A  
HETATM   18  C   UNL     1     -10.750  12.234  63.463  1.00  0.00    -0.497 A  
HETATM   19  C   UNL     1     -11.378  12.359  64.703  1.00  0.00    -0.315 A  
HETATM   20  C   UNL     1     -11.075  11.457  65.726  1.00  0.00    -0.217 A  
HETATM   21  C   UNL     1     -10.138  10.436  65.502  1.00  0.00    -0.352 A  
BRANCH  19  22
HETATM   22  S   UNL     1     -12.429  13.765  65.013  1.00  0.00    -0.395 S  
HETATM   23  O   UNL     1     -12.299  14.656  63.878  1.00  0.00    -0.730 OA 
HETATM   24  O   UNL     1     -13.733  13.292  65.421  1.00  0.00    -0.067 OA 
BRANCH  22  25
HETATM   25  N   UNL     1     -11.706  14.577  66.285  1.00  0.00    -0.373 N  
HETATM   26  H   UNL     1     -12.132  14.505  67.209  1.00  0.00     0.000 HD 
BRANCH  25  27
HETATM   27  C   UNL     1     -10.562  15.339  66.150  1.00  0.00    -0.313 C  
HETATM   28  O   UNL     1      -9.571  14.941  65.559  1.00  0.00    -0.296 OA 
BRANCH  27  29
HETATM   29  N   UNL     1     -10.624  16.584  66.731  1.00  0.00    -0.268 N  
HETATM   30  H   UNL     1     -11.320  16.793  67.445  1.00  0.00     0.000 HD 
BRANCH  29  31
HETATM   31  C   UNL     1      -9.668  17.601  66.298  1.00  0.00    -0.263 C  
HETATM   32  C   UNL     1     -10.301  18.987  66.124  1.00  0.00    -0.537 C  
HETATM   33  C   UNL     1     -10.393  19.818  67.402  1.00  0.00    -0.582 C  
HETATM   34  C   UNL     1      -9.090  19.843  68.209  1.00  0.00    -0.318 C  
HETATM   35  C   UNL     1      -8.622  18.410  68.483  1.00  0.00    -0.341 C  
HETATM   36  C   UNL     1      -7.999  20.679  67.529  1.00  0.00    -0.274 C  
HETATM   37  C   UNL     1      -8.423  17.608  67.199  1.00  0.00    -0.239 C  
ENDBRANCH  29  31
ENDBRANCH  27  29
ENDBRANCH  25  27
ENDBRANCH  22  25
ENDBRANCH  19  22
ENDBRANCH  15  16
ENDBRANCH  14  15
ENDBRANCH  12  14
ENDBRANCH  10  12
ENDBRANCH   7  10
ENDBRANCH   2   3
TORSDOF 11
ENDMDL
MODEL      160
REMARK 921   NORMALIZED FREE ENERGY PREDICTED BY IDOCK:   -5.06 KCAL/MOL
REMARK 922        TOTAL FREE ENERGY PREDICTED BY IDOCK:  -10.61 KCAL/MOL
REMARK 923 INTER-LIGAND FREE ENERGY PREDICTED BY IDOCK:   -8.34 KCAL/MOL
REMARK 924 INTRA-LIGAND FREE ENERGY PREDICTED BY IDOCK:   -2.27 KCAL/MOL
REMARK 927      BINDING AFFINITY PREDICTED BY RF-SCORE:    0.00 PKD
ROOT
HETATM    1  C   UNL     1      -7.229  15.150  69.154  1.00  0.00    -0.163 C  
HETATM    2  C   UNL     1      -8.459  14.318  68.825  1.00  0.00    -0.094 C  
ENDROOT
BRANCH   2   3
HETATM    3  C   UNL     1      -9.501  15.124  68.136  1.00  0.00    -0.201 C  
HETATM    4  C   UNL     1     -10.417  15.982  68.610  1.00  0.00    -0.251 C  
HETATM    5  C   UNL     1     -11.267  16.561  67.525  1.00  0.00     0.021 C  
HETATM    6  C   UNL     1     -10.612  16.414  70.020  1.00  0.00    -0.203 C  
HETATM    7  N   UNL     1     -10.672  16.001  66.342  1.00  0.00    -0.275 N  
HETATM    8  O   UNL     1      -9.041  14.369  65.913  1.00  0.00    -0.047 OA 
HETATM    9  C   UNL     1      -9.674  15.090  66.668  1.00  0.00    -0.258 C  
BRANCH   7  10
HETATM   10  C   UNL     1     -10.960  16.525  65.095  1.00  0.00    -0.191 C  
HETATM   11  O   UNL     1     -10.916  17.731  64.861  1.00  0.00    -0.866 OA 
BRANCH  10  12
HETATM   12  N   UNL     1     -11.257  15.596  64.131  1.00  0.00    -0.675 N  
HETATM   13  H   UNL     1     -10.644  15.525  63.319  1.00  0.00     0.000 HD 
BRANCH  12  14
HETATM   14  C   UNL     1     -12.401  14.709  64.212  1.00  0.00    -0.349 C  
BRANCH  14  15
HETATM   15  C   UNL     1     -12.144  13.333  63.574  1.00  0.00    -0.550 C  
BRANCH  15  16
HETATM   16  C   UNL     1     -11.489  12.322  64.500  1.00  0.00    -0.401 A  
HETATM   17  C   UNL     1     -10.582  11.366  64.020  1.00  0.00    -0.444 A  
HETATM   18  C   UNL     1     -10.030  10.407  64.871  1.00  0.00    -0.409 A  
HETATM   19  C   UNL     1     -10.322  10.426  66.235  1.00  0.00    -0.203 A  
HETATM   20  C   UNL     1     -11.187  11.398  66.744  1.00  0.00    -0.319 A  
HETATM   21  C   UNL     1     -11.761  12.343  65.880  1.00  0.00    -0.476 A  
BRANCH  19  22
HETATM   22  S   UNL     1      -9.720   9.110  67.277  1.00  0.00    -0.186 S  
HETATM   23  O   UNL     1      -8.305   8.960  67.003  1.00  0.00    -0.105 OA 
HETATM   24  O   UNL     1     -10.179   9.340  68.629  1.00  0.00    -0.187 OA 
BRANCH  22  25
HETATM   25  N   UNL     1     -10.427   7.720  66.675  1.00  0.00    -0.491 N  
HETATM   26  H   UNL     1     -11.029   7.799  65.854  1.00  0.00     0.000 HD 
BRANCH  25  27
HETATM   27  C   UNL     1     -10.241   6.469  67.229  1.00  0.00    -0.188 C  
HETATM   28  O   UNL     1     -10.855   5.483  66.853  1.00  0.00    -0.266 OA 
BRANCH  27  29
HETATM   29  N   UNL     1      -9.307   6.415  68.237  1.00  0.00    -0.111 N  
HETATM   30  H   UNL     1      -9.350   7.062  69.024  1.00  0.00     0.000 HD 
BRANCH  29  31
HETATM   31  C   UNL     1      -8.252   5.407  68.154  1.00  0.00    -0.099 C  
HETATM   32  C   UNL     1      -6.865   5.959  68.505  1.00  0.00    -0.070 C  
HETATM   33  C   UNL     1      -6.537   5.977  69.997  1.00  0.00    -0.040 C  
HETATM   34  C   UNL     1      -6.864   4.660  70.709  1.00  0.00    -0.036 C  
HETATM   35  C   UNL     1      -8.322   4.274  70.442  1.00  0.00    -0.081 C  
HETATM   36  C   UNL     1      -5.896   3.534  70.326  1.00  0.00    -0.018 C  
HETATM   37  C   UNL     1      -8.626   4.148  68.950  1.00  0.00    -0.110 C  
ENDBRANCH  29  31
ENDBRANCH  27  29
ENDBRANCH  25  27
ENDBRANCH  22  25
ENDBRANCH  19  22
ENDBRANCH  15  16
ENDBRANCH  14  15
ENDBRANCH  12  14
ENDBRANCH  10  12
ENDBRANCH   7  10
ENDBRANCH   2   3
TORSDOF 11
ENDMDL
MODEL      161
REMARK 921   NORMALIZED FREE ENERGY PREDICTED BY IDOCK:   -5.05 KCAL/MOL
REMARK 922        TOTAL FREE ENERGY PREDICTED BY IDOCK:  -10.60 KCAL/MOL
REMARK 923 INTER-LIGAND FREE ENERGY PREDICTED BY IDOCK:   -8.66 KCAL/MOL
REMARK 924 INTRA-LIGAND FREE ENERGY PREDICTED BY IDOCK:   -1.94 KCAL/MOL
REMARK 927      BINDING AFFINITY PREDICTED BY RF-SCORE:    0.00 PKD
ROOT
HETATM    1  C   UNL     1     -10.432   2.569  72.569  1.00  0.00    -0.168 C  
HETATM    2  C   UNL     1     -10.328   3.361  73.864  1.00  0.00    -0.232 C  
ENDROOT
BRANCH   2   3
HETATM    3  C   UNL     1      -9.438   4.543  73.716  1.00  0.00    -0.129 C  
HETATM    4  C   UNL     1      -8.117   4.687  73.898  1.00  0.00    -0.105 C  
HETATM    5  C   UNL     1      -7.656   6.084  73.632  1.00  0.00    -0.096 C  
HETATM    6  C   UNL     1      -7.131   3.635  74.266  1.00  0.00    -0.052 C  
HETATM    7  N   UNL     1      -8.864   6.721  73.183  1.00  0.00    -0.123 N  
HETATM    8  O   UNL     1     -11.129   6.114  73.089  1.00  0.00    -0.248 OA 
HETATM    9  C   UNL     1      -9.952   5.862  73.290  1.00  0.00    -0.181 C  
BRANCH   7  10
HETATM   10  C   UNL     1      -8.816   7.943  72.537  1.00  0.00    -0.164 C  
HETATM   11  O   UNL     1      -8.060   8.845  72.890  1.00  0.00    -0.380 OA 
BRANCH  10  12
HETATM   12  N   UNL     1      -9.645   8.055  71.450  1.00  0.00    -0.150 N  
HETATM   13  H   UNL     1     -10.041   7.204  71.051  1.00  0.00     0.000 HD 
BRANCH  12  14
HETATM   14  C   UNL     1      -9.984   9.326  70.841  1.00  0.00    -0.297 C  
BRANCH  14  15
HETATM   15  C   UNL     1     -11.189   9.237  69.889  1.00  0.00    -0.145 C  
BRANCH  15  16
HETATM   16  C   UNL     1     -11.269  10.359  68.868  1.00  0.00    -0.290 A  
HETATM   17  C   UNL     1     -11.738  11.635  69.214  1.00  0.00    -0.396 A  
HETATM   18  C   UNL     1     -11.860  12.641  68.254  1.00  0.00    -0.354 A  
HETATM   19  C   UNL     1     -11.450  12.413  66.940  1.00  0.00    -0.360 A  
HETATM   20  C   UNL     1     -10.936  11.163  66.583  1.00  0.00    -0.289 A  
HETATM   21  C   UNL     1     -10.841  10.147  67.545  1.00  0.00    -0.349 A  
BRANCH  19  22
HETATM   22  S   UNL     1     -11.745  13.662  65.702  1.00  0.00    -0.360 S  
HETATM   23  O   UNL     1     -10.823  13.410  64.612  1.00  0.00    -0.348 OA 
HETATM   24  O   UNL     1     -13.167  13.740  65.449  1.00  0.00    -0.722 OA 
BRANCH  22  25
HETATM   25  N   UNL     1     -11.219  15.092  66.392  1.00  0.00    -0.335 N  
HETATM   26  H   UNL     1     -11.733  15.459  67.193  1.00  0.00     0.000 HD 
BRANCH  25  27
HETATM   27  C   UNL     1     -10.127  15.802  65.934  1.00  0.00    -0.356 C  
HETATM   28  O   UNL     1     -10.230  16.884  65.377  1.00  0.00    -0.605 OA 
BRANCH  27  29
HETATM   29  N   UNL     1      -8.910  15.200  66.156  1.00  0.00    -0.468 N  
HETATM   30  H   UNL     1      -8.327  14.900  65.376  1.00  0.00     0.000 HD 
BRANCH  29  31
HETATM   31  C   UNL     1      -8.474  15.001  67.536  1.00  0.00    -0.174 C  
HETATM   32  C   UNL     1      -8.111  13.545  67.849  1.00  0.00    -0.165 C  
HETATM   33  C   UNL     1      -6.681  13.146  67.487  1.00  0.00    -0.159 C  
HETATM   34  C   UNL     1      -5.627  14.150  67.968  1.00  0.00    -0.124 C  
HETATM   35  C   UNL     1      -5.982  15.553  67.464  1.00  0.00    -0.099 C  
HETATM   36  C   UNL     1      -5.444  14.119  69.490  1.00  0.00    -0.091 C  
HETATM   37  C   UNL     1      -7.370  16.000  67.917  1.00  0.00    -0.145 C  
ENDBRANCH  29  31
ENDBRANCH  27  29
ENDBRANCH  25  27
ENDBRANCH  22  25
ENDBRANCH  19  22
ENDBRANCH  15  16
ENDBRANCH  14  15
ENDBRANCH  12  14
ENDBRANCH  10  12
ENDBRANCH   7  10
ENDBRANCH   2   3
TORSDOF 11
ENDMDL
MODEL      162
REMARK 921   NORMALIZED FREE ENERGY PREDICTED BY IDOCK:   -5.04 KCAL/MOL
REMARK 922        TOTAL FREE ENERGY PREDICTED BY IDOCK:  -10.58 KCAL/MOL
REMARK 923 INTER-LIGAND FREE ENERGY PREDICTED BY IDOCK:   -8.72 KCAL/MOL
REMARK 924 INTRA-LIGAND FREE ENERGY PREDICTED BY IDOCK:   -1.86 KCAL/MOL
REMARK 927      BINDING AFFINITY PREDICTED BY RF-SCORE:    0.00 PKD
ROOT
HETATM    1  C   UNL     1      -7.137  16.363  66.898  1.00  0.00    -0.256 C  
HETATM    2  C   UNL     1      -7.705  15.800  68.192  1.00  0.00    -0.131 C  
ENDROOT
BRANCH   2   3
HETATM    3  C   UNL     1      -9.152  15.481  68.065  1.00  0.00    -0.182 C  
HETATM    4  C   UNL     1     -10.247  16.223  68.287  1.00  0.00    -0.253 C  
HETATM    5  C   UNL     1     -11.508  15.464  68.027  1.00  0.00    -0.326 C  
HETATM    6  C   UNL     1     -10.307  17.653  68.693  1.00  0.00    -0.359 C  
HETATM    7  N   UNL     1     -11.012  14.208  67.537  1.00  0.00    -0.278 N  
HETATM    8  O   UNL     1      -8.896  13.204  67.375  1.00  0.00    -0.184 OA 
HETATM    9  C   UNL     1      -9.625  14.154  67.615  1.00  0.00    -0.216 C  
BRANCH   7  10
HETATM   10  C   UNL     1     -11.853  13.325  66.885  1.00  0.00    -0.392 C  
HETATM   11  O   UNL     1     -12.276  12.302  67.419  1.00  0.00    -0.478 OA 
BRANCH  10  12
HETATM   12  N   UNL     1     -12.213  13.699  65.616  1.00  0.00    -0.423 N  
HETATM   13  H   UNL     1     -12.233  14.694  65.389  1.00  0.00     0.000 HD 
BRANCH  12  14
HETATM   14  C   UNL     1     -12.567  12.748  64.581  1.00  0.00    -0.419 C  
BRANCH  14  15
HETATM   15  C   UNL     1     -11.495  12.623  63.484  1.00  0.00    -0.557 C  
BRANCH  15  16
HETATM   16  C   UNL     1     -10.475  11.523  63.723  1.00  0.00    -0.459 A  
HETATM   17  C   UNL     1      -9.448  11.262  62.804  1.00  0.00    -0.355 A  
HETATM   18  C   UNL     1      -8.551  10.211  63.007  1.00  0.00    -0.192 A  
HETATM   19  C   UNL     1      -8.620   9.443  64.169  1.00  0.00    -0.198 A  
HETATM   20  C   UNL     1      -9.607   9.715  65.121  1.00  0.00    -0.324 A  
HETATM   21  C   UNL     1     -10.523  10.754  64.899  1.00  0.00    -0.324 A  
BRANCH  19  22
HETATM   22  S   UNL     1      -7.558   8.022  64.342  1.00  0.00    -0.123 S  
HETATM   23  O   UNL     1      -7.120   7.649  63.012  1.00  0.00    -0.070 OA 
HETATM   24  O   UNL     1      -6.586   8.290  65.379  1.00  0.00    -0.051 OA 
BRANCH  22  25
HETATM   25  N   UNL     1      -8.567   6.780  64.829  1.00  0.00    -0.349 N  
HETATM   26  H   UNL     1      -9.383   6.566  64.254  1.00  0.00     0.000 HD 
BRANCH  25  27
HETATM   27  C   UNL     1      -8.355   6.028  65.968  1.00  0.00    -0.134 C  
HETATM   28  O   UNL     1      -7.426   5.244  66.077  1.00  0.00    -0.080 OA 
BRANCH  27  29
HETATM   29  N   UNL     1      -9.269   6.232  66.975  1.00  0.00    -0.121 N  
HETATM   30  H   UNL     1     -10.248   5.974  66.851  1.00  0.00     0.000 HD 
BRANCH  29  31
HETATM   31  C   UNL     1      -8.804   6.825  68.227  1.00  0.00    -0.125 C  
HETATM   32  C   UNL     1      -8.928   8.353  68.251  1.00  0.00    -0.139 C  
HETATM   33  C   UNL     1     -10.298   8.882  68.672  1.00  0.00    -0.228 C  
HETATM   34  C   UNL     1     -10.850   8.209  69.933  1.00  0.00    -0.215 C  
HETATM   35  C   UNL     1     -10.848   6.688  69.752  1.00  0.00    -0.337 C  
HETATM   36  C   UNL     1     -10.096   8.634  71.199  1.00  0.00    -0.290 C  
HETATM   37  C   UNL     1      -9.457   6.142  69.438  1.00  0.00    -0.153 C  
ENDBRANCH  29  31
ENDBRANCH  27  29
ENDBRANCH  25  27
ENDBRANCH  22  25
ENDBRANCH  19  22
ENDBRANCH  15  16
ENDBRANCH  14  15
ENDBRANCH  12  14
ENDBRANCH  10  12
ENDBRANCH   7  10
ENDBRANCH   2   3
TORSDOF 11
ENDMDL
MODEL      163
REMARK 921   NORMALIZED FREE ENERGY PREDICTED BY IDOCK:   -5.03 KCAL/MOL
REMARK 922        TOTAL FREE ENERGY PREDICTED BY IDOCK:  -10.57 KCAL/MOL
REMARK 923 INTER-LIGAND FREE ENERGY PREDICTED BY IDOCK:   -9.24 KCAL/MOL
REMARK 924 INTRA-LIGAND FREE ENERGY PREDICTED BY IDOCK:   -1.33 KCAL/MOL
REMARK 927      BINDING AFFINITY PREDICTED BY RF-SCORE:    0.00 PKD
ROOT
HETATM    1  C   UNL     1     -10.069   3.828  64.073  1.00  0.00    -0.212 C  
HETATM    2  C   UNL     1      -8.771   4.312  64.702  1.00  0.00    -0.137 C  
ENDROOT
BRANCH   2   3
HETATM    3  C   UNL     1      -9.022   5.262  65.819  1.00  0.00    -0.154 C  
HETATM    4  C   UNL     1      -8.843   6.588  65.913  1.00  0.00    -0.131 C  
HETATM    5  C   UNL     1      -9.235   7.119  67.253  1.00  0.00    -0.130 C  
HETATM    6  C   UNL     1      -8.367   7.517  64.853  1.00  0.00    -0.045 C  
HETATM    7  N   UNL     1      -9.753   5.947  67.905  1.00  0.00    -0.115 N  
HETATM    8  O   UNL     1      -9.811   3.655  67.405  1.00  0.00    -0.134 OA 
HETATM    9  C   UNL     1      -9.576   4.817  67.115  1.00  0.00    -0.167 C  
BRANCH   7  10
HETATM   10  C   UNL     1     -10.512   6.060  69.056  1.00  0.00    -0.256 C  
HETATM   11  O   UNL     1     -10.456   5.234  69.965  1.00  0.00    -0.293 OA 
BRANCH  10  12
HETATM   12  N   UNL     1     -11.297   7.182  69.124  1.00  0.00    -0.480 N  
HETATM   13  H   UNL     1     -11.924   7.384  68.344  1.00  0.00     0.000 HD 
BRANCH  12  14
HETATM   14  C   UNL     1     -11.279   8.094  70.249  1.00  0.00    -0.182 C  
BRANCH  14  15
HETATM   15  C   UNL     1     -10.119   9.102  70.192  1.00  0.00    -0.233 C  
BRANCH  15  16
HETATM   16  C   UNL     1     -10.479  10.442  69.572  1.00  0.00    -0.274 A  
HETATM   17  C   UNL     1     -11.547  11.212  70.056  1.00  0.00    -0.421 A  
HETATM   18  C   UNL     1     -11.903  12.414  69.442  1.00  0.00    -0.365 A  
HETATM   19  C   UNL     1     -11.156  12.906  68.372  1.00  0.00    -0.262 A  
HETATM   20  C   UNL     1     -10.059  12.178  67.902  1.00  0.00    -0.199 A  
HETATM   21  C   UNL     1      -9.721  10.957  68.505  1.00  0.00    -0.183 A  
BRANCH  19  22
HETATM   22  S   UNL     1     -11.711  14.367  67.515  1.00  0.00    -0.386 S  
HETATM   23  O   UNL     1     -12.656  13.938  66.504  1.00  0.00    -0.384 OA 
HETATM   24  O   UNL     1     -12.093  15.363  68.492  1.00  0.00    -0.249 OA 
BRANCH  22  25
HETATM   25  N   UNL     1     -10.377  14.904  66.661  1.00  0.00    -0.278 N  
HETATM   26  H   UNL     1      -9.535  14.328  66.667  1.00  0.00     0.000 HD 
BRANCH  25  27
HETATM   27  C   UNL     1     -10.355  16.086  65.947  1.00  0.00    -0.368 C  
HETATM   28  O   UNL     1     -10.288  16.119  64.728  1.00  0.00    -0.524 OA 
BRANCH  27  29
HETATM   29  N   UNL     1     -10.417  17.227  66.713  1.00  0.00    -0.295 N  
HETATM   30  H   UNL     1     -11.247  17.818  66.702  1.00  0.00     0.000 HD 
BRANCH  29  31
HETATM   31  C   UNL     1      -9.264  17.571  67.542  1.00  0.00    -0.242 C  
HETATM   32  C   UNL     1      -7.960  17.682  66.742  1.00  0.00    -0.268 C  
HETATM   33  C   UNL     1      -7.719  19.042  66.089  1.00  0.00    -0.291 C  
HETATM   34  C   UNL     1      -7.953  20.224  67.035  1.00  0.00    -0.366 C  
HETATM   35  C   UNL     1      -9.349  20.121  67.659  1.00  0.00    -0.487 C  
HETATM   36  C   UNL     1      -6.858  20.341  68.103  1.00  0.00    -0.324 C  
HETATM   37  C   UNL     1      -9.555  18.806  68.408  1.00  0.00    -0.409 C  
ENDBRANCH  29  31
ENDBRANCH  27  29
ENDBRANCH  25  27
ENDBRANCH  22  25
ENDBRANCH  19  22
ENDBRANCH  15  16
ENDBRANCH  14  15
ENDBRANCH  12  14
ENDBRANCH  10  12
ENDBRANCH   7  10
ENDBRANCH   2   3
TORSDOF 11
ENDMDL
MODEL      164
REMARK 921   NORMALIZED FREE ENERGY PREDICTED BY IDOCK:   -5.02 KCAL/MOL
REMARK 922        TOTAL FREE ENERGY PREDICTED BY IDOCK:  -10.55 KCAL/MOL
REMARK 923 INTER-LIGAND FREE ENERGY PREDICTED BY IDOCK:   -9.41 KCAL/MOL
REMARK 924 INTRA-LIGAND FREE ENERGY PREDICTED BY IDOCK:   -1.14 KCAL/MOL
REMARK 927      BINDING AFFINITY PREDICTED BY RF-SCORE:    0.00 PKD
ROOT
HETATM    1  C   UNL     1      -6.610  19.772  69.739  1.00  0.00    -0.357 C  
HETATM    2  C   UNL     1      -6.067  18.387  69.423  1.00  0.00    -0.263 C  
ENDROOT
BRANCH   2   3
HETATM    3  C   UNL     1      -6.736  17.791  68.236  1.00  0.00    -0.206 C  
HETATM    4  C   UNL     1      -6.666  18.097  66.932  1.00  0.00    -0.212 C  
HETATM    5  C   UNL     1      -7.534  17.214  66.095  1.00  0.00    -0.260 C  
HETATM    6  C   UNL     1      -5.817  19.135  66.287  1.00  0.00    -0.179 C  
HETATM    7  N   UNL     1      -8.055  16.292  67.066  1.00  0.00    -0.187 N  
HETATM    8  O   UNL     1      -8.008  16.139  69.408  1.00  0.00    -0.227 OA 
HETATM    9  C   UNL     1      -7.664  16.646  68.352  1.00  0.00    -0.200 C  
BRANCH   7  10
HETATM   10  C   UNL     1      -8.659  15.114  66.664  1.00  0.00    -0.243 C  
HETATM   11  O   UNL     1      -8.305  14.015  67.084  1.00  0.00    -0.193 OA 
BRANCH  10  12
HETATM   12  N   UNL     1      -9.710  15.270  65.796  1.00  0.00    -0.347 N  
HETATM   13  H   UNL     1      -9.505  15.423  64.808  1.00  0.00     0.000 HD 
BRANCH  12  14
HETATM   14  C   UNL     1     -11.096  15.229  66.216  1.00  0.00    -0.273 C  
BRANCH  14  15
HETATM   15  C   UNL     1     -11.809  13.924  65.818  1.00  0.00    -0.393 C  
BRANCH  15  16
HETATM   16  C   UNL     1     -11.498  12.738  66.715  1.00  0.00    -0.399 A  
HETATM   17  C   UNL     1     -11.794  12.757  68.086  1.00  0.00    -0.372 A  
HETATM   18  C   UNL     1     -11.452  11.684  68.911  1.00  0.00    -0.349 A  
HETATM   19  C   UNL     1     -10.868  10.539  68.368  1.00  0.00    -0.240 A  
HETATM   20  C   UNL     1     -10.607  10.478  66.996  1.00  0.00    -0.310 A  
HETATM   21  C   UNL     1     -10.927  11.571  66.177  1.00  0.00    -0.320 A  
BRANCH  19  22
HETATM   22  S   UNL     1     -10.312   9.240  69.456  1.00  0.00    -0.224 S  
HETATM   23  O   UNL     1      -9.827   8.160  68.621  1.00  0.00    -0.173 OA 
HETATM   24  O   UNL     1      -9.457   9.816  70.470  1.00  0.00    -0.229 OA 
BRANCH  22  25
HETATM   25  N   UNL     1     -11.703   8.644  70.170  1.00  0.00    -0.454 N  
HETATM   26  H   UNL     1     -12.283   8.000  69.633  1.00  0.00     0.000 HD 
BRANCH  25  27
HETATM   27  C   UNL     1     -12.107   8.979  71.447  1.00  0.00    -0.327 C  
HETATM   28  O   UNL     1     -12.754   9.985  71.692  1.00  0.00    -0.369 OA 
BRANCH  27  29
HETATM   29  N   UNL     1     -11.728   8.090  72.426  1.00  0.00    -0.367 N  
HETATM   30  H   UNL     1     -12.173   8.104  73.343  1.00  0.00     0.000 HD 
BRANCH  29  31
HETATM   31  C   UNL     1     -10.674   7.126  72.119  1.00  0.00    -0.215 C  
HETATM   32  C   UNL     1      -9.523   7.151  73.132  1.00  0.00    -0.204 C  
HETATM   33  C   UNL     1      -9.745   6.300  74.381  1.00  0.00    -0.291 C  
HETATM   34  C   UNL     1     -10.252   4.886  74.074  1.00  0.00    -0.264 C  
HETATM   35  C   UNL     1     -11.505   4.965  73.197  1.00  0.00    -0.362 C  
HETATM   36  C   UNL     1      -9.168   4.003  73.444  1.00  0.00    -0.111 C  
HETATM   37  C   UNL     1     -11.257   5.722  71.894  1.00  0.00    -0.289 C  
ENDBRANCH  29  31
ENDBRANCH  27  29
ENDBRANCH  25  27
ENDBRANCH  22  25
ENDBRANCH  19  22
ENDBRANCH  15  16
ENDBRANCH  14  15
ENDBRANCH  12  14
ENDBRANCH  10  12
ENDBRANCH   7  10
ENDBRANCH   2   3
TORSDOF 11
ENDMDL
MODEL      165
REMARK 921   NORMALIZED FREE ENERGY PREDICTED BY IDOCK:   -4.97 KCAL/MOL
REMARK 922        TOTAL FREE ENERGY PREDICTED BY IDOCK:  -10.47 KCAL/MOL
REMARK 923 INTER-LIGAND FREE ENERGY PREDICTED BY IDOCK:   -9.28 KCAL/MOL
REMARK 924 INTRA-LIGAND FREE ENERGY PREDICTED BY IDOCK:   -1.19 KCAL/MOL
REMARK 927      BINDING AFFINITY PREDICTED BY RF-SCORE:    0.00 PKD
ROOT
HETATM    1  C   UNL     1      -8.464   6.148  71.425  1.00  0.00    -0.128 C  
HETATM    2  C   UNL     1      -8.961   4.901  70.708  1.00  0.00    -0.167 C  
ENDROOT
BRANCH   2   3
HETATM    3  C   UNL     1      -9.561   5.229  69.388  1.00  0.00    -0.215 C  
HETATM    4  C   UNL     1     -10.671   5.909  69.062  1.00  0.00    -0.379 C  
HETATM    5  C   UNL     1     -10.879   5.980  67.584  1.00  0.00    -0.295 C  
HETATM    6  C   UNL     1     -11.618   6.595  69.982  1.00  0.00    -0.423 C  
HETATM    7  N   UNL     1      -9.700   5.329  67.080  1.00  0.00    -0.141 N  
HETATM    8  O   UNL     1      -7.932   4.117  68.035  1.00  0.00    -0.084 OA 
HETATM    9  C   UNL     1      -8.935   4.808  68.116  1.00  0.00    -0.112 C  
BRANCH   7  10
HETATM   10  C   UNL     1      -9.342   5.455  65.750  1.00  0.00    -0.118 C  
HETATM   11  O   UNL     1      -9.285   4.491  64.989  1.00  0.00    -0.150 OA 
BRANCH  10  12
HETATM   12  N   UNL     1      -9.097   6.739  65.335  1.00  0.00    -0.355 N  
HETATM   13  H   UNL     1      -9.729   7.157  64.651  1.00  0.00     0.000 HD 
BRANCH  12  14
HETATM   14  C   UNL     1      -7.984   7.529  65.821  1.00  0.00    -0.117 C  
BRANCH  14  15
HETATM   15  C   UNL     1      -8.387   8.533  66.914  1.00  0.00    -0.109 C  
BRANCH  15  16
HETATM   16  C   UNL     1      -9.200   9.715  66.415  1.00  0.00    -0.205 A  
HETATM   17  C   UNL     1     -10.316  10.190  67.119  1.00  0.00    -0.295 A  
HETATM   18  C   UNL     1     -11.088  11.241  66.621  1.00  0.00    -0.299 A  
HETATM   19  C   UNL     1     -10.719  11.886  65.440  1.00  0.00    -0.283 A  
HETATM   20  C   UNL     1      -9.583  11.460  64.745  1.00  0.00    -0.239 A  
HETATM   21  C   UNL     1      -8.826  10.385  65.236  1.00  0.00    -0.203 A  
BRANCH  19  22
HETATM   22  S   UNL     1     -11.793  13.129  64.749  1.00  0.00    -0.394 S  
HETATM   23  O   UNL     1     -11.643  13.072  63.309  1.00  0.00    -0.446 OA 
HETATM   24  O   UNL     1     -13.103  12.999  65.350  1.00  0.00    -0.607 OA 
BRANCH  22  25
HETATM   25  N   UNL     1     -11.114  14.590  65.198  1.00  0.00    -0.348 N  
HETATM   26  H   UNL     1     -11.465  15.441  64.759  1.00  0.00     0.000 HD 
BRANCH  25  27
HETATM   27  C   UNL     1     -10.104  14.706  66.133  1.00  0.00    -0.300 C  
HETATM   28  O   UNL     1      -9.013  15.184  65.868  1.00  0.00    -0.198 OA 
BRANCH  27  29
HETATM   29  N   UNL     1     -10.421  14.243  67.389  1.00  0.00    -0.263 N  
HETATM   30  H   UNL     1      -9.810  13.585  67.872  1.00  0.00     0.000 HD 
BRANCH  29  31
HETATM   31  C   UNL     1     -11.653  14.717  68.014  1.00  0.00    -0.343 C  
HETATM   32  C   UNL     1     -12.347  13.646  68.865  1.00  0.00    -0.047 C  
HETATM   33  C   UNL     1     -11.831  13.528  70.298  1.00  0.00    -0.327 C  
HETATM   34  C   UNL     1     -11.698  14.878  71.012  1.00  0.00    -0.376 C  
HETATM   35  C   UNL     1     -10.846  15.830  70.166  1.00  0.00    -0.360 C  
HETATM   36  C   UNL     1     -13.061  15.490  71.361  1.00  0.00    -0.580 C  
HETATM   37  C   UNL     1     -11.420  16.036  68.766  1.00  0.00    -0.375 C  
ENDBRANCH  29  31
ENDBRANCH  27  29
ENDBRANCH  25  27
ENDBRANCH  22  25
ENDBRANCH  19  22
ENDBRANCH  15  16
ENDBRANCH  14  15
ENDBRANCH  12  14
ENDBRANCH  10  12
ENDBRANCH   7  10
ENDBRANCH   2   3
TORSDOF 11
ENDMDL
MODEL      166
REMARK 921   NORMALIZED FREE ENERGY PREDICTED BY IDOCK:   -4.95 KCAL/MOL
REMARK 922        TOTAL FREE ENERGY PREDICTED BY IDOCK:  -10.44 KCAL/MOL
REMARK 923 INTER-LIGAND FREE ENERGY PREDICTED BY IDOCK:   -8.26 KCAL/MOL
REMARK 924 INTRA-LIGAND FREE ENERGY PREDICTED BY IDOCK:   -2.19 KCAL/MOL
REMARK 927      BINDING AFFINITY PREDICTED BY RF-SCORE:    0.00 PKD
ROOT
HETATM    1  C   UNL     1     -12.441  15.779  72.425  1.00  0.00    -0.540 C  
HETATM    2  C   UNL     1     -13.249  15.362  71.205  1.00  0.00    -0.585 C  
ENDROOT
BRANCH   2   3
HETATM    3  C   UNL     1     -12.610  14.231  70.482  1.00  0.00    -0.418 C  
HETATM    4  C   UNL     1     -12.491  12.932  70.794  1.00  0.00    -0.370 C  
HETATM    5  C   UNL     1     -11.751  12.163  69.748  1.00  0.00    -0.310 C  
HETATM    6  C   UNL     1     -13.039  12.232  71.987  1.00  0.00    -0.461 C  
HETATM    7  N   UNL     1     -11.529  13.161  68.738  1.00  0.00    -0.285 N  
HETATM    8  O   UNL     1     -11.828  15.484  68.600  1.00  0.00    -0.362 OA 
HETATM    9  C   UNL     1     -11.957  14.411  69.167  1.00  0.00    -0.322 C  
BRANCH   7  10
HETATM   10  C   UNL     1     -11.149  12.794  67.460  1.00  0.00    -0.263 C  
HETATM   11  O   UNL     1     -10.708  13.603  66.646  1.00  0.00    -0.278 OA 
BRANCH  10  12
HETATM   12  N   UNL     1     -11.261  11.455  67.184  1.00  0.00    -0.303 N  
HETATM   13  H   UNL     1     -12.175  11.014  67.282  1.00  0.00     0.000 HD 
BRANCH  12  14
HETATM   14  C   UNL     1     -10.142  10.638  66.759  1.00  0.00    -0.224 C  
BRANCH  14  15
HETATM   15  C   UNL     1      -9.142  10.348  67.892  1.00  0.00    -0.132 C  
BRANCH  15  16
HETATM   16  C   UNL     1      -9.653   9.389  68.953  1.00  0.00    -0.155 A  
HETATM   17  C   UNL     1     -10.508   8.325  68.631  1.00  0.00    -0.199 A  
HETATM   18  C   UNL     1     -11.016   7.485  69.623  1.00  0.00    -0.164 A  
HETATM   19  C   UNL     1     -10.624   7.648  70.952  1.00  0.00    -0.213 A  
HETATM   20  C   UNL     1      -9.736   8.673  71.290  1.00  0.00    -0.305 A  
HETATM   21  C   UNL     1      -9.249   9.532  70.293  1.00  0.00    -0.303 A  
BRANCH  19  22
HETATM   22  S   UNL     1     -11.391   6.657  72.219  1.00  0.00    -0.282 S  
HETATM   23  O   UNL     1     -10.773   7.018  73.479  1.00  0.00    -0.349 OA 
HETATM   24  O   UNL     1     -12.828   6.734  72.066  1.00  0.00    -0.285 OA 
BRANCH  22  25
HETATM   25  N   UNL     1     -10.880   5.093  71.919  1.00  0.00    -0.155 N  
HETATM   26  H   UNL     1     -11.415   4.528  71.259  1.00  0.00     0.000 HD 
BRANCH  25  27
HETATM   27  C   UNL     1      -9.771   4.526  72.515  1.00  0.00    -0.151 C  
HETATM   28  O   UNL     1      -9.837   3.528  73.215  1.00  0.00    -0.111 OA 
BRANCH  27  29
HETATM   29  N   UNL     1      -8.583   5.170  72.259  1.00  0.00    -0.124 N  
HETATM   30  H   UNL     1      -8.349   6.042  72.732  1.00  0.00     0.000 HD 
BRANCH  29  31
HETATM   31  C   UNL     1      -7.663   4.573  71.293  1.00  0.00    -0.077 C  
HETATM   32  C   UNL     1      -8.361   3.644  70.292  1.00  0.00    -0.082 C  
HETATM   33  C   UNL     1      -8.964   4.343  69.076  1.00  0.00    -0.154 C  
HETATM   34  C   UNL     1      -8.010   5.343  68.411  1.00  0.00    -0.088 C  
HETATM   35  C   UNL     1      -7.495   6.339  69.455  1.00  0.00    -0.093 C  
HETATM   36  C   UNL     1      -6.862   4.648  67.669  1.00  0.00    -0.059 C  
HETATM   37  C   UNL     1      -6.793   5.647  70.622  1.00  0.00    -0.052 C  
ENDBRANCH  29  31
ENDBRANCH  27  29
ENDBRANCH  25  27
ENDBRANCH  22  25
ENDBRANCH  19  22
ENDBRANCH  15  16
ENDBRANCH  14  15
ENDBRANCH  12  14
ENDBRANCH  10  12
ENDBRANCH   7  10
ENDBRANCH   2   3
TORSDOF 11
ENDMDL
MODEL      167
REMARK 921   NORMALIZED FREE ENERGY PREDICTED BY IDOCK:   -4.95 KCAL/MOL
REMARK 922        TOTAL FREE ENERGY PREDICTED BY IDOCK:  -10.44 KCAL/MOL
REMARK 923 INTER-LIGAND FREE ENERGY PREDICTED BY IDOCK:   -8.80 KCAL/MOL
REMARK 924 INTRA-LIGAND FREE ENERGY PREDICTED BY IDOCK:   -1.64 KCAL/MOL
REMARK 927      BINDING AFFINITY PREDICTED BY RF-SCORE:    0.00 PKD
ROOT
HETATM    1  C   UNL     1     -11.423   9.306  71.670  1.00  0.00    -0.468 C  
HETATM    2  C   UNL     1      -9.976   8.843  71.741  1.00  0.00    -0.397 C  
ENDROOT
BRANCH   2   3
HETATM    3  C   UNL     1      -9.802   7.486  71.158  1.00  0.00    -0.180 C  
HETATM    4  C   UNL     1     -10.466   6.340  71.366  1.00  0.00    -0.264 C  
HETATM    5  C   UNL     1      -9.925   5.214  70.545  1.00  0.00    -0.234 C  
HETATM    6  C   UNL     1     -11.646   6.121  72.245  1.00  0.00    -0.362 C  
HETATM    7  N   UNL     1      -8.914   5.869  69.761  1.00  0.00    -0.130 N  
HETATM    8  O   UNL     1      -7.932   8.001  69.757  1.00  0.00    -0.110 OA 
HETATM    9  C   UNL     1      -8.763   7.195  70.147  1.00  0.00    -0.141 C  
BRANCH   7  10
HETATM   10  C   UNL     1      -8.381   5.251  68.644  1.00  0.00    -0.089 C  
HETATM   11  O   UNL     1      -8.083   4.059  68.631  1.00  0.00    -0.074 OA 
BRANCH  10  12
HETATM   12  N   UNL     1      -8.248   6.058  67.543  1.00  0.00    -0.106 N  
HETATM   13  H   UNL     1      -7.454   6.698  67.503  1.00  0.00     0.000 HD 
BRANCH  12  14
HETATM   14  C   UNL     1      -9.183   6.047  66.436  1.00  0.00    -0.151 C  
BRANCH  14  15
HETATM   15  C   UNL     1     -10.448   6.881  66.704  1.00  0.00    -0.213 C  
BRANCH  15  16
HETATM   16  C   UNL     1     -10.195   8.370  66.875  1.00  0.00    -0.383 A  
HETATM   17  C   UNL     1     -10.632   9.063  68.014  1.00  0.00    -0.242 A  
HETATM   18  C   UNL     1     -10.444  10.441  68.133  1.00  0.00    -0.221 A  
HETATM   19  C   UNL     1      -9.754  11.144  67.146  1.00  0.00    -0.177 A  
HETATM   20  C   UNL     1      -9.268  10.467  66.024  1.00  0.00    -0.200 A  
HETATM   21  C   UNL     1      -9.484   9.086  65.896  1.00  0.00    -0.317 A  
BRANCH  19  22
HETATM   22  S   UNL     1      -9.648  12.921  67.249  1.00  0.00    -0.227 S  
HETATM   23  O   UNL     1     -10.876  13.388  67.861  1.00  0.00    -0.238 OA 
HETATM   24  O   UNL     1      -8.369  13.279  67.821  1.00  0.00    -0.145 OA 
BRANCH  22  25
HETATM   25  N   UNL     1      -9.723  13.455  65.666  1.00  0.00    -0.481 N  
HETATM   26  H   UNL     1      -9.220  12.925  64.953  1.00  0.00     0.000 HD 
BRANCH  25  27
HETATM   27  C   UNL     1     -10.429  14.574  65.272  1.00  0.00    -0.390 C  
HETATM   28  O   UNL     1     -11.581  14.518  64.871  1.00  0.00    -0.365 OA 
BRANCH  27  29
HETATM   29  N   UNL     1      -9.739  15.759  65.367  1.00  0.00    -0.210 N  
HETATM   30  H   UNL     1      -9.517  16.302  64.533  1.00  0.00     0.000 HD 
BRANCH  29  31
HETATM   31  C   UNL     1      -9.331  16.221  66.692  1.00  0.00    -0.248 C  
HETATM   32  C   UNL     1      -7.875  16.701  66.740  1.00  0.00    -0.290 C  
HETATM   33  C   UNL     1      -7.661  18.154  66.321  1.00  0.00    -0.290 C  
HETATM   34  C   UNL     1      -8.643  19.130  66.980  1.00  0.00    -0.309 C  
HETATM   35  C   UNL     1     -10.081  18.662  66.734  1.00  0.00    -0.413 C  
HETATM   36  C   UNL     1      -8.355  19.328  68.473  1.00  0.00    -0.401 C  
HETATM   37  C   UNL     1     -10.329  17.246  67.251  1.00  0.00    -0.331 C  
ENDBRANCH  29  31
ENDBRANCH  27  29
ENDBRANCH  25  27
ENDBRANCH  22  25
ENDBRANCH  19  22
ENDBRANCH  15  16
ENDBRANCH  14  15
ENDBRANCH  12  14
ENDBRANCH  10  12
ENDBRANCH   7  10
ENDBRANCH   2   3
TORSDOF 11
ENDMDL
MODEL      168
REMARK 921   NORMALIZED FREE ENERGY PREDICTED BY IDOCK:   -4.92 KCAL/MOL
REMARK 922        TOTAL FREE ENERGY PREDICTED BY IDOCK:  -10.39 KCAL/MOL
REMARK 923 INTER-LIGAND FREE ENERGY PREDICTED BY IDOCK:   -9.51 KCAL/MOL
REMARK 924 INTRA-LIGAND FREE ENERGY PREDICTED BY IDOCK:   -0.88 KCAL/MOL
REMARK 927      BINDING AFFINITY PREDICTED BY RF-SCORE:    0.00 PKD
ROOT
HETATM    1  C   UNL     1      -6.030   2.419  70.644  1.00  0.00    -0.018 C  
HETATM    2  C   UNL     1      -7.349   2.126  71.345  1.00  0.00    -0.032 C  
ENDROOT
BRANCH   2   3
HETATM    3  C   UNL     1      -8.350   3.198  71.104  1.00  0.00    -0.086 C  
HETATM    4  C   UNL     1      -9.150   3.446  70.057  1.00  0.00    -0.199 C  
HETATM    5  C   UNL     1      -9.999   4.658  70.266  1.00  0.00    -0.239 C  
HETATM    6  C   UNL     1      -9.291   2.643  68.812  1.00  0.00    -0.230 C  
HETATM    7  N   UNL     1      -9.659   5.039  71.610  1.00  0.00    -0.151 N  
HETATM    8  O   UNL     1      -8.046   4.360  73.173  1.00  0.00    -0.093 OA 
HETATM    9  C   UNL     1      -8.635   4.243  72.110  1.00  0.00    -0.108 C  
BRANCH   7  10
HETATM   10  C   UNL     1     -10.450   5.932  72.309  1.00  0.00    -0.205 C  
HETATM   11  O   UNL     1     -10.622   5.849  73.523  1.00  0.00    -0.239 OA 
BRANCH  10  12
HETATM   12  N   UNL     1     -10.994   6.939  71.553  1.00  0.00    -0.234 N  
HETATM   13  H   UNL     1     -11.267   6.731  70.592  1.00  0.00     0.000 HD 
BRANCH  12  14
HETATM   14  C   UNL     1     -11.198   8.283  72.054  1.00  0.00    -0.323 C  
BRANCH  14  15
HETATM   15  C   UNL     1     -12.526   8.906  71.589  1.00  0.00    -0.403 C  
BRANCH  15  16
HETATM   16  C   UNL     1     -12.444  10.385  71.251  1.00  0.00    -0.521 A  
HETATM   17  C   UNL     1     -11.585  10.863  70.251  1.00  0.00    -0.426 A  
HETATM   18  C   UNL     1     -11.477  12.231  69.990  1.00  0.00    -0.133 A  
HETATM   19  C   UNL     1     -12.277  13.143  70.677  1.00  0.00    -0.321 A  
HETATM   20  C   UNL     1     -13.174  12.685  71.646  1.00  0.00    -0.394 A  
HETATM   21  C   UNL     1     -13.259  11.312  71.924  1.00  0.00    -0.491 A  
BRANCH  19  22
HETATM   22  S   UNL     1     -12.023  14.890  70.429  1.00  0.00    -0.340 S  
HETATM   23  O   UNL     1     -13.230  15.564  70.863  1.00  0.00    -0.497 OA 
HETATM   24  O   UNL     1     -10.742  15.259  70.990  1.00  0.00    -0.240 OA 
BRANCH  22  25
HETATM   25  N   UNL     1     -11.987  15.094  68.769  1.00  0.00    -0.538 N  
HETATM   26  H   UNL     1     -12.844  15.386  68.299  1.00  0.00     0.000 HD 
BRANCH  25  27
HETATM   27  C   UNL     1     -10.858  14.888  68.001  1.00  0.00    -0.263 C  
HETATM   28  O   UNL     1     -10.807  14.048  67.116  1.00  0.00    -0.281 OA 
BRANCH  27  29
HETATM   29  N   UNL     1      -9.794  15.704  68.305  1.00  0.00    -0.208 N  
HETATM   30  H   UNL     1      -9.306  15.615  69.195  1.00  0.00     0.000 HD 
BRANCH  29  31
HETATM   31  C   UNL     1      -9.379  16.701  67.320  1.00  0.00    -0.230 C  
HETATM   32  C   UNL     1     -10.437  17.784  67.078  1.00  0.00    -0.324 C  
HETATM   33  C   UNL     1     -10.403  18.949  68.065  1.00  0.00    -0.457 C  
HETATM   34  C   UNL     1      -8.997  19.515  68.294  1.00  0.00    -0.386 C  
HETATM   35  C   UNL     1      -8.044  18.386  68.698  1.00  0.00    -0.319 C  
HETATM   36  C   UNL     1      -8.477  20.293  67.079  1.00  0.00    -0.388 C  
HETATM   37  C   UNL     1      -7.992  17.268  67.659  1.00  0.00    -0.195 C  
ENDBRANCH  29  31
ENDBRANCH  27  29
ENDBRANCH  25  27
ENDBRANCH  22  25
ENDBRANCH  19  22
ENDBRANCH  15  16
ENDBRANCH  14  15
ENDBRANCH  12  14
ENDBRANCH  10  12
ENDBRANCH   7  10
ENDBRANCH   2   3
TORSDOF 11
ENDMDL
MODEL      169
REMARK 921   NORMALIZED FREE ENERGY PREDICTED BY IDOCK:   -4.90 KCAL/MOL
REMARK 922        TOTAL FREE ENERGY PREDICTED BY IDOCK:  -10.36 KCAL/MOL
REMARK 923 INTER-LIGAND FREE ENERGY PREDICTED BY IDOCK:   -9.05 KCAL/MOL
REMARK 924 INTRA-LIGAND FREE ENERGY PREDICTED BY IDOCK:   -1.31 KCAL/MOL
REMARK 927      BINDING AFFINITY PREDICTED BY RF-SCORE:    0.00 PKD
ROOT
HETATM    1  C   UNL     1      -6.347   6.292  66.020  1.00  0.00    -0.039 C  
HETATM    2  C   UNL     1      -7.685   6.571  65.350  1.00  0.00    -0.099 C  
ENDROOT
BRANCH   2   3
HETATM    3  C   UNL     1      -8.813   6.481  66.314  1.00  0.00    -0.154 C  
HETATM    4  C   UNL     1      -9.640   5.470  66.621  1.00  0.00    -0.163 C  
HETATM    5  C   UNL     1     -10.640   5.852  67.663  1.00  0.00    -0.262 C  
HETATM    6  C   UNL     1      -9.614   4.082  66.085  1.00  0.00    -0.205 C  
HETATM    7  N   UNL     1     -10.237   7.192  67.994  1.00  0.00    -0.176 N  
HETATM    8  O   UNL     1      -8.702   8.733  67.113  1.00  0.00    -0.119 OA 
HETATM    9  C   UNL     1      -9.207   7.623  67.166  1.00  0.00    -0.132 C  
BRANCH   7  10
HETATM   10  C   UNL     1     -10.707   7.804  69.142  1.00  0.00    -0.126 C  
HETATM   11  O   UNL     1     -11.503   7.256  69.902  1.00  0.00    -0.175 OA 
BRANCH  10  12
HETATM   12  N   UNL     1     -10.187   9.049  69.389  1.00  0.00    -0.198 N  
HETATM   13  H   UNL     1      -9.234   9.115  69.749  1.00  0.00     0.000 HD 
BRANCH  12  14
HETATM   14  C   UNL     1     -10.926  10.274  69.162  1.00  0.00    -0.238 C  
BRANCH  14  15
HETATM   15  C   UNL     1     -11.153  10.576  67.670  1.00  0.00    -0.375 C  
BRANCH  15  16
HETATM   16  C   UNL     1     -10.954  12.032  67.284  1.00  0.00    -0.313 A  
HETATM   17  C   UNL     1     -12.034  12.849  66.919  1.00  0.00    -0.402 A  
HETATM   18  C   UNL     1     -11.831  14.169  66.512  1.00  0.00    -0.439 A  
HETATM   19  C   UNL     1     -10.550  14.720  66.527  1.00  0.00    -0.299 A  
HETATM   20  C   UNL     1      -9.464  13.939  66.932  1.00  0.00    -0.263 A  
HETATM   21  C   UNL     1      -9.670  12.604  67.314  1.00  0.00    -0.207 A  
BRANCH  19  22
HETATM   22  S   UNL     1     -10.295  16.358  65.871  1.00  0.00    -0.341 S  
HETATM   23  O   UNL     1      -8.864  16.554  65.751  1.00  0.00    -0.474 OA 
HETATM   24  O   UNL     1     -11.153  16.539  64.720  1.00  0.00    -0.624 OA 
BRANCH  22  25
HETATM   25  N   UNL     1     -10.772  17.396  67.093  1.00  0.00    -0.250 N  
HETATM   26  H   UNL     1     -11.536  18.046  66.904  1.00  0.00     0.000 HD 
BRANCH  25  27
HETATM   27  C   UNL     1     -10.188  17.421  68.344  1.00  0.00    -0.362 C  
HETATM   28  O   UNL     1     -10.827  17.265  69.373  1.00  0.00    -0.152 OA 
BRANCH  27  29
HETATM   29  N   UNL     1      -8.829  17.631  68.344  1.00  0.00    -0.276 N  
HETATM   30  H   UNL     1      -8.182  16.860  68.181  1.00  0.00     0.000 HD 
BRANCH  29  31
HETATM   31  C   UNL     1      -8.335  18.984  68.585  1.00  0.00    -0.361 C  
HETATM   32  C   UNL     1      -6.913  19.013  69.161  1.00  0.00    -0.346 C  
HETATM   33  C   UNL     1      -5.796  18.940  68.122  1.00  0.00    -0.212 C  
HETATM   34  C   UNL     1      -5.993  19.903  66.945  1.00  0.00    -0.182 C  
HETATM   35  C   UNL     1      -7.377  19.685  66.324  1.00  0.00    -0.284 C  
HETATM   36  C   UNL     1      -5.772  21.367  67.346  1.00  0.00    -0.427 C  
HETATM   37  C   UNL     1      -8.505  19.865  67.338  1.00  0.00    -0.377 C  
ENDBRANCH  29  31
ENDBRANCH  27  29
ENDBRANCH  25  27
ENDBRANCH  22  25
ENDBRANCH  19  22
ENDBRANCH  15  16
ENDBRANCH  14  15
ENDBRANCH  12  14
ENDBRANCH  10  12
ENDBRANCH   7  10
ENDBRANCH   2   3
TORSDOF 11
ENDMDL
MODEL      170
REMARK 921   NORMALIZED FREE ENERGY PREDICTED BY IDOCK:   -4.89 KCAL/MOL
REMARK 922        TOTAL FREE ENERGY PREDICTED BY IDOCK:  -10.35 KCAL/MOL
REMARK 923 INTER-LIGAND FREE ENERGY PREDICTED BY IDOCK:   -8.86 KCAL/MOL
REMARK 924 INTRA-LIGAND FREE ENERGY PREDICTED BY IDOCK:   -1.49 KCAL/MOL
REMARK 927      BINDING AFFINITY PREDICTED BY RF-SCORE:    0.00 PKD
ROOT
HETATM    1  C   UNL     1     -12.002  11.909  63.618  1.00  0.00    -0.578 C  
HETATM    2  C   UNL     1     -12.901  12.610  64.626  1.00  0.00    -0.361 C  
ENDROOT
BRANCH   2   3
HETATM    3  C   UNL     1     -12.141  13.577  65.462  1.00  0.00    -0.454 C  
HETATM    4  C   UNL     1     -11.669  13.488  66.715  1.00  0.00    -0.430 C  
HETATM    5  C   UNL     1     -10.961  14.732  67.144  1.00  0.00    -0.320 C  
HETATM    6  C   UNL     1     -11.741  12.317  67.630  1.00  0.00    -0.403 C  
HETATM    7  N   UNL     1     -11.000  15.531  65.950  1.00  0.00    -0.300 N  
HETATM    8  O   UNL     1     -12.067  15.357  63.866  1.00  0.00    -0.547 OA 
HETATM    9  C   UNL     1     -11.753  14.912  64.959  1.00  0.00    -0.329 C  
BRANCH   7  10
HETATM   10  C   UNL     1     -10.183  16.639  65.818  1.00  0.00    -0.307 C  
HETATM   11  O   UNL     1     -10.630  17.766  65.616  1.00  0.00    -0.577 OA 
BRANCH  10  12
HETATM   12  N   UNL     1      -8.843  16.391  65.971  1.00  0.00    -0.317 N  
HETATM   13  H   UNL     1      -8.354  15.889  65.229  1.00  0.00     0.000 HD 
BRANCH  12  14
HETATM   14  C   UNL     1      -8.089  16.809  67.135  1.00  0.00    -0.183 C  
BRANCH  14  15
HETATM   15  C   UNL     1      -6.775  16.029  67.316  1.00  0.00    -0.232 C  
BRANCH  15  16
HETATM   16  C   UNL     1      -6.944  14.641  67.911  1.00  0.00    -0.172 A  
HETATM   17  C   UNL     1      -6.290  14.263  69.093  1.00  0.00    -0.104 A  
HETATM   18  C   UNL     1      -6.408  12.967  69.598  1.00  0.00    -0.089 A  
HETATM   19  C   UNL     1      -7.238  12.040  68.967  1.00  0.00    -0.053 A  
HETATM   20  C   UNL     1      -7.936  12.408  67.814  1.00  0.00    -0.156 A  
HETATM   21  C   UNL     1      -7.793  13.704  67.295  1.00  0.00    -0.109 A  
BRANCH  19  22
HETATM   22  S   UNL     1      -7.265  10.354  69.546  1.00  0.00    -0.144 S  
HETATM   23  O   UNL     1      -7.013   9.504  68.400  1.00  0.00    -0.065 OA 
HETATM   24  O   UNL     1      -6.432  10.252  70.724  1.00  0.00    -0.270 OA 
BRANCH  22  25
HETATM   25  N   UNL     1      -8.859  10.061  69.961  1.00  0.00    -0.363 N  
HETATM   26  H   UNL     1      -9.585  10.626  69.520  1.00  0.00     0.000 HD 
BRANCH  25  27
HETATM   27  C   UNL     1      -9.244   9.094  70.869  1.00  0.00    -0.261 C  
HETATM   28  O   UNL     1      -9.998   9.328  71.800  1.00  0.00    -0.273 OA 
BRANCH  27  29
HETATM   29  N   UNL     1      -8.717   7.844  70.643  1.00  0.00    -0.133 N  
HETATM   30  H   UNL     1      -7.744   7.639  70.867  1.00  0.00     0.000 HD 
BRANCH  29  31
HETATM   31  C   UNL     1      -9.586   6.816  70.073  1.00  0.00    -0.157 C  
HETATM   32  C   UNL     1     -10.830   7.392  69.386  1.00  0.00    -0.184 C  
HETATM   33  C   UNL     1     -10.623   7.823  67.935  1.00  0.00    -0.221 C  
HETATM   34  C   UNL     1      -9.891   6.777  67.087  1.00  0.00    -0.207 C  
HETATM   35  C   UNL     1      -8.576   6.386  67.768  1.00  0.00    -0.116 C  
HETATM   36  C   UNL     1     -10.765   5.553  66.789  1.00  0.00    -0.329 C  
HETATM   37  C   UNL     1      -8.789   5.851  69.182  1.00  0.00    -0.117 C  
ENDBRANCH  29  31
ENDBRANCH  27  29
ENDBRANCH  25  27
ENDBRANCH  22  25
ENDBRANCH  19  22
ENDBRANCH  15  16
ENDBRANCH  14  15
ENDBRANCH  12  14
ENDBRANCH  10  12
ENDBRANCH   7  10
ENDBRANCH   2   3
TORSDOF 11
ENDMDL
MODEL      171
REMARK 921   NORMALIZED FREE ENERGY PREDICTED BY IDOCK:   -4.86 KCAL/MOL
REMARK 922        TOTAL FREE ENERGY PREDICTED BY IDOCK:  -10.29 KCAL/MOL
REMARK 923 INTER-LIGAND FREE ENERGY PREDICTED BY IDOCK:   -9.30 KCAL/MOL
REMARK 924 INTRA-LIGAND FREE ENERGY PREDICTED BY IDOCK:   -0.99 KCAL/MOL
REMARK 927      BINDING AFFINITY PREDICTED BY RF-SCORE:    0.00 PKD
ROOT
HETATM    1  C   UNL     1      -8.018   6.370  67.969  1.00  0.00    -0.109 C  
HETATM    2  C   UNL     1      -8.896   5.191  68.360  1.00  0.00    -0.108 C  
ENDROOT
BRANCH   2   3
HETATM    3  C   UNL     1      -9.491   5.372  69.711  1.00  0.00    -0.202 C  
HETATM    4  C   UNL     1      -9.003   5.122  70.935  1.00  0.00    -0.162 C  
HETATM    5  C   UNL     1      -9.979   5.462  72.015  1.00  0.00    -0.184 C  
HETATM    6  C   UNL     1      -7.648   4.618  71.287  1.00  0.00    -0.080 C  
HETATM    7  N   UNL     1     -11.070   6.028  71.270  1.00  0.00    -0.283 N  
HETATM    8  O   UNL     1     -11.612   6.214  68.993  1.00  0.00    -0.236 OA 
HETATM    9  C   UNL     1     -10.849   5.924  69.901  1.00  0.00    -0.369 C  
BRANCH   7  10
HETATM   10  C   UNL     1     -12.055   6.759  71.910  1.00  0.00    -0.334 C  
HETATM   11  O   UNL     1     -13.176   6.304  72.128  1.00  0.00    -0.025 OA 
BRANCH  10  12
HETATM   12  N   UNL     1     -11.673   8.011  72.319  1.00  0.00    -0.347 N  
HETATM   13  H   UNL     1     -10.678   8.198  72.446  1.00  0.00     0.000 HD 
BRANCH  12  14
HETATM   14  C   UNL     1     -12.615   9.080  72.580  1.00  0.00    -0.272 C  
BRANCH  14  15
HETATM   15  C   UNL     1     -13.272   9.631  71.302  1.00  0.00    -0.429 C  
BRANCH  15  16
HETATM   16  C   UNL     1     -12.744  10.983  70.854  1.00  0.00    -0.452 A  
HETATM   17  C   UNL     1     -12.984  12.149  71.597  1.00  0.00    -0.427 A  
HETATM   18  C   UNL     1     -12.541  13.393  71.145  1.00  0.00    -0.430 A  
HETATM   19  C   UNL     1     -11.789  13.490  69.975  1.00  0.00    -0.301 A  
HETATM   20  C   UNL     1     -11.497  12.336  69.242  1.00  0.00    -0.352 A  
HETATM   21  C   UNL     1     -11.968  11.090  69.686  1.00  0.00    -0.424 A  
BRANCH  19  22
HETATM   22  S   UNL     1     -11.355  15.100  69.343  1.00  0.00    -0.317 S  
HETATM   23  O   UNL     1     -12.217  15.361  68.208  1.00  0.00    -0.074 OA 
HETATM   24  O   UNL     1     -11.302  16.034  70.446  1.00  0.00    -0.346 OA 
BRANCH  22  25
HETATM   25  N   UNL     1      -9.826  14.915  68.692  1.00  0.00    -0.219 N  
HETATM   26  H   UNL     1      -9.684  14.188  67.991  1.00  0.00     0.000 HD 
BRANCH  25  27
HETATM   27  C   UNL     1      -8.745  15.694  69.054  1.00  0.00    -0.240 C  
HETATM   28  O   UNL     1      -7.743  15.230  69.575  1.00  0.00    -0.212 OA 
BRANCH  27  29
HETATM   29  N   UNL     1      -8.879  17.035  68.780  1.00  0.00    -0.263 N  
HETATM   30  H   UNL     1      -8.527  17.738  69.428  1.00  0.00     0.000 HD 
BRANCH  29  31
HETATM   31  C   UNL     1      -9.539  17.428  67.537  1.00  0.00    -0.257 C  
HETATM   32  C   UNL     1     -10.829  18.225  67.766  1.00  0.00    -0.257 C  
HETATM   33  C   UNL     1     -10.630  19.726  67.971  1.00  0.00    -0.439 C  
HETATM   34  C   UNL     1      -9.698  20.365  66.935  1.00  0.00    -0.567 C  
HETATM   35  C   UNL     1      -8.368  19.605  66.896  1.00  0.00    -0.333 C  
HETATM   36  C   UNL     1     -10.344  20.456  65.547  1.00  0.00     0.038 C  
HETATM   37  C   UNL     1      -8.555  18.122  66.583  1.00  0.00    -0.284 C  
ENDBRANCH  29  31
ENDBRANCH  27  29
ENDBRANCH  25  27
ENDBRANCH  22  25
ENDBRANCH  19  22
ENDBRANCH  15  16
ENDBRANCH  14  15
ENDBRANCH  12  14
ENDBRANCH  10  12
ENDBRANCH   7  10
ENDBRANCH   2   3
TORSDOF 11
ENDMDL
MODEL      172
REMARK 921   NORMALIZED FREE ENERGY PREDICTED BY IDOCK:   -4.86 KCAL/MOL
REMARK 922        TOTAL FREE ENERGY PREDICTED BY IDOCK:  -10.29 KCAL/MOL
REMARK 923 INTER-LIGAND FREE ENERGY PREDICTED BY IDOCK:   -7.96 KCAL/MOL
REMARK 924 INTRA-LIGAND FREE ENERGY PREDICTED BY IDOCK:   -2.32 KCAL/MOL
REMARK 927      BINDING AFFINITY PREDICTED BY RF-SCORE:    0.00 PKD
ROOT
HETATM    1  C   UNL     1     -11.733  12.296  65.449  1.00  0.00    -0.424 C  
HETATM    2  C   UNL     1     -12.291  13.659  65.831  1.00  0.00    -0.516 C  
ENDROOT
BRANCH   2   3
HETATM    3  C   UNL     1     -11.462  14.320  66.873  1.00  0.00    -0.377 C  
HETATM    4  C   UNL     1     -11.504  14.255  68.212  1.00  0.00    -0.334 C  
HETATM    5  C   UNL     1     -10.460  15.111  68.854  1.00  0.00    -0.241 C  
HETATM    6  C   UNL     1     -12.404  13.422  69.054  1.00  0.00    -0.014 C  
HETATM    7  N   UNL     1      -9.742  15.618  67.717  1.00  0.00    -0.218 N  
HETATM    8  O   UNL     1     -10.059  15.568  65.392  1.00  0.00    -0.356 OA 
HETATM    9  C   UNL     1     -10.351  15.232  66.529  1.00  0.00    -0.286 C  
BRANCH   7  10
HETATM   10  C   UNL     1      -8.500  16.207  67.874  1.00  0.00    -0.163 C  
HETATM   11  O   UNL     1      -8.345  17.267  68.476  1.00  0.00    -0.252 OA 
BRANCH  10  12
HETATM   12  N   UNL     1      -7.452  15.497  67.345  1.00  0.00    -0.186 N  
HETATM   13  H   UNL     1      -7.024  15.835  66.483  1.00  0.00     0.000 HD 
BRANCH  12  14
HETATM   14  C   UNL     1      -6.926  14.292  67.952  1.00  0.00    -0.164 C  
BRANCH  14  15
HETATM   15  C   UNL     1      -7.394  13.006  67.247  1.00  0.00    -0.067 C  
BRANCH  15  16
HETATM   16  C   UNL     1      -7.895  11.921  68.185  1.00  0.00    -0.134 A  
HETATM   17  C   UNL     1      -9.239  11.521  68.195  1.00  0.00    -0.181 A  
HETATM   18  C   UNL     1      -9.698  10.563  69.101  1.00  0.00    -0.226 A  
HETATM   19  C   UNL     1      -8.807   9.934  69.970  1.00  0.00    -0.160 A  
HETATM   20  C   UNL     1      -7.453  10.282  69.946  1.00  0.00    -0.165 A  
HETATM   21  C   UNL     1      -7.002  11.266  69.053  1.00  0.00    -0.104 A  
BRANCH  19  22
HETATM   22  S   UNL     1      -9.435   8.819  71.211  1.00  0.00    -0.272 S  
HETATM   23  O   UNL     1      -8.483   8.812  72.303  1.00  0.00    -0.375 OA 
HETATM   24  O   UNL     1     -10.825   9.133  71.460  1.00  0.00    -0.316 OA 
BRANCH  22  25
HETATM   25  N   UNL     1      -9.320   7.296  70.528  1.00  0.00    -0.158 N  
HETATM   26  H   UNL     1      -8.393   6.883  70.422  1.00  0.00     0.000 HD 
BRANCH  25  27
HETATM   27  C   UNL     1     -10.413   6.569  70.099  1.00  0.00    -0.214 C  
HETATM   28  O   UNL     1     -10.692   5.470  70.553  1.00  0.00    -0.275 OA 
BRANCH  27  29
HETATM   29  N   UNL     1     -11.168   7.177  69.124  1.00  0.00    -0.472 N  
HETATM   30  H   UNL     1     -11.789   7.952  69.352  1.00  0.00     0.000 HD 
BRANCH  29  31
HETATM   31  C   UNL     1     -11.058   6.685  67.752  1.00  0.00    -0.242 C  
HETATM   32  C   UNL     1     -10.523   7.740  66.776  1.00  0.00    -0.318 C  
HETATM   33  C   UNL     1      -9.001   7.846  66.712  1.00  0.00    -0.169 C  
HETATM   34  C   UNL     1      -8.300   6.489  66.582  1.00  0.00    -0.113 C  
HETATM   35  C   UNL     1      -8.769   5.554  67.702  1.00  0.00    -0.107 C  
HETATM   36  C   UNL     1      -8.496   5.862  65.196  1.00  0.00    -0.130 C  
HETATM   37  C   UNL     1     -10.283   5.360  67.701  1.00  0.00    -0.236 C  
ENDBRANCH  29  31
ENDBRANCH  27  29
ENDBRANCH  25  27
ENDBRANCH  22  25
ENDBRANCH  19  22
ENDBRANCH  15  16
ENDBRANCH  14  15
ENDBRANCH  12  14
ENDBRANCH  10  12
ENDBRANCH   7  10
ENDBRANCH   2   3
TORSDOF 11
ENDMDL
MODEL      173
REMARK 921   NORMALIZED FREE ENERGY PREDICTED BY IDOCK:   -4.86 KCAL/MOL
REMARK 922        TOTAL FREE ENERGY PREDICTED BY IDOCK:  -10.28 KCAL/MOL
REMARK 923 INTER-LIGAND FREE ENERGY PREDICTED BY IDOCK:   -9.38 KCAL/MOL
REMARK 924 INTRA-LIGAND FREE ENERGY PREDICTED BY IDOCK:   -0.91 KCAL/MOL
REMARK 927      BINDING AFFINITY PREDICTED BY RF-SCORE:    0.00 PKD
ROOT
HETATM    1  C   UNL     1      -8.747   5.721  65.624  1.00  0.00    -0.151 C  
HETATM    2  C   UNL     1      -8.242   7.021  66.231  1.00  0.00    -0.120 C  
ENDROOT
BRANCH   2   3
HETATM    3  C   UNL     1      -8.181   8.112  65.223  1.00  0.00    -0.150 C  
HETATM    4  C   UNL     1      -7.331   8.338  64.211  1.00  0.00    -0.093 C  
HETATM    5  C   UNL     1      -7.667   9.584  63.457  1.00  0.00    -0.123 C  
HETATM    6  C   UNL     1      -6.193   7.486  63.774  1.00  0.00    -0.053 C  
HETATM    7  N   UNL     1      -8.877  10.013  64.102  1.00  0.00    -0.201 N  
HETATM    8  O   UNL     1     -10.066   9.354  66.016  1.00  0.00    -0.300 OA 
HETATM    9  C   UNL     1      -9.172   9.210  65.197  1.00  0.00    -0.153 C  
BRANCH   7  10
HETATM   10  C   UNL     1      -9.692  10.961  63.510  1.00  0.00    -0.342 C  
HETATM   11  O   UNL     1      -9.301  11.691  62.601  1.00  0.00    -0.330 OA 
BRANCH  10  12
HETATM   12  N   UNL     1     -10.978  10.996  63.984  1.00  0.00    -0.437 N  
HETATM   13  H   UNL     1     -11.198  10.472  64.831  1.00  0.00     0.000 HD 
BRANCH  12  14
HETATM   14  C   UNL     1     -12.040  11.742  63.338  1.00  0.00    -0.340 C  
BRANCH  14  15
HETATM   15  C   UNL     1     -12.947  12.485  64.334  1.00  0.00    -0.248 C  
BRANCH  15  16
HETATM   16  C   UNL     1     -12.290  13.670  65.022  1.00  0.00    -0.462 A  
HETATM   17  C   UNL     1     -11.836  14.782  64.296  1.00  0.00    -0.335 A  
HETATM   18  C   UNL     1     -11.183  15.838  64.934  1.00  0.00    -0.358 A  
HETATM   19  C   UNL     1     -11.031  15.837  66.320  1.00  0.00    -0.163 A  
HETATM   20  C   UNL     1     -11.517  14.761  67.069  1.00  0.00    -0.362 A  
HETATM   21  C   UNL     1     -12.149  13.689  66.421  1.00  0.00    -0.478 A  
BRANCH  19  22
HETATM   22  S   UNL     1     -10.073  17.124  67.097  1.00  0.00    -0.303 S  
HETATM   23  O   UNL     1      -9.381  17.838  66.043  1.00  0.00    -0.501 OA 
HETATM   24  O   UNL     1     -10.919  17.839  68.026  1.00  0.00    -0.297 OA 
BRANCH  22  25
HETATM   25  N   UNL     1      -8.869  16.323  67.939  1.00  0.00    -0.182 N  
HETATM   26  H   UNL     1      -7.992  16.127  67.457  1.00  0.00     0.000 HD 
BRANCH  25  27
HETATM   27  C   UNL     1      -9.001  15.915  69.251  1.00  0.00    -0.251 C  
HETATM   28  O   UNL     1      -8.060  15.498  69.909  1.00  0.00    -0.114 OA 
BRANCH  27  29
HETATM   29  N   UNL     1     -10.273  16.014  69.765  1.00  0.00    -0.263 N  
HETATM   30  H   UNL     1     -10.878  16.795  69.512  1.00  0.00     0.000 HD 
BRANCH  29  31
HETATM   31  C   UNL     1     -10.736  14.974  70.681  1.00  0.00    -0.030 C  
HETATM   32  C   UNL     1     -11.052  15.505  72.084  1.00  0.00    -0.095 C  
HETATM   33  C   UNL     1     -12.456  16.083  72.252  1.00  0.00    -0.536 C  
HETATM   34  C   UNL     1     -13.559  15.184  71.682  1.00  0.00    -0.560 C  
HETATM   35  C   UNL     1     -13.244  14.843  70.221  1.00  0.00     0.005 C  
HETATM   36  C   UNL     1     -13.779  13.924  72.527  1.00  0.00    -0.665 C  
HETATM   37  C   UNL     1     -11.885  14.165  70.062  1.00  0.00    -0.388 C  
ENDBRANCH  29  31
ENDBRANCH  27  29
ENDBRANCH  25  27
ENDBRANCH  22  25
ENDBRANCH  19  22
ENDBRANCH  15  16
ENDBRANCH  14  15
ENDBRANCH  12  14
ENDBRANCH  10  12
ENDBRANCH   7  10
ENDBRANCH   2   3
TORSDOF 11
ENDMDL
MODEL      174
REMARK 921   NORMALIZED FREE ENERGY PREDICTED BY IDOCK:   -4.83 KCAL/MOL
REMARK 922        TOTAL FREE ENERGY PREDICTED BY IDOCK:  -10.24 KCAL/MOL
REMARK 923 INTER-LIGAND FREE ENERGY PREDICTED BY IDOCK:   -7.88 KCAL/MOL
REMARK 924 INTRA-LIGAND FREE ENERGY PREDICTED BY IDOCK:   -2.36 KCAL/MOL
REMARK 927      BINDING AFFINITY PREDICTED BY RF-SCORE:    0.00 PKD
ROOT
HETATM    1  C   UNL     1      -7.095  14.987  69.485  1.00  0.00    -0.192 C  
HETATM    2  C   UNL     1      -8.138  14.053  68.890  1.00  0.00    -0.001 C  
ENDROOT
BRANCH   2   3
HETATM    3  C   UNL     1      -9.262  14.806  68.272  1.00  0.00    -0.187 C  
HETATM    4  C   UNL     1     -10.334  15.403  68.813  1.00  0.00    -0.229 C  
HETATM    5  C   UNL     1     -11.208  16.042  67.783  1.00  0.00    -0.231 C  
HETATM    6  C   UNL     1     -10.676  15.519  70.257  1.00  0.00    -0.352 C  
HETATM    7  N   UNL     1     -10.464  15.819  66.574  1.00  0.00    -0.299 N  
HETATM    8  O   UNL     1      -8.560  14.575  65.997  1.00  0.00     0.333 OA 
HETATM    9  C   UNL     1      -9.346  15.029  66.813  1.00  0.00    -0.251 C  
BRANCH   7  10
HETATM   10  C   UNL     1     -10.767  16.523  65.422  1.00  0.00    -0.259 C  
HETATM   11  O   UNL     1     -10.637  17.743  65.343  1.00  0.00    -0.659 OA 
BRANCH  10  12
HETATM   12  N   UNL     1     -11.183  15.754  64.366  1.00  0.00    -0.756 N  
HETATM   13  H   UNL     1     -10.703  15.857  63.471  1.00  0.00     0.000 HD 
BRANCH  12  14
HETATM   14  C   UNL     1     -12.271  14.802  64.460  1.00  0.00    -0.428 C  
BRANCH  14  15
HETATM   15  C   UNL     1     -11.874  13.385  64.012  1.00  0.00    -0.498 C  
BRANCH  15  16
HETATM   16  C   UNL     1     -11.314  12.508  65.120  1.00  0.00    -0.352 A  
HETATM   17  C   UNL     1     -10.201  11.681  64.909  1.00  0.00    -0.315 A  
HETATM   18  C   UNL     1      -9.730  10.838  65.918  1.00  0.00    -0.272 A  
HETATM   19  C   UNL     1     -10.321  10.856  67.181  1.00  0.00    -0.220 A  
HETATM   20  C   UNL     1     -11.402  11.707  67.428  1.00  0.00    -0.367 A  
HETATM   21  C   UNL     1     -11.888  12.532  66.403  1.00  0.00    -0.445 A  
BRANCH  19  22
HETATM   22  S   UNL     1      -9.797   9.674  68.409  1.00  0.00    -0.158 S  
HETATM   23  O   UNL     1      -8.572  10.180  68.995  1.00  0.00    -0.135 OA 
HETATM   24  O   UNL     1     -10.926   9.346  69.252  1.00  0.00    -0.208 OA 
BRANCH  22  25
HETATM   25  N   UNL     1      -9.335   8.321  67.542  1.00  0.00    -0.139 N  
HETATM   26  H   UNL     1      -9.610   8.257  66.561  1.00  0.00     0.000 HD 
BRANCH  25  27
HETATM   27  C   UNL     1      -8.599   7.284  68.082  1.00  0.00    -0.122 C  
HETATM   28  O   UNL     1      -8.599   7.028  69.276  1.00  0.00    -0.134 OA 
BRANCH  27  29
HETATM   29  N   UNL     1      -7.867   6.558  67.172  1.00  0.00    -0.107 N  
HETATM   30  H   UNL     1      -7.188   7.015  66.565  1.00  0.00     0.000 HD 
BRANCH  29  31
HETATM   31  C   UNL     1      -8.085   5.115  67.097  1.00  0.00    -0.104 C  
HETATM   32  C   UNL     1      -9.567   4.736  66.991  1.00  0.00    -0.187 C  
HETATM   33  C   UNL     1     -10.136   4.754  65.574  1.00  0.00    -0.160 C  
HETATM   34  C   UNL     1      -9.251   4.033  64.551  1.00  0.00    -0.151 C  
HETATM   35  C   UNL     1      -7.828   4.596  64.610  1.00  0.00    -0.087 C  
HETATM   36  C   UNL     1      -9.270   2.510  64.734  1.00  0.00    -0.137 C  
HETATM   37  C   UNL     1      -7.213   4.480  66.003  1.00  0.00    -0.076 C  
ENDBRANCH  29  31
ENDBRANCH  27  29
ENDBRANCH  25  27
ENDBRANCH  22  25
ENDBRANCH  19  22
ENDBRANCH  15  16
ENDBRANCH  14  15
ENDBRANCH  12  14
ENDBRANCH  10  12
ENDBRANCH   7  10
ENDBRANCH   2   3
TORSDOF 11
ENDMDL
MODEL      175
REMARK 921   NORMALIZED FREE ENERGY PREDICTED BY IDOCK:   -4.82 KCAL/MOL
REMARK 922        TOTAL FREE ENERGY PREDICTED BY IDOCK:  -10.23 KCAL/MOL
REMARK 923 INTER-LIGAND FREE ENERGY PREDICTED BY IDOCK:   -8.83 KCAL/MOL
REMARK 924 INTRA-LIGAND FREE ENERGY PREDICTED BY IDOCK:   -1.41 KCAL/MOL
REMARK 927      BINDING AFFINITY PREDICTED BY RF-SCORE:    0.00 PKD
ROOT
HETATM    1  C   UNL     1     -10.512   4.247  64.955  1.00  0.00    -0.176 C  
HETATM    2  C   UNL     1      -9.937   4.940  66.181  1.00  0.00    -0.252 C  
ENDROOT
BRANCH   2   3
HETATM    3  C   UNL     1      -8.992   6.025  65.808  1.00  0.00    -0.116 C  
HETATM    4  C   UNL     1      -7.855   6.006  65.097  1.00  0.00    -0.109 C  
HETATM    5  C   UNL     1      -7.233   7.360  64.985  1.00  0.00    -0.067 C  
HETATM    6  C   UNL     1      -7.231   4.840  64.415  1.00  0.00    -0.055 C  
HETATM    7  N   UNL     1      -8.199   8.194  65.646  1.00  0.00    -0.125 N  
HETATM    8  O   UNL     1     -10.134   7.810  66.919  1.00  0.00    -0.236 OA 
HETATM    9  C   UNL     1      -9.215   7.431  66.209  1.00  0.00    -0.135 C  
BRANCH   7  10
HETATM   10  C   UNL     1      -8.163   9.568  65.495  1.00  0.00    -0.125 C  
HETATM   11  O   UNL     1      -7.883  10.325  66.421  1.00  0.00    -0.111 OA 
BRANCH  10  12
HETATM   12  N   UNL     1      -8.422  10.017  64.225  1.00  0.00    -0.162 N  
HETATM   13  H   UNL     1      -7.639  10.135  63.582  1.00  0.00     0.000 HD 
BRANCH  12  14
HETATM   14  C   UNL     1      -9.756  10.333  63.754  1.00  0.00    -0.235 C  
BRANCH  14  15
HETATM   15  C   UNL     1     -10.057  11.842  63.759  1.00  0.00    -0.421 C  
BRANCH  15  16
HETATM   16  C   UNL     1     -10.485  12.395  65.107  1.00  0.00    -0.321 A  
HETATM   17  C   UNL     1     -10.304  13.746  65.439  1.00  0.00    -0.347 A  
HETATM   18  C   UNL     1     -10.650  14.229  66.702  1.00  0.00    -0.278 A  
HETATM   19  C   UNL     1     -11.248  13.385  67.638  1.00  0.00    -0.276 A  
HETATM   20  C   UNL     1     -11.481  12.046  67.314  1.00  0.00    -0.403 A  
HETATM   21  C   UNL     1     -11.107  11.559  66.052  1.00  0.00    -0.289 A  
BRANCH  19  22
HETATM   22  S   UNL     1     -11.552  13.986  69.289  1.00  0.00    -0.329 S  
HETATM   23  O   UNL     1     -10.410  14.794  69.668  1.00  0.00    -0.172 OA 
HETATM   24  O   UNL     1     -12.887  14.541  69.345  1.00  0.00     0.074 OA 
BRANCH  22  25
HETATM   25  N   UNL     1     -11.468  12.632  70.267  1.00  0.00    -0.487 N  
HETATM   26  H   UNL     1     -10.573  12.148  70.347  1.00  0.00     0.000 HD 
BRANCH  25  27
HETATM   27  C   UNL     1     -12.545  12.134  70.973  1.00  0.00    -0.263 C  
HETATM   28  O   UNL     1     -13.229  12.829  71.709  1.00  0.00    -0.429 OA 
BRANCH  27  29
HETATM   29  N   UNL     1     -12.794  10.795  70.783  1.00  0.00    -0.341 N  
HETATM   30  H   UNL     1     -13.296  10.470  69.957  1.00  0.00     0.000 HD 
BRANCH  29  31
HETATM   31  C   UNL     1     -12.324   9.850  71.794  1.00  0.00    -0.368 C  
HETATM   32  C   UNL     1     -13.401   8.850  72.230  1.00  0.00    -0.497 C  
HETATM   33  C   UNL     1     -13.533   7.616  71.340  1.00  0.00    -0.351 C  
HETATM   34  C   UNL     1     -12.190   6.955  71.009  1.00  0.00    -0.427 C  
HETATM   35  C   UNL     1     -11.232   7.995  70.419  1.00  0.00    -0.230 C  
HETATM   36  C   UNL     1     -11.579   6.239  72.220  1.00  0.00    -0.355 C  
HETATM   37  C   UNL     1     -11.012   9.181  71.356  1.00  0.00    -0.414 C  
ENDBRANCH  29  31
ENDBRANCH  27  29
ENDBRANCH  25  27
ENDBRANCH  22  25
ENDBRANCH  19  22
ENDBRANCH  15  16
ENDBRANCH  14  15
ENDBRANCH  12  14
ENDBRANCH  10  12
ENDBRANCH   7  10
ENDBRANCH   2   3
TORSDOF 11
ENDMDL
MODEL      176
REMARK 921   NORMALIZED FREE ENERGY PREDICTED BY IDOCK:   -4.81 KCAL/MOL
REMARK 922        TOTAL FREE ENERGY PREDICTED BY IDOCK:  -10.22 KCAL/MOL
REMARK 923 INTER-LIGAND FREE ENERGY PREDICTED BY IDOCK:   -8.75 KCAL/MOL
REMARK 924 INTRA-LIGAND FREE ENERGY PREDICTED BY IDOCK:   -1.47 KCAL/MOL
REMARK 927      BINDING AFFINITY PREDICTED BY RF-SCORE:    0.00 PKD
ROOT
HETATM    1  C   UNL     1      -9.645   5.386  66.877  1.00  0.00    -0.150 C  
HETATM    2  C   UNL     1      -8.714   6.468  67.403  1.00  0.00    -0.117 C  
ENDROOT
BRANCH   2   3
HETATM    3  C   UNL     1      -8.204   7.335  66.308  1.00  0.00    -0.123 C  
HETATM    4  C   UNL     1      -7.078   7.278  65.582  1.00  0.00    -0.065 C  
HETATM    5  C   UNL     1      -6.992   8.385  64.582  1.00  0.00    -0.073 C  
HETATM    6  C   UNL     1      -6.007   6.248  65.649  1.00  0.00    -0.025 C  
HETATM    7  N   UNL     1      -8.255   9.048  64.753  1.00  0.00    -0.151 N  
HETATM    8  O   UNL     1     -10.023   8.889  66.288  1.00  0.00    -0.282 OA 
HETATM    9  C   UNL     1      -8.967   8.502  65.814  1.00  0.00    -0.182 C  
BRANCH   7  10
HETATM   10  C   UNL     1      -8.714   9.943  63.803  1.00  0.00    -0.213 C  
HETATM   11  O   UNL     1      -8.273   9.969  62.656  1.00  0.00    -0.128 OA 
BRANCH  10  12
HETATM   12  N   UNL     1      -9.725  10.767  64.225  1.00  0.00    -0.273 N  
HETATM   13  H   UNL     1     -10.044  10.690  65.191  1.00  0.00     0.000 HD 
BRANCH  12  14
HETATM   14  C   UNL     1     -10.362  11.743  63.364  1.00  0.00    -0.439 C  
BRANCH  14  15
HETATM   15  C   UNL     1     -11.766  12.149  63.846  1.00  0.00    -0.546 C  
BRANCH  15  16
HETATM   16  C   UNL     1     -11.796  12.814  65.211  1.00  0.00    -0.442 A  
HETATM   17  C   UNL     1     -11.965  14.199  65.350  1.00  0.00    -0.382 A  
HETATM   18  C   UNL     1     -11.934  14.806  66.607  1.00  0.00    -0.199 A  
HETATM   19  C   UNL     1     -11.801  14.030  67.759  1.00  0.00    -0.384 A  
HETATM   20  C   UNL     1     -11.678  12.642  67.648  1.00  0.00    -0.420 A  
HETATM   21  C   UNL     1     -11.682  12.040  66.380  1.00  0.00    -0.326 A  
BRANCH  19  22
HETATM   22  S   UNL     1     -11.623  14.834  69.340  1.00  0.00    -0.330 S  
HETATM   23  O   UNL     1     -11.797  16.255  69.120  1.00  0.00    -0.249 OA 
HETATM   24  O   UNL     1     -12.443  14.141  70.310  1.00  0.00    -0.342 OA 
BRANCH  22  25
HETATM   25  N   UNL     1     -10.009  14.653  69.741  1.00  0.00    -0.425 N  
HETATM   26  H   UNL     1      -9.770  14.477  70.717  1.00  0.00     0.000 HD 
BRANCH  25  27
HETATM   27  C   UNL     1      -8.982  14.728  68.820  1.00  0.00    -0.179 C  
HETATM   28  O   UNL     1      -8.087  13.900  68.762  1.00  0.00    -0.126 OA 
BRANCH  27  29
HETATM   29  N   UNL     1      -9.044  15.807  67.970  1.00  0.00    -0.186 N  
HETATM   30  H   UNL     1      -9.598  15.766  67.115  1.00  0.00     0.000 HD 
BRANCH  29  31
HETATM   31  C   UNL     1      -8.298  17.013  68.321  1.00  0.00    -0.228 C  
HETATM   32  C   UNL     1      -6.968  17.138  67.568  1.00  0.00    -0.172 C  
HETATM   33  C   UNL     1      -7.068  17.773  66.183  1.00  0.00    -0.347 C  
HETATM   34  C   UNL     1      -7.901  19.060  66.160  1.00  0.00    -0.283 C  
HETATM   35  C   UNL     1      -9.278  18.796  66.778  1.00  0.00    -0.321 C  
HETATM   36  C   UNL     1      -7.183  20.230  66.843  1.00  0.00    -0.316 C  
HETATM   37  C   UNL     1      -9.183  18.264  68.206  1.00  0.00    -0.322 C  
ENDBRANCH  29  31
ENDBRANCH  27  29
ENDBRANCH  25  27
ENDBRANCH  22  25
ENDBRANCH  19  22
ENDBRANCH  15  16
ENDBRANCH  14  15
ENDBRANCH  12  14
ENDBRANCH  10  12
ENDBRANCH   7  10
ENDBRANCH   2   3
TORSDOF 11
ENDMDL
MODEL      177
REMARK 921   NORMALIZED FREE ENERGY PREDICTED BY IDOCK:   -4.81 KCAL/MOL
REMARK 922        TOTAL FREE ENERGY PREDICTED BY IDOCK:  -10.21 KCAL/MOL
REMARK 923 INTER-LIGAND FREE ENERGY PREDICTED BY IDOCK:   -7.76 KCAL/MOL
REMARK 924 INTRA-LIGAND FREE ENERGY PREDICTED BY IDOCK:   -2.45 KCAL/MOL
REMARK 927      BINDING AFFINITY PREDICTED BY RF-SCORE:    0.00 PKD
ROOT
HETATM    1  C   UNL     1     -12.555   9.349  71.114  1.00  0.00    -0.357 C  
HETATM    2  C   UNL     1     -11.474   8.854  72.063  1.00  0.00    -0.431 C  
ENDROOT
BRANCH   2   3
HETATM    3  C   UNL     1     -10.504   7.961  71.374  1.00  0.00    -0.242 C  
HETATM    4  C   UNL     1      -9.425   8.232  70.625  1.00  0.00    -0.181 C  
HETATM    5  C   UNL     1      -8.752   6.993  70.130  1.00  0.00    -0.141 C  
HETATM    6  C   UNL     1      -8.852   9.569  70.310  1.00  0.00    -0.281 C  
HETATM    7  N   UNL     1      -9.523   5.957  70.760  1.00  0.00    -0.163 N  
HETATM    8  O   UNL     1     -11.515   5.885  71.999  1.00  0.00    -0.286 OA 
HETATM    9  C   UNL     1     -10.611   6.488  71.442  1.00  0.00    -0.228 C  
BRANCH   7  10
HETATM   10  C   UNL     1      -9.045   4.660  70.816  1.00  0.00    -0.130 C  
HETATM   11  O   UNL     1      -8.974   4.030  71.869  1.00  0.00    -0.112 OA 
BRANCH  10  12
HETATM   12  N   UNL     1      -8.695   4.119  69.605  1.00  0.00    -0.075 N  
HETATM   13  H   UNL     1      -7.729   4.214  69.292  1.00  0.00     0.000 HD 
BRANCH  12  14
HETATM   14  C   UNL     1      -9.633   3.419  68.751  1.00  0.00    -0.050 C  
BRANCH  14  15
HETATM   15  C   UNL     1      -9.482   3.782  67.263  1.00  0.00    -0.238 C  
BRANCH  15  16
HETATM   16  C   UNL     1      -9.487   5.273  66.974  1.00  0.00    -0.137 A  
HETATM   17  C   UNL     1     -10.614   6.068  67.234  1.00  0.00    -0.367 A  
HETATM   18  C   UNL     1     -10.626   7.426  66.911  1.00  0.00    -0.375 A  
HETATM   19  C   UNL     1      -9.486   8.034  66.385  1.00  0.00    -0.201 A  
HETATM   20  C   UNL     1      -8.336   7.271  66.161  1.00  0.00    -0.133 A  
HETATM   21  C   UNL     1      -8.338   5.901  66.461  1.00  0.00    -0.112 A  
BRANCH  19  22
HETATM   22  S   UNL     1      -9.568   9.732  65.850  1.00  0.00    -0.269 S  
HETATM   23  O   UNL     1      -9.746   9.721  64.412  1.00  0.00    -0.213 OA 
HETATM   24  O   UNL     1     -10.505  10.442  66.693  1.00  0.00    -0.240 OA 
BRANCH  22  25
HETATM   25  N   UNL     1      -8.028  10.340  66.091  1.00  0.00    -0.126 N  
HETATM   26  H   UNL     1      -7.246   9.864  65.641  1.00  0.00     0.000 HD 
BRANCH  25  27
HETATM   27  C   UNL     1      -7.760  11.451  66.866  1.00  0.00    -0.155 C  
HETATM   28  O   UNL     1      -6.955  11.435  67.784  1.00  0.00    -0.071 OA 
BRANCH  27  29
HETATM   29  N   UNL     1      -8.467  12.580  66.525  1.00  0.00    -0.413 N  
HETATM   30  H   UNL     1      -8.789  12.724  65.569  1.00  0.00     0.000 HD 
BRANCH  29  31
HETATM   31  C   UNL     1      -8.746  13.567  67.566  1.00  0.00    -0.208 C  
HETATM   32  C   UNL     1      -8.660  15.013  67.062  1.00  0.00    -0.266 C  
HETATM   33  C   UNL     1      -9.936  15.545  66.412  1.00  0.00    -0.300 C  
HETATM   34  C   UNL     1     -11.201  15.261  67.230  1.00  0.00    -0.306 C  
HETATM   35  C   UNL     1     -11.291  13.763  67.541  1.00  0.00    -0.334 C  
HETATM   36  C   UNL     1     -11.277  16.114  68.502  1.00  0.00    -0.365 C  
HETATM   37  C   UNL     1     -10.063  13.250  68.289  1.00  0.00    -0.250 C  
ENDBRANCH  29  31
ENDBRANCH  27  29
ENDBRANCH  25  27
ENDBRANCH  22  25
ENDBRANCH  19  22
ENDBRANCH  15  16
ENDBRANCH  14  15
ENDBRANCH  12  14
ENDBRANCH  10  12
ENDBRANCH   7  10
ENDBRANCH   2   3
TORSDOF 11
ENDMDL
MODEL      178
REMARK 921   NORMALIZED FREE ENERGY PREDICTED BY IDOCK:   -4.80 KCAL/MOL
REMARK 922        TOTAL FREE ENERGY PREDICTED BY IDOCK:  -10.20 KCAL/MOL
REMARK 923 INTER-LIGAND FREE ENERGY PREDICTED BY IDOCK:   -8.77 KCAL/MOL
REMARK 924 INTRA-LIGAND FREE ENERGY PREDICTED BY IDOCK:   -1.43 KCAL/MOL
REMARK 927      BINDING AFFINITY PREDICTED BY RF-SCORE:    0.00 PKD
ROOT
HETATM    1  C   UNL     1      -5.201  18.266  64.577  1.00  0.00    -0.021 C  
HETATM    2  C   UNL     1      -5.624  18.125  66.032  1.00  0.00    -0.222 C  
ENDROOT
BRANCH   2   3
HETATM    3  C   UNL     1      -7.077  18.386  66.210  1.00  0.00    -0.287 C  
HETATM    4  C   UNL     1      -7.757  19.528  66.393  1.00  0.00    -0.307 C  
HETATM    5  C   UNL     1      -9.227  19.297  66.530  1.00  0.00    -0.350 C  
HETATM    6  C   UNL     1      -7.215  20.914  66.417  1.00  0.00    -0.084 C  
HETATM    7  N   UNL     1      -9.333  17.880  66.316  1.00  0.00    -0.240 N  
HETATM    8  O   UNL     1      -7.806  16.110  66.106  1.00  0.00    -0.159 OA 
HETATM    9  C   UNL     1      -8.077  17.297  66.196  1.00  0.00    -0.237 C  
BRANCH   7  10
HETATM   10  C   UNL     1     -10.560  17.299  66.049  1.00  0.00    -0.217 C  
HETATM   11  O   UNL     1     -10.956  17.094  64.904  1.00  0.00    -0.743 OA 
BRANCH  10  12
HETATM   12  N   UNL     1     -11.279  16.932  67.157  1.00  0.00     0.162 N  
HETATM   13  H   UNL     1     -12.064  17.519  67.443  1.00  0.00     0.000 HD 
BRANCH  12  14
HETATM   14  C   UNL     1     -10.978  15.751  67.941  1.00  0.00    -0.324 C  
BRANCH  14  15
HETATM   15  C   UNL     1     -11.623  14.472  67.378  1.00  0.00    -0.406 C  
BRANCH  15  16
HETATM   16  C   UNL     1     -11.823  13.365  68.399  1.00  0.00    -0.401 A  
HETATM   17  C   UNL     1     -12.220  13.643  69.715  1.00  0.00    -0.350 A  
HETATM   18  C   UNL     1     -12.345  12.623  70.660  1.00  0.00    -0.375 A  
HETATM   19  C   UNL     1     -12.142  11.293  70.289  1.00  0.00    -0.373 A  
HETATM   20  C   UNL     1     -11.790  10.988  68.972  1.00  0.00    -0.399 A  
HETATM   21  C   UNL     1     -11.639  12.020  68.033  1.00  0.00    -0.407 A  
BRANCH  19  22
HETATM   22  S   UNL     1     -12.168  10.023  71.540  1.00  0.00    -0.382 S  
HETATM   23  O   UNL     1     -10.792   9.667  71.818  1.00  0.00    -0.210 OA 
HETATM   24  O   UNL     1     -13.042  10.444  72.613  1.00  0.00     0.048 OA 
BRANCH  22  25
HETATM   25  N   UNL     1     -12.818   8.680  70.783  1.00  0.00    -0.425 N  
HETATM   26  H   UNL     1     -13.781   8.733  70.448  1.00  0.00     0.000 HD 
BRANCH  25  27
HETATM   27  C   UNL     1     -12.122   7.504  70.587  1.00  0.00    -0.087 C  
HETATM   28  O   UNL     1     -12.384   6.475  71.190  1.00  0.00    -0.305 OA 
BRANCH  27  29
HETATM   29  N   UNL     1     -11.111   7.577  69.658  1.00  0.00    -0.429 N  
HETATM   30  H   UNL     1     -10.798   8.477  69.297  1.00  0.00     0.000 HD 
BRANCH  29  31
HETATM   31  C   UNL     1     -10.495   6.333  69.202  1.00  0.00    -0.239 C  
HETATM   32  C   UNL     1     -10.580   6.142  67.682  1.00  0.00    -0.340 C  
HETATM   33  C   UNL     1      -9.468   6.821  66.885  1.00  0.00    -0.189 C  
HETATM   34  C   UNL     1      -8.067   6.564  67.451  1.00  0.00    -0.121 C  
HETATM   35  C   UNL     1      -8.030   6.945  68.935  1.00  0.00    -0.116 C  
HETATM   36  C   UNL     1      -7.600   5.122  67.220  1.00  0.00    -0.091 C  
HETATM   37  C   UNL     1      -9.070   6.185  69.756  1.00  0.00    -0.144 C  
ENDBRANCH  29  31
ENDBRANCH  27  29
ENDBRANCH  25  27
ENDBRANCH  22  25
ENDBRANCH  19  22
ENDBRANCH  15  16
ENDBRANCH  14  15
ENDBRANCH  12  14
ENDBRANCH  10  12
ENDBRANCH   7  10
ENDBRANCH   2   3
TORSDOF 11
ENDMDL
MODEL      179
REMARK 921   NORMALIZED FREE ENERGY PREDICTED BY IDOCK:   -4.78 KCAL/MOL
REMARK 922        TOTAL FREE ENERGY PREDICTED BY IDOCK:  -10.17 KCAL/MOL
REMARK 923 INTER-LIGAND FREE ENERGY PREDICTED BY IDOCK:   -8.38 KCAL/MOL
REMARK 924 INTRA-LIGAND FREE ENERGY PREDICTED BY IDOCK:   -1.79 KCAL/MOL
REMARK 927      BINDING AFFINITY PREDICTED BY RF-SCORE:    0.00 PKD
ROOT
HETATM    1  C   UNL     1      -7.084  14.021  68.946  1.00  0.00    -0.111 C  
HETATM    2  C   UNL     1      -7.040  13.467  67.529  1.00  0.00    -0.159 C  
ENDROOT
BRANCH   2   3
HETATM    3  C   UNL     1      -6.985  11.981  67.521  1.00  0.00    -0.130 C  
HETATM    4  C   UNL     1      -6.221  11.126  66.827  1.00  0.00    -0.122 C  
HETATM    5  C   UNL     1      -6.528   9.699  67.151  1.00  0.00    -0.070 C  
HETATM    6  C   UNL     1      -5.133  11.454  65.867  1.00  0.00     0.036 C  
HETATM    7  N   UNL     1      -7.511   9.829  68.191  1.00  0.00    -0.081 N  
HETATM    8  O   UNL     1      -8.728  11.609  69.117  1.00  0.00     0.116 OA 
HETATM    9  C   UNL     1      -7.860  11.160  68.386  1.00  0.00    -0.133 C  
BRANCH   7  10
HETATM   10  C   UNL     1      -7.836   8.748  68.990  1.00  0.00    -0.096 C  
HETATM   11  O   UNL     1      -7.016   7.885  69.296  1.00  0.00    -0.054 OA 
BRANCH  10  12
HETATM   12  N   UNL     1      -9.129   8.734  69.447  1.00  0.00    -0.144 N  
HETATM   13  H   UNL     1      -9.387   9.380  70.195  1.00  0.00     0.000 HD 
BRANCH  12  14
HETATM   14  C   UNL     1     -10.146   7.847  68.920  1.00  0.00    -0.197 C  
BRANCH  14  15
HETATM   15  C   UNL     1     -10.518   8.155  67.459  1.00  0.00    -0.326 C  
BRANCH  15  16
HETATM   16  C   UNL     1     -10.856   9.611  67.189  1.00  0.00    -0.184 A  
HETATM   17  C   UNL     1     -11.521  10.399  68.139  1.00  0.00    -0.194 A  
HETATM   18  C   UNL     1     -11.877  11.719  67.857  1.00  0.00    -0.289 A  
HETATM   19  C   UNL     1     -11.514  12.301  66.642  1.00  0.00    -0.373 A  
HETATM   20  C   UNL     1     -10.810  11.549  65.697  1.00  0.00    -0.310 A  
HETATM   21  C   UNL     1     -10.479  10.214  65.975  1.00  0.00    -0.165 A  
BRANCH  19  22
HETATM   22  S   UNL     1     -12.099  13.938  66.246  1.00  0.00    -0.457 S  
HETATM   23  O   UNL     1     -13.301  13.783  65.451  1.00  0.00    -0.669 OA 
HETATM   24  O   UNL     1     -12.125  14.729  67.456  1.00  0.00    -0.301 OA 
BRANCH  22  25
HETATM   25  N   UNL     1     -10.961  14.564  65.192  1.00  0.00    -0.355 N  
HETATM   26  H   UNL     1     -10.280  13.925  64.781  1.00  0.00     0.000 HD 
BRANCH  25  27
HETATM   27  C   UNL     1     -10.894  15.900  64.849  1.00  0.00    -0.400 C  
HETATM   28  O   UNL     1     -11.631  16.404  64.016  1.00  0.00    -1.071 OA 
BRANCH  27  29
HETATM   29  N   UNL     1      -9.936  16.623  65.519  1.00  0.00    -0.152 N  
HETATM   30  H   UNL     1      -8.955  16.569  65.246  1.00  0.00     0.000 HD 
BRANCH  29  31
HETATM   31  C   UNL     1     -10.356  17.472  66.631  1.00  0.00    -0.319 C  
HETATM   32  C   UNL     1      -9.784  17.022  67.981  1.00  0.00    -0.260 C  
HETATM   33  C   UNL     1      -8.384  17.547  68.294  1.00  0.00    -0.265 C  
HETATM   34  C   UNL     1      -8.223  19.049  68.038  1.00  0.00    -0.334 C  
HETATM   35  C   UNL     1      -8.659  19.380  66.606  1.00  0.00    -0.352 C  
HETATM   36  C   UNL     1      -8.970  19.900  69.072  1.00  0.00    -0.003 C  
HETATM   37  C   UNL     1     -10.098  18.955  66.324  1.00  0.00    -0.460 C  
ENDBRANCH  29  31
ENDBRANCH  27  29
ENDBRANCH  25  27
ENDBRANCH  22  25
ENDBRANCH  19  22
ENDBRANCH  15  16
ENDBRANCH  14  15
ENDBRANCH  12  14
ENDBRANCH  10  12
ENDBRANCH   7  10
ENDBRANCH   2   3
TORSDOF 11
ENDMDL
MODEL      180
REMARK 921   NORMALIZED FREE ENERGY PREDICTED BY IDOCK:   -4.78 KCAL/MOL
REMARK 922        TOTAL FREE ENERGY PREDICTED BY IDOCK:  -10.16 KCAL/MOL
REMARK 923 INTER-LIGAND FREE ENERGY PREDICTED BY IDOCK:   -7.94 KCAL/MOL
REMARK 924 INTRA-LIGAND FREE ENERGY PREDICTED BY IDOCK:   -2.22 KCAL/MOL
REMARK 927      BINDING AFFINITY PREDICTED BY RF-SCORE:    0.00 PKD
ROOT
HETATM    1  C   UNL     1     -12.882  13.956  65.803  1.00  0.00    -0.437 C  
HETATM    2  C   UNL     1     -11.423  14.067  65.386  1.00  0.00    -0.315 C  
ENDROOT
BRANCH   2   3
HETATM    3  C   UNL     1     -10.839  12.736  65.068  1.00  0.00    -0.319 C  
HETATM    4  C   UNL     1     -11.189  11.807  64.167  1.00  0.00    -0.437 C  
HETATM    5  C   UNL     1     -10.298  10.607  64.215  1.00  0.00    -0.255 C  
HETATM    6  C   UNL     1     -12.280  11.885  63.159  1.00  0.00    -0.340 C  
HETATM    7  N   UNL     1      -9.325  10.991  65.201  1.00  0.00    -0.216 N  
HETATM    8  O   UNL     1      -9.100  12.774  66.711  1.00  0.00    -0.217 OA 
HETATM    9  C   UNL     1      -9.654  12.211  65.779  1.00  0.00    -0.197 C  
BRANCH   7  10
HETATM   10  C   UNL     1      -8.138  10.293  65.325  1.00  0.00    -0.151 C  
HETATM   11  O   UNL     1      -7.207  10.429  64.534  1.00  0.00    -0.110 OA 
BRANCH  10  12
HETATM   12  N   UNL     1      -8.063   9.469  66.419  1.00  0.00    -0.111 N  
HETATM   13  H   UNL     1      -8.757   8.728  66.518  1.00  0.00     0.000 HD 
BRANCH  12  14
HETATM   14  C   UNL     1      -7.045   9.602  67.442  1.00  0.00    -0.085 C  
BRANCH  14  15
HETATM   15  C   UNL     1      -7.424  10.606  68.544  1.00  0.00    -0.093 C  
BRANCH  15  16
HETATM   16  C   UNL     1      -8.428  10.081  69.556  1.00  0.00    -0.186 A  
HETATM   17  C   UNL     1      -8.026   9.321  70.664  1.00  0.00    -0.189 A  
HETATM   18  C   UNL     1      -8.964   8.796  71.555  1.00  0.00    -0.306 A  
HETATM   19  C   UNL     1     -10.321   9.079  71.395  1.00  0.00    -0.326 A  
HETATM   20  C   UNL     1     -10.741   9.874  70.324  1.00  0.00    -0.367 A  
HETATM   21  C   UNL     1      -9.796  10.376  69.416  1.00  0.00    -0.235 A  
BRANCH  19  22
HETATM   22  S   UNL     1     -11.512   8.286  72.458  1.00  0.00    -0.346 S  
HETATM   23  O   UNL     1     -10.822   7.927  73.681  1.00  0.00    -0.149 OA 
HETATM   24  O   UNL     1     -12.706   9.100  72.510  1.00  0.00    -0.367 OA 
BRANCH  22  25
HETATM   25  N   UNL     1     -11.860   6.830  71.713  1.00  0.00    -0.313 N  
HETATM   26  H   UNL     1     -12.628   6.801  71.042  1.00  0.00     0.000 HD 
BRANCH  25  27
HETATM   27  C   UNL     1     -11.162   5.663  71.958  1.00  0.00    -0.207 C  
HETATM   28  O   UNL     1     -11.504   4.857  72.809  1.00  0.00    -0.203 OA 
BRANCH  27  29
HETATM   29  N   UNL     1     -10.053   5.474  71.167  1.00  0.00    -0.198 N  
HETATM   30  H   UNL     1      -9.119   5.671  71.523  1.00  0.00     0.000 HD 
BRANCH  29  31
HETATM   31  C   UNL     1     -10.247   4.984  69.804  1.00  0.00    -0.266 C  
HETATM   32  C   UNL     1     -10.791   6.055  68.851  1.00  0.00    -0.400 C  
HETATM   33  C   UNL     1      -9.731   6.960  68.226  1.00  0.00    -0.132 C  
HETATM   34  C   UNL     1      -8.534   6.192  67.655  1.00  0.00    -0.108 C  
HETATM   35  C   UNL     1      -7.948   5.271  68.730  1.00  0.00    -0.086 C  
HETATM   36  C   UNL     1      -8.890   5.422  66.377  1.00  0.00    -0.123 C  
HETATM   37  C   UNL     1      -8.980   4.290  69.281  1.00  0.00    -0.154 C  
ENDBRANCH  29  31
ENDBRANCH  27  29
ENDBRANCH  25  27
ENDBRANCH  22  25
ENDBRANCH  19  22
ENDBRANCH  15  16
ENDBRANCH  14  15
ENDBRANCH  12  14
ENDBRANCH  10  12
ENDBRANCH   7  10
ENDBRANCH   2   3
TORSDOF 11
ENDMDL
MODEL      181
REMARK 921   NORMALIZED FREE ENERGY PREDICTED BY IDOCK:   -4.77 KCAL/MOL
REMARK 922        TOTAL FREE ENERGY PREDICTED BY IDOCK:  -10.15 KCAL/MOL
REMARK 923 INTER-LIGAND FREE ENERGY PREDICTED BY IDOCK:   -9.07 KCAL/MOL
REMARK 924 INTRA-LIGAND FREE ENERGY PREDICTED BY IDOCK:   -1.09 KCAL/MOL
REMARK 927      BINDING AFFINITY PREDICTED BY RF-SCORE:    0.00 PKD
ROOT
HETATM    1  C   UNL     1      -5.226  18.101  64.550  1.00  0.00     0.083 C  
HETATM    2  C   UNL     1      -5.355  18.298  66.053  1.00  0.00    -0.206 C  
ENDROOT
BRANCH   2   3
HETATM    3  C   UNL     1      -6.710  18.782  66.430  1.00  0.00    -0.234 C  
HETATM    4  C   UNL     1      -7.126  19.954  66.933  1.00  0.00    -0.247 C  
HETATM    5  C   UNL     1      -8.602  19.981  67.161  1.00  0.00    -0.335 C  
HETATM    6  C   UNL     1      -6.305  21.163  67.214  1.00  0.00    -0.425 C  
HETATM    7  N   UNL     1      -9.013  18.704  66.645  1.00  0.00    -0.298 N  
HETATM    8  O   UNL     1      -7.902  16.780  65.890  1.00  0.00    -0.324 OA 
HETATM    9  C   UNL     1      -7.914  17.939  66.272  1.00  0.00    -0.244 C  
BRANCH   7  10
HETATM   10  C   UNL     1     -10.346  18.450  66.378  1.00  0.00    -0.405 C  
HETATM   11  O   UNL     1     -10.855  18.682  65.284  1.00  0.00    -0.591 OA 
BRANCH  10  12
HETATM   12  N   UNL     1     -11.045  17.881  67.413  1.00  0.00    -0.051 N  
HETATM   13  H   UNL     1     -11.847  18.384  67.792  1.00  0.00     0.000 HD 
BRANCH  12  14
HETATM   14  C   UNL     1     -10.696  16.600  67.993  1.00  0.00    -0.350 C  
BRANCH  14  15
HETATM   15  C   UNL     1     -11.033  15.410  67.077  1.00  0.00    -0.306 C  
BRANCH  15  16
HETATM   16  C   UNL     1     -10.940  14.051  67.751  1.00  0.00    -0.271 A  
HETATM   17  C   UNL     1     -12.013  13.519  68.481  1.00  0.00    -0.379 A  
HETATM   18  C   UNL     1     -11.896  12.295  69.142  1.00  0.00    -0.355 A  
HETATM   19  C   UNL     1     -10.725  11.545  69.030  1.00  0.00    -0.193 A  
HETATM   20  C   UNL     1      -9.660  12.034  68.269  1.00  0.00    -0.204 A  
HETATM   21  C   UNL     1      -9.773  13.277  67.629  1.00  0.00    -0.219 A  
BRANCH  19  22
HETATM   22  S   UNL     1     -10.545  10.056  69.994  1.00  0.00    -0.303 S  
HETATM   23  O   UNL     1      -9.125   9.792  70.113  1.00  0.00    -0.227 OA 
HETATM   24  O   UNL     1     -11.366  10.166  71.180  1.00  0.00    -0.346 OA 
BRANCH  22  25
HETATM   25  N   UNL     1     -11.133   8.831  69.019  1.00  0.00    -0.429 N  
HETATM   26  H   UNL     1     -11.895   9.049  68.376  1.00  0.00     0.000 HD 
BRANCH  25  27
HETATM   27  C   UNL     1     -10.641   7.541  69.036  1.00  0.00    -0.180 C  
HETATM   28  O   UNL     1      -9.858   7.123  68.197  1.00  0.00    -0.138 OA 
BRANCH  27  29
HETATM   29  N   UNL     1     -11.097   6.760  70.072  1.00  0.00    -0.291 N  
HETATM   30  H   UNL     1     -11.979   6.254  69.995  1.00  0.00     0.000 HD 
BRANCH  29  31
HETATM   31  C   UNL     1     -10.288   6.674  71.286  1.00  0.00    -0.205 C  
HETATM   32  C   UNL     1     -11.128   6.669  72.569  1.00  0.00    -0.296 C  
HETATM   33  C   UNL     1     -11.653   5.298  72.990  1.00  0.00    -0.290 C  
HETATM   34  C   UNL     1     -10.585   4.200  72.960  1.00  0.00    -0.256 C  
HETATM   35  C   UNL     1      -9.916   4.165  71.582  1.00  0.00    -0.240 C  
HETATM   36  C   UNL     1      -9.559   4.354  74.089  1.00  0.00    -0.130 C  
HETATM   37  C   UNL     1      -9.293   5.507  71.205  1.00  0.00    -0.181 C  
ENDBRANCH  29  31
ENDBRANCH  27  29
ENDBRANCH  25  27
ENDBRANCH  22  25
ENDBRANCH  19  22
ENDBRANCH  15  16
ENDBRANCH  14  15
ENDBRANCH  12  14
ENDBRANCH  10  12
ENDBRANCH   7  10
ENDBRANCH   2   3
TORSDOF 11
ENDMDL
MODEL      182
REMARK 921   NORMALIZED FREE ENERGY PREDICTED BY IDOCK:   -4.77 KCAL/MOL
REMARK 922        TOTAL FREE ENERGY PREDICTED BY IDOCK:  -10.15 KCAL/MOL
REMARK 923 INTER-LIGAND FREE ENERGY PREDICTED BY IDOCK:   -8.55 KCAL/MOL
REMARK 924 INTRA-LIGAND FREE ENERGY PREDICTED BY IDOCK:   -1.59 KCAL/MOL
REMARK 927      BINDING AFFINITY PREDICTED BY RF-SCORE:    0.00 PKD
ROOT
HETATM    1  C   UNL     1      -6.563  20.611  66.775  1.00  0.00    -0.322 C  
HETATM    2  C   UNL     1      -8.032  20.450  66.413  1.00  0.00    -0.179 C  
ENDROOT
BRANCH   2   3
HETATM    3  C   UNL     1      -8.577  19.151  66.889  1.00  0.00    -0.315 C  
HETATM    4  C   UNL     1      -9.531  18.865  67.787  1.00  0.00    -0.342 C  
HETATM    5  C   UNL     1      -9.739  17.394  67.945  1.00  0.00    -0.272 C  
HETATM    6  C   UNL     1     -10.378  19.823  68.548  1.00  0.00    -0.472 C  
HETATM    7  N   UNL     1      -8.844  16.853  66.959  1.00  0.00    -0.205 N  
HETATM    8  O   UNL     1      -7.172  17.736  65.567  1.00  0.00    -0.475 OA 
HETATM    9  C   UNL     1      -8.087  17.858  66.367  1.00  0.00    -0.261 C  
BRANCH   7  10
HETATM   10  C   UNL     1      -8.953  15.534  66.558  1.00  0.00    -0.312 C  
HETATM   11  O   UNL     1      -8.043  14.722  66.710  1.00  0.00    -0.132 OA 
BRANCH  10  12
HETATM   12  N   UNL     1     -10.166  15.192  66.017  1.00  0.00    -0.287 N  
HETATM   13  H   UNL     1     -11.002  15.663  66.363  1.00  0.00     0.000 HD 
BRANCH  12  14
HETATM   14  C   UNL     1     -10.316  14.192  64.979  1.00  0.00    -0.418 C  
BRANCH  14  15
HETATM   15  C   UNL     1     -10.900  12.866  65.497  1.00  0.00    -0.298 C  
BRANCH  15  16
HETATM   16  C   UNL     1     -10.010  12.127  66.481  1.00  0.00    -0.230 A  
HETATM   17  C   UNL     1      -8.923  11.352  66.050  1.00  0.00    -0.203 A  
HETATM   18  C   UNL     1      -8.147  10.632  66.959  1.00  0.00    -0.120 A  
HETATM   19  C   UNL     1      -8.400  10.726  68.328  1.00  0.00    -0.125 A  
HETATM   20  C   UNL     1      -9.449  11.529  68.785  1.00  0.00    -0.099 A  
HETATM   21  C   UNL     1     -10.243  12.229  67.864  1.00  0.00    -0.202 A  
BRANCH  19  22
HETATM   22  S   UNL     1      -7.490   9.691  69.459  1.00  0.00    -0.110 S  
HETATM   23  O   UNL     1      -6.089  10.035  69.321  1.00  0.00    -0.040 OA 
HETATM   24  O   UNL     1      -8.128   9.745  70.756  1.00  0.00    -0.271 OA 
BRANCH  22  25
HETATM   25  N   UNL     1      -7.620   8.145  68.835  1.00  0.00    -0.096 N  
HETATM   26  H   UNL     1      -6.765   7.660  68.562  1.00  0.00     0.000 HD 
BRANCH  25  27
HETATM   27  C   UNL     1      -8.824   7.488  68.671  1.00  0.00    -0.127 C  
HETATM   28  O   UNL     1      -9.229   7.118  67.580  1.00  0.00    -0.125 OA 
BRANCH  27  29
HETATM   29  N   UNL     1      -9.533   7.279  69.830  1.00  0.00    -0.157 N  
HETATM   30  H   UNL     1      -9.059   6.998  70.688  1.00  0.00     0.000 HD 
BRANCH  29  31
HETATM   31  C   UNL     1     -10.982   7.468  69.803  1.00  0.00    -0.184 C  
HETATM   32  C   UNL     1     -11.729   6.530  70.758  1.00  0.00    -0.427 C  
HETATM   33  C   UNL     1     -11.832   7.026  72.199  1.00  0.00    -0.314 C  
HETATM   34  C   UNL     1     -12.280   8.488  72.310  1.00  0.00    -0.454 C  
HETATM   35  C   UNL     1     -11.370   9.375  71.456  1.00  0.00    -0.464 C  
HETATM   36  C   UNL     1     -13.760   8.673  71.949  1.00  0.00    -0.462 C  
HETATM   37  C   UNL     1     -11.349   8.948  69.990  1.00  0.00    -0.050 C  
ENDBRANCH  29  31
ENDBRANCH  27  29
ENDBRANCH  25  27
ENDBRANCH  22  25
ENDBRANCH  19  22
ENDBRANCH  15  16
ENDBRANCH  14  15
ENDBRANCH  12  14
ENDBRANCH  10  12
ENDBRANCH   7  10
ENDBRANCH   2   3
TORSDOF 11
ENDMDL
MODEL      183
REMARK 921   NORMALIZED FREE ENERGY PREDICTED BY IDOCK:   -4.77 KCAL/MOL
REMARK 922        TOTAL FREE ENERGY PREDICTED BY IDOCK:  -10.14 KCAL/MOL
REMARK 923 INTER-LIGAND FREE ENERGY PREDICTED BY IDOCK:   -7.19 KCAL/MOL
REMARK 924 INTRA-LIGAND FREE ENERGY PREDICTED BY IDOCK:   -2.95 KCAL/MOL
REMARK 927      BINDING AFFINITY PREDICTED BY RF-SCORE:    0.00 PKD
ROOT
HETATM    1  C   UNL     1     -11.443  16.237  64.722  1.00  0.00    -0.121 C  
HETATM    2  C   UNL     1     -10.404  15.245  65.223  1.00  0.00    -0.430 C  
ENDROOT
BRANCH   2   3
HETATM    3  C   UNL     1     -11.010  14.212  66.105  1.00  0.00    -0.309 C  
HETATM    4  C   UNL     1     -11.735  13.119  65.823  1.00  0.00    -0.415 C  
HETATM    5  C   UNL     1     -12.138  12.374  67.054  1.00  0.00    -0.011 C  
HETATM    6  C   UNL     1     -12.102  12.595  64.480  1.00  0.00    -0.485 C  
HETATM    7  N   UNL     1     -11.481  13.121  68.091  1.00  0.00    -0.292 N  
HETATM    8  O   UNL     1     -10.309  15.152  68.190  1.00  0.00    -0.234 OA 
HETATM    9  C   UNL     1     -10.866  14.256  67.576  1.00  0.00    -0.280 C  
BRANCH   7  10
HETATM   10  C   UNL     1     -11.339  12.588  69.359  1.00  0.00    -0.210 C  
HETATM   11  O   UNL     1     -11.881  13.081  70.346  1.00  0.00    -0.285 OA 
BRANCH  10  12
HETATM   12  N   UNL     1     -10.582  11.446  69.425  1.00  0.00    -0.424 N  
HETATM   13  H   UNL     1     -11.049  10.566  69.643  1.00  0.00     0.000 HD 
BRANCH  12  14
HETATM   14  C   UNL     1      -9.150  11.432  69.201  1.00  0.00     0.196 C  
BRANCH  14  15
HETATM   15  C   UNL     1      -8.771  11.163  67.734  1.00  0.00    -0.132 C  
BRANCH  15  16
HETATM   16  C   UNL     1      -8.892   9.710  67.309  1.00  0.00    -0.139 A  
HETATM   17  C   UNL     1     -10.092   9.191  66.799  1.00  0.00    -0.341 A  
HETATM   18  C   UNL     1     -10.207   7.841  66.465  1.00  0.00    -0.195 A  
HETATM   19  C   UNL     1      -9.104   6.994  66.569  1.00  0.00    -0.156 A  
HETATM   20  C   UNL     1      -7.885   7.499  67.030  1.00  0.00    -0.116 A  
HETATM   21  C   UNL     1      -7.782   8.851  67.391  1.00  0.00    -0.096 A  
BRANCH  19  22
HETATM   22  S   UNL     1      -9.309   5.248  66.272  1.00  0.00    -0.158 S  
HETATM   23  O   UNL     1     -10.733   4.989  66.207  1.00  0.00    -0.312 OA 
HETATM   24  O   UNL     1      -8.448   4.857  65.177  1.00  0.00    -0.127 OA 
BRANCH  22  25
HETATM   25  N   UNL     1      -8.798   4.504  67.679  1.00  0.00    -0.105 N  
HETATM   26  H   UNL     1      -7.797   4.350  67.809  1.00  0.00     0.000 HD 
BRANCH  25  27
HETATM   27  C   UNL     1      -9.657   4.086  68.676  1.00  0.00    -0.120 C  
HETATM   28  O   UNL     1      -9.623   2.960  69.148  1.00  0.00    -0.134 OA 
BRANCH  27  29
HETATM   29  N   UNL     1     -10.556   5.036  69.102  1.00  0.00    -0.030 N  
HETATM   30  H   UNL     1     -11.243   5.430  68.460  1.00  0.00     0.000 HD 
BRANCH  29  31
HETATM   31  C   UNL     1     -10.502   5.468  70.497  1.00  0.00    -0.277 C  
HETATM   32  C   UNL     1      -9.070   5.631  71.021  1.00  0.00    -0.159 C  
HETATM   33  C   UNL     1      -8.426   6.984  70.724  1.00  0.00    -0.135 C  
HETATM   34  C   UNL     1      -9.331   8.177  71.051  1.00  0.00    -0.180 C  
HETATM   35  C   UNL     1     -10.681   8.011  70.346  1.00  0.00    -0.233 C  
HETATM   36  C   UNL     1      -9.498   8.384  72.562  1.00  0.00    -0.360 C  
HETATM   37  C   UNL     1     -11.380   6.707  70.726  1.00  0.00    -0.389 C  
ENDBRANCH  29  31
ENDBRANCH  27  29
ENDBRANCH  25  27
ENDBRANCH  22  25
ENDBRANCH  19  22
ENDBRANCH  15  16
ENDBRANCH  14  15
ENDBRANCH  12  14
ENDBRANCH  10  12
ENDBRANCH   7  10
ENDBRANCH   2   3
TORSDOF 11
ENDMDL
MODEL      184
REMARK 921   NORMALIZED FREE ENERGY PREDICTED BY IDOCK:   -4.77 KCAL/MOL
REMARK 922        TOTAL FREE ENERGY PREDICTED BY IDOCK:  -10.14 KCAL/MOL
REMARK 923 INTER-LIGAND FREE ENERGY PREDICTED BY IDOCK:   -8.30 KCAL/MOL
REMARK 924 INTRA-LIGAND FREE ENERGY PREDICTED BY IDOCK:   -1.84 KCAL/MOL
REMARK 927      BINDING AFFINITY PREDICTED BY RF-SCORE:    0.00 PKD
ROOT
HETATM    1  C   UNL     1      -9.219   8.028  73.532  1.00  0.00    -0.312 C  
HETATM    2  C   UNL     1     -10.436   7.117  73.462  1.00  0.00    -0.422 C  
ENDROOT
BRANCH   2   3
HETATM    3  C   UNL     1     -10.692   6.646  72.075  1.00  0.00    -0.247 C  
HETATM    4  C   UNL     1     -11.554   7.071  71.139  1.00  0.00    -0.351 C  
HETATM    5  C   UNL     1     -11.456   6.277  69.877  1.00  0.00    -0.389 C  
HETATM    6  C   UNL     1     -12.498   8.217  71.228  1.00  0.00    -0.264 C  
HETATM    7  N   UNL     1     -10.362   5.389  70.161  1.00  0.00    -0.273 N  
HETATM    8  O   UNL     1      -9.097   4.863  72.066  1.00  0.00    -0.133 OA 
HETATM    9  C   UNL     1      -9.934   5.528  71.475  1.00  0.00    -0.177 C  
BRANCH   7  10
HETATM   10  C   UNL     1      -9.738   4.694  69.141  1.00  0.00    -0.185 C  
HETATM   11  O   UNL     1      -9.793   3.469  69.048  1.00  0.00    -0.041 OA 
BRANCH  10  12
HETATM   12  N   UNL     1      -9.089   5.476  68.219  1.00  0.00    -0.108 N  
HETATM   13  H   UNL     1      -8.312   6.056  68.536  1.00  0.00     0.000 HD 
BRANCH  12  14
HETATM   14  C   UNL     1      -9.456   5.518  66.818  1.00  0.00    -0.140 C  
BRANCH  14  15
HETATM   15  C   UNL     1     -10.282   6.761  66.447  1.00  0.00    -0.020 C  
BRANCH  15  16
HETATM   16  C   UNL     1      -9.574   8.084  66.691  1.00  0.00    -0.297 A  
HETATM   17  C   UNL     1      -9.961   8.943  67.730  1.00  0.00    -0.241 A  
HETATM   18  C   UNL     1      -9.341  10.180  67.909  1.00  0.00    -0.151 A  
HETATM   19  C   UNL     1      -8.272  10.555  67.094  1.00  0.00    -0.123 A  
HETATM   20  C   UNL     1      -7.838   9.695  66.082  1.00  0.00    -0.101 A  
HETATM   21  C   UNL     1      -8.483   8.463  65.889  1.00  0.00    -0.159 A  
BRANCH  19  22
HETATM   22  S   UNL     1      -7.587  12.194  67.248  1.00  0.00    -0.142 S  
HETATM   23  O   UNL     1      -7.788  12.615  68.620  1.00  0.00    -0.118 OA 
HETATM   24  O   UNL     1      -6.260  12.201  66.672  1.00  0.00    -0.148 OA 
BRANCH  22  25
HETATM   25  N   UNL     1      -8.595  13.174  66.342  1.00  0.00    -0.398 N  
HETATM   26  H   UNL     1      -8.224  13.593  65.489  1.00  0.00     0.000 HD 
BRANCH  25  27
HETATM   27  C   UNL     1      -9.905  13.446  66.686  1.00  0.00    -0.278 C  
HETATM   28  O   UNL     1     -10.851  13.131  65.981  1.00  0.00    -0.271 OA 
BRANCH  27  29
HETATM   29  N   UNL     1     -10.065  14.096  67.888  1.00  0.00    -0.231 N  
HETATM   30  H   UNL     1      -9.275  14.232  68.517  1.00  0.00     0.000 HD 
BRANCH  29  31
HETATM   31  C   UNL     1     -11.396  14.586  68.240  1.00  0.00    -0.297 C  
HETATM   32  C   UNL     1     -12.227  13.561  69.021  1.00  0.00    -0.224 C  
HETATM   33  C   UNL     1     -11.985  13.550  70.529  1.00  0.00    -0.344 C  
HETATM   34  C   UNL     1     -11.996  14.947  71.160  1.00  0.00    -0.389 C  
HETATM   35  C   UNL     1     -11.009  15.856  70.422  1.00  0.00    -0.361 C  
HETATM   36  C   UNL     1     -13.404  15.553  71.208  1.00  0.00    -0.588 C  
HETATM   37  C   UNL     1     -11.315  15.957  68.929  1.00  0.00    -0.377 C  
ENDBRANCH  29  31
ENDBRANCH  27  29
ENDBRANCH  25  27
ENDBRANCH  22  25
ENDBRANCH  19  22
ENDBRANCH  15  16
ENDBRANCH  14  15
ENDBRANCH  12  14
ENDBRANCH  10  12
ENDBRANCH   7  10
ENDBRANCH   2   3
TORSDOF 11
ENDMDL
MODEL      185
REMARK 921   NORMALIZED FREE ENERGY PREDICTED BY IDOCK:   -4.76 KCAL/MOL
REMARK 922        TOTAL FREE ENERGY PREDICTED BY IDOCK:  -10.13 KCAL/MOL
REMARK 923 INTER-LIGAND FREE ENERGY PREDICTED BY IDOCK:   -8.99 KCAL/MOL
REMARK 924 INTRA-LIGAND FREE ENERGY PREDICTED BY IDOCK:   -1.14 KCAL/MOL
REMARK 927      BINDING AFFINITY PREDICTED BY RF-SCORE:    0.00 PKD
ROOT
HETATM    1  C   UNL     1      -8.700  19.599  66.062  1.00  0.00    -0.265 C  
HETATM    2  C   UNL     1     -10.195  19.321  66.053  1.00  0.00    -0.512 C  
ENDROOT
BRANCH   2   3
HETATM    3  C   UNL     1     -10.522  18.047  66.749  1.00  0.00    -0.335 C  
HETATM    4  C   UNL     1     -10.855  16.838  66.274  1.00  0.00     0.005 C  
HETATM    5  C   UNL     1     -11.103  15.849  67.367  1.00  0.00    -0.207 C  
HETATM    6  C   UNL     1     -10.942  16.413  64.851  1.00  0.00    -0.277 C  
HETATM    7  N   UNL     1     -10.786  16.611  68.544  1.00  0.00    -0.334 N  
HETATM    8  O   UNL     1     -10.300  18.864  68.986  1.00  0.00    -0.254 OA 
HETATM    9  C   UNL     1     -10.509  17.934  68.223  1.00  0.00    -0.354 C  
BRANCH   7  10
HETATM   10  C   UNL     1     -10.583  15.979  69.757  1.00  0.00    -0.323 C  
HETATM   11  O   UNL     1      -9.635  15.221  69.955  1.00  0.00    -0.167 OA 
BRANCH  10  12
HETATM   12  N   UNL     1     -11.494  16.293  70.733  1.00  0.00    -0.537 N  
HETATM   13  H   UNL     1     -11.740  17.273  70.871  1.00  0.00     0.000 HD 
BRANCH  12  14
HETATM   14  C   UNL     1     -12.125  15.298  71.577  1.00  0.00    -0.359 C  
BRANCH  14  15
HETATM   15  C   UNL     1     -13.115  14.400  70.816  1.00  0.00    -0.344 C  
BRANCH  15  16
HETATM   16  C   UNL     1     -12.769  12.920  70.838  1.00  0.00    -0.291 A  
HETATM   17  C   UNL     1     -13.352  12.043  71.764  1.00  0.00    -0.338 A  
HETATM   18  C   UNL     1     -12.983  10.698  71.811  1.00  0.00    -0.577 A  
HETATM   19  C   UNL     1     -12.073  10.185  70.886  1.00  0.00    -0.356 A  
HETATM   20  C   UNL     1     -11.514  11.031  69.924  1.00  0.00    -0.400 A  
HETATM   21  C   UNL     1     -11.868  12.389  69.898  1.00  0.00    -0.376 A  
BRANCH  19  22
HETATM   22  S   UNL     1     -11.511   8.502  71.052  1.00  0.00    -0.274 S  
HETATM   23  O   UNL     1     -10.964   8.362  72.387  1.00  0.00    -0.339 OA 
HETATM   24  O   UNL     1     -12.559   7.614  70.599  1.00  0.00    -0.020 OA 
BRANCH  22  25
HETATM   25  N   UNL     1     -10.194   8.379  70.029  1.00  0.00    -0.197 N  
HETATM   26  H   UNL     1     -10.366   8.291  69.027  1.00  0.00     0.000 HD 
BRANCH  25  27
HETATM   27  C   UNL     1      -8.884   8.392  70.468  1.00  0.00    -0.148 C  
HETATM   28  O   UNL     1      -8.046   9.158  70.019  1.00  0.00    -0.101 OA 
BRANCH  27  29
HETATM   29  N   UNL     1      -8.595   7.478  71.454  1.00  0.00    -0.119 N  
HETATM   30  H   UNL     1      -8.816   7.675  72.429  1.00  0.00     0.000 HD 
BRANCH  29  31
HETATM   31  C   UNL     1      -7.961   6.219  71.070  1.00  0.00    -0.116 C  
HETATM   32  C   UNL     1      -8.130   5.115  72.122  1.00  0.00    -0.113 C  
HETATM   33  C   UNL     1      -9.435   4.327  72.025  1.00  0.00    -0.192 C  
HETATM   34  C   UNL     1      -9.763   3.863  70.601  1.00  0.00    -0.248 C  
HETATM   35  C   UNL     1      -9.739   5.062  69.647  1.00  0.00    -0.266 C  
HETATM   36  C   UNL     1      -8.836   2.737  70.126  1.00  0.00    -0.148 C  
HETATM   37  C   UNL     1      -8.396   5.789  69.661  1.00  0.00    -0.112 C  
ENDBRANCH  29  31
ENDBRANCH  27  29
ENDBRANCH  25  27
ENDBRANCH  22  25
ENDBRANCH  19  22
ENDBRANCH  15  16
ENDBRANCH  14  15
ENDBRANCH  12  14
ENDBRANCH  10  12
ENDBRANCH   7  10
ENDBRANCH   2   3
TORSDOF 11
ENDMDL
MODEL      186
REMARK 921   NORMALIZED FREE ENERGY PREDICTED BY IDOCK:   -4.75 KCAL/MOL
REMARK 922        TOTAL FREE ENERGY PREDICTED BY IDOCK:  -10.12 KCAL/MOL
REMARK 923 INTER-LIGAND FREE ENERGY PREDICTED BY IDOCK:   -7.88 KCAL/MOL
REMARK 924 INTRA-LIGAND FREE ENERGY PREDICTED BY IDOCK:   -2.23 KCAL/MOL
REMARK 927      BINDING AFFINITY PREDICTED BY RF-SCORE:    0.00 PKD
ROOT
HETATM    1  C   UNL     1      -9.986  11.797  63.131  1.00  0.00    -0.373 C  
HETATM    2  C   UNL     1      -9.489  10.363  63.032  1.00  0.00    -0.362 C  
ENDROOT
BRANCH   2   3
HETATM    3  C   UNL     1      -8.457  10.066  64.060  1.00  0.00    -0.179 C  
HETATM    4  C   UNL     1      -7.117  10.070  64.000  1.00  0.00    -0.126 C  
HETATM    5  C   UNL     1      -6.489   9.694  65.303  1.00  0.00    -0.083 C  
HETATM    6  C   UNL     1      -6.262  10.441  62.840  1.00  0.00    -0.136 C  
HETATM    7  N   UNL     1      -7.633   9.555  66.162  1.00  0.00    -0.099 N  
HETATM    8  O   UNL     1      -9.958   9.539  65.847  1.00  0.00    -0.291 OA 
HETATM    9  C   UNL     1      -8.815   9.695  65.446  1.00  0.00    -0.171 C  
BRANCH   7  10
HETATM   10  C   UNL     1      -7.479   9.519  67.536  1.00  0.00    -0.091 C  
HETATM   11  O   UNL     1      -7.765   8.528  68.204  1.00  0.00    -0.099 OA 
BRANCH  10  12
HETATM   12  N   UNL     1      -6.946  10.654  68.090  1.00  0.00    -0.072 N  
HETATM   13  H   UNL     1      -5.992  10.617  68.451  1.00  0.00     0.000 HD 
BRANCH  12  14
HETATM   14  C   UNL     1      -7.672  11.905  68.185  1.00  0.00    -0.126 C  
BRANCH  14  15
HETATM   15  C   UNL     1      -7.055  12.886  69.197  1.00  0.00     0.033 C  
BRANCH  15  16
HETATM   16  C   UNL     1      -7.141  14.347  68.790  1.00  0.00    -0.114 A  
HETATM   17  C   UNL     1      -7.530  15.342  69.699  1.00  0.00    -0.181 A  
HETATM   18  C   UNL     1      -7.660  16.672  69.298  1.00  0.00    -0.130 A  
HETATM   19  C   UNL     1      -7.338  17.048  67.994  1.00  0.00    -0.180 A  
HETATM   20  C   UNL     1      -6.904  16.082  67.082  1.00  0.00    -0.223 A  
HETATM   21  C   UNL     1      -6.801  14.741  67.483  1.00  0.00    -0.181 A  
BRANCH  19  22
HETATM   22  S   UNL     1      -7.646  18.723  67.465  1.00  0.00    -0.229 S  
HETATM   23  O   UNL     1      -8.160  19.446  68.610  1.00  0.00    -0.354 OA 
HETATM   24  O   UNL     1      -6.481  19.210  66.760  1.00  0.00    -0.187 OA 
BRANCH  22  25
HETATM   25  N   UNL     1      -8.936  18.615  66.406  1.00  0.00    -0.302 N  
HETATM   26  H   UNL     1      -8.820  18.988  65.463  1.00  0.00     0.000 HD 
BRANCH  25  27
HETATM   27  C   UNL     1     -10.150  18.048  66.740  1.00  0.00    -0.356 C  
HETATM   28  O   UNL     1     -10.734  18.305  67.781  1.00  0.00    -0.411 OA 
BRANCH  27  29
HETATM   29  N   UNL     1     -10.657  17.173  65.808  1.00  0.00    -0.278 N  
HETATM   30  H   UNL     1     -11.300  17.495  65.085  1.00  0.00     0.000 HD 
BRANCH  29  31
HETATM   31  C   UNL     1     -10.251  15.771  65.878  1.00  0.00    -0.355 C  
HETATM   32  C   UNL     1     -10.394  15.173  67.284  1.00  0.00    -0.261 C  
HETATM   33  C   UNL     1     -11.786  14.642  67.619  1.00  0.00    -0.366 C  
HETATM   34  C   UNL     1     -12.383  13.756  66.520  1.00  0.00    -0.432 C  
HETATM   35  C   UNL     1     -12.355  14.502  65.181  1.00  0.00    -0.324 C  
HETATM   36  C   UNL     1     -11.686  12.393  66.428  1.00  0.00    -0.453 C  
HETATM   37  C   UNL     1     -10.945  14.940  64.789  1.00  0.00    -0.390 C  
ENDBRANCH  29  31
ENDBRANCH  27  29
ENDBRANCH  25  27
ENDBRANCH  22  25
ENDBRANCH  19  22
ENDBRANCH  15  16
ENDBRANCH  14  15
ENDBRANCH  12  14
ENDBRANCH  10  12
ENDBRANCH   7  10
ENDBRANCH   2   3
TORSDOF 11
ENDMDL
MODEL      187
REMARK 921   NORMALIZED FREE ENERGY PREDICTED BY IDOCK:   -4.75 KCAL/MOL
REMARK 922        TOTAL FREE ENERGY PREDICTED BY IDOCK:  -10.11 KCAL/MOL
REMARK 923 INTER-LIGAND FREE ENERGY PREDICTED BY IDOCK:   -7.87 KCAL/MOL
REMARK 924 INTRA-LIGAND FREE ENERGY PREDICTED BY IDOCK:   -2.24 KCAL/MOL
REMARK 927      BINDING AFFINITY PREDICTED BY RF-SCORE:    0.00 PKD
ROOT
HETATM    1  C   UNL     1      -8.646   7.079  72.671  1.00  0.00    -0.133 C  
HETATM    2  C   UNL     1      -7.901   5.763  72.835  1.00  0.00    -0.104 C  
ENDROOT
BRANCH   2   3
HETATM    3  C   UNL     1      -8.464   4.700  71.960  1.00  0.00    -0.119 C  
HETATM    4  C   UNL     1      -9.573   3.955  72.071  1.00  0.00    -0.210 C  
HETATM    5  C   UNL     1      -9.728   2.995  70.936  1.00  0.00    -0.085 C  
HETATM    6  C   UNL     1     -10.617   4.033  73.129  1.00  0.00    -0.265 C  
HETATM    7  N   UNL     1      -8.612   3.335  70.097  1.00  0.00    -0.056 N  
HETATM    8  O   UNL     1      -6.729   4.720  70.313  1.00  0.00    -0.034 OA 
HETATM    9  C   UNL     1      -7.801   4.287  70.705  1.00  0.00    -0.056 C  
BRANCH   7  10
HETATM   10  C   UNL     1      -8.558   2.896  68.787  1.00  0.00    -0.074 C  
HETATM   11  O   UNL     1      -8.943   1.778  68.450  1.00  0.00    -0.093 OA 
BRANCH  10  12
HETATM   12  N   UNL     1      -8.083   3.816  67.887  1.00  0.00    -0.084 N  
HETATM   13  H   UNL     1      -7.218   4.310  68.108  1.00  0.00     0.000 HD 
BRANCH  12  14
HETATM   14  C   UNL     1      -8.752   4.119  66.638  1.00  0.00    -0.114 C  
BRANCH  14  15
HETATM   15  C   UNL     1     -10.217   4.550  66.825  1.00  0.00    -0.174 C  
BRANCH  15  16
HETATM   16  C   UNL     1     -10.397   5.858  67.578  1.00  0.00    -0.269 A  
HETATM   17  C   UNL     1     -10.249   7.098  66.940  1.00  0.00    -0.330 A  
HETATM   18  C   UNL     1     -10.361   8.292  67.655  1.00  0.00    -0.313 A  
HETATM   19  C   UNL     1     -10.692   8.272  69.011  1.00  0.00    -0.079 A  
HETATM   20  C   UNL     1     -10.889   7.048  69.657  1.00  0.00    -0.275 A  
HETATM   21  C   UNL     1     -10.748   5.850  68.940  1.00  0.00    -0.370 A  
BRANCH  19  22
HETATM   22  S   UNL     1     -10.691   9.796  69.934  1.00  0.00    -0.287 S  
HETATM   23  O   UNL     1     -11.123   9.481  71.281  1.00  0.00    -0.334 OA 
HETATM   24  O   UNL     1      -9.433  10.475  69.714  1.00  0.00    -0.102 OA 
BRANCH  22  25
HETATM   25  N   UNL     1     -11.936  10.702  69.281  1.00  0.00    -0.510 N  
HETATM   26  H   UNL     1     -12.796  10.221  69.016  1.00  0.00     0.000 HD 
BRANCH  25  27
HETATM   27  C   UNL     1     -11.863  12.066  69.081  1.00  0.00    -0.311 C  
HETATM   28  O   UNL     1     -12.215  12.876  69.924  1.00  0.00    -0.271 OA 
BRANCH  27  29
HETATM   29  N   UNL     1     -11.358  12.447  67.860  1.00  0.00    -0.268 N  
HETATM   30  H   UNL     1     -10.541  11.982  67.465  1.00  0.00     0.000 HD 
BRANCH  29  31
HETATM   31  C   UNL     1     -12.021  13.533  67.142  1.00  0.00    -0.381 C  
HETATM   32  C   UNL     1     -11.293  14.876  67.278  1.00  0.00    -0.355 C  
HETATM   33  C   UNL     1     -10.158  15.098  66.280  1.00  0.00    -0.299 C  
HETATM   34  C   UNL     1     -10.540  14.759  64.835  1.00  0.00    -0.431 C  
HETATM   35  C   UNL     1     -11.100  13.334  64.768  1.00  0.00    -0.359 C  
HETATM   36  C   UNL     1     -11.511  15.782  64.234  1.00  0.00    -0.203 C  
HETATM   37  C   UNL     1     -12.306  13.140  65.684  1.00  0.00    -0.519 C  
ENDBRANCH  29  31
ENDBRANCH  27  29
ENDBRANCH  25  27
ENDBRANCH  22  25
ENDBRANCH  19  22
ENDBRANCH  15  16
ENDBRANCH  14  15
ENDBRANCH  12  14
ENDBRANCH  10  12
ENDBRANCH   7  10
ENDBRANCH   2   3
TORSDOF 11
ENDMDL
MODEL      188
REMARK 921   NORMALIZED FREE ENERGY PREDICTED BY IDOCK:   -4.75 KCAL/MOL
REMARK 922        TOTAL FREE ENERGY PREDICTED BY IDOCK:  -10.11 KCAL/MOL
REMARK 923 INTER-LIGAND FREE ENERGY PREDICTED BY IDOCK:   -8.47 KCAL/MOL
REMARK 924 INTRA-LIGAND FREE ENERGY PREDICTED BY IDOCK:   -1.64 KCAL/MOL
REMARK 927      BINDING AFFINITY PREDICTED BY RF-SCORE:    0.00 PKD
ROOT
HETATM    1  C   UNL     1     -12.654  15.849  73.043  1.00  0.00    -0.606 C  
HETATM    2  C   UNL     1     -13.479  15.480  71.819  1.00  0.00    -0.576 C  
ENDROOT
BRANCH   2   3
HETATM    3  C   UNL     1     -12.830  14.405  71.022  1.00  0.00    -0.423 C  
HETATM    4  C   UNL     1     -12.006  14.460  69.965  1.00  0.00    -0.394 C  
HETATM    5  C   UNL     1     -11.606  13.101  69.487  1.00  0.00    -0.283 C  
HETATM    6  C   UNL     1     -11.455  15.674  69.305  1.00  0.00    -0.368 C  
HETATM    7  N   UNL     1     -12.230  12.243  70.457  1.00  0.00    -0.350 N  
HETATM    8  O   UNL     1     -13.760  12.549  72.210  1.00  0.00    -0.482 OA 
HETATM    9  C   UNL     1     -13.021  12.973  71.335  1.00  0.00    -0.283 C  
BRANCH   7  10
HETATM   10  C   UNL     1     -11.855  10.916  70.565  1.00  0.00    -0.360 C  
HETATM   11  O   UNL     1     -11.040  10.397  69.805  1.00  0.00    -0.254 OA 
BRANCH  10  12
HETATM   12  N   UNL     1     -12.428  10.236  71.609  1.00  0.00    -0.405 N  
HETATM   13  H   UNL     1     -12.236  10.553  72.560  1.00  0.00     0.000 HD 
BRANCH  12  14
HETATM   14  C   UNL     1     -13.295   9.089  71.426  1.00  0.00    -0.277 C  
BRANCH  14  15
HETATM   15  C   UNL     1     -12.888   7.881  72.288  1.00  0.00    -0.152 C  
BRANCH  15  16
HETATM   16  C   UNL     1     -11.913   6.928  71.617  1.00  0.00    -0.379 A  
HETATM   17  C   UNL     1     -11.819   6.837  70.220  1.00  0.00    -0.359 A  
HETATM   18  C   UNL     1     -10.960   5.917  69.616  1.00  0.00    -0.447 A  
HETATM   19  C   UNL     1     -10.127   5.115  70.396  1.00  0.00    -0.262 A  
HETATM   20  C   UNL     1     -10.170   5.221  71.789  1.00  0.00    -0.269 A  
HETATM   21  C   UNL     1     -11.055   6.128  72.392  1.00  0.00    -0.316 A  
BRANCH  19  22
HETATM   22  S   UNL     1      -9.143   3.852  69.612  1.00  0.00    -0.138 S  
HETATM   23  O   UNL     1      -8.903   2.821  70.601  1.00  0.00    -0.067 OA 
HETATM   24  O   UNL     1      -9.746   3.514  68.341  1.00  0.00    -0.127 OA 
BRANCH  22  25
HETATM   25  N   UNL     1      -7.651   4.560  69.352  1.00  0.00    -0.055 N  
HETATM   26  H   UNL     1      -6.856   4.225  69.897  1.00  0.00     0.000 HD 
BRANCH  25  27
HETATM   27  C   UNL     1      -7.437   5.574  68.439  1.00  0.00    -0.077 C  
HETATM   28  O   UNL     1      -7.359   6.749  68.765  1.00  0.00    -0.089 OA 
BRANCH  27  29
HETATM   29  N   UNL     1      -7.315   5.162  67.133  1.00  0.00    -0.081 N  
HETATM   30  H   UNL     1      -6.695   4.392  66.885  1.00  0.00     0.000 HD 
BRANCH  29  31
HETATM   31  C   UNL     1      -8.095   5.855  66.110  1.00  0.00    -0.109 C  
HETATM   32  C   UNL     1      -7.306   6.961  65.398  1.00  0.00    -0.080 C  
HETATM   33  C   UNL     1      -6.449   6.488  64.226  1.00  0.00    -0.037 C  
HETATM   34  C   UNL     1      -7.193   5.558  63.261  1.00  0.00    -0.048 C  
HETATM   35  C   UNL     1      -7.806   4.388  64.039  1.00  0.00    -0.085 C  
HETATM   36  C   UNL     1      -8.244   6.302  62.428  1.00  0.00    -0.079 C  
HETATM   37  C   UNL     1      -8.750   4.856  65.144  1.00  0.00    -0.148 C  
ENDBRANCH  29  31
ENDBRANCH  27  29
ENDBRANCH  25  27
ENDBRANCH  22  25
ENDBRANCH  19  22
ENDBRANCH  15  16
ENDBRANCH  14  15
ENDBRANCH  12  14
ENDBRANCH  10  12
ENDBRANCH   7  10
ENDBRANCH   2   3
TORSDOF 11
ENDMDL
MODEL      189
REMARK 921   NORMALIZED FREE ENERGY PREDICTED BY IDOCK:   -4.74 KCAL/MOL
REMARK 922        TOTAL FREE ENERGY PREDICTED BY IDOCK:  -10.10 KCAL/MOL
REMARK 923 INTER-LIGAND FREE ENERGY PREDICTED BY IDOCK:   -8.54 KCAL/MOL
REMARK 924 INTRA-LIGAND FREE ENERGY PREDICTED BY IDOCK:   -1.56 KCAL/MOL
REMARK 927      BINDING AFFINITY PREDICTED BY RF-SCORE:    0.00 PKD
ROOT
HETATM    1  C   UNL     1      -6.907  20.024  65.414  1.00  0.00    -0.337 C  
HETATM    2  C   UNL     1      -8.185  19.763  66.197  1.00  0.00    -0.363 C  
ENDROOT
BRANCH   2   3
HETATM    3  C   UNL     1      -8.052  18.582  67.090  1.00  0.00    -0.248 C  
HETATM    4  C   UNL     1      -7.536  18.455  68.322  1.00  0.00    -0.293 C  
HETATM    5  C   UNL     1      -7.616  17.051  68.828  1.00  0.00    -0.243 C  
HETATM    6  C   UNL     1      -6.976  19.528  69.187  1.00  0.00    -0.392 C  
HETATM    7  N   UNL     1      -8.327  16.387  67.770  1.00  0.00    -0.164 N  
HETATM    8  O   UNL     1      -9.018  16.974  65.605  1.00  0.00    -0.492 OA 
HETATM    9  C   UNL     1      -8.536  17.242  66.695  1.00  0.00    -0.257 C  
BRANCH   7  10
HETATM   10  C   UNL     1      -8.887  15.139  67.975  1.00  0.00    -0.170 C  
HETATM   11  O   UNL     1      -8.331  14.101  67.620  1.00  0.00    -0.156 OA 
BRANCH  10  12
HETATM   12  N   UNL     1     -10.087  15.144  68.638  1.00  0.00    -0.216 N  
HETATM   13  H   UNL     1     -10.079  15.224  69.656  1.00  0.00     0.000 HD 
BRANCH  12  14
HETATM   14  C   UNL     1     -11.365  15.042  67.963  1.00  0.00    -0.327 C  
BRANCH  14  15
HETATM   15  C   UNL     1     -12.271  13.943  68.548  1.00  0.00    -0.201 C  
BRANCH  15  16
HETATM   16  C   UNL     1     -11.707  12.537  68.435  1.00  0.00    -0.375 A  
HETATM   17  C   UNL     1     -11.269  12.017  67.209  1.00  0.00    -0.371 A  
HETATM   18  C   UNL     1     -10.807  10.704  67.108  1.00  0.00    -0.328 A  
HETATM   19  C   UNL     1     -10.709   9.904  68.246  1.00  0.00    -0.234 A  
HETATM   20  C   UNL     1     -11.097  10.416  69.488  1.00  0.00    -0.314 A  
HETATM   21  C   UNL     1     -11.586  11.728  69.579  1.00  0.00    -0.398 A  
BRANCH  19  22
HETATM   22  S   UNL     1     -10.250   8.189  68.074  1.00  0.00    -0.213 S  
HETATM   23  O   UNL     1     -10.563   7.797  66.715  1.00  0.00    -0.331 OA 
HETATM   24  O   UNL     1      -8.912   8.010  68.593  1.00  0.00    -0.134 OA 
BRANCH  22  25
HETATM   25  N   UNL     1     -11.338   7.350  69.029  1.00  0.00    -0.365 N  
HETATM   26  H   UNL     1     -12.322   7.357  68.760  1.00  0.00     0.000 HD 
BRANCH  25  27
HETATM   27  C   UNL     1     -10.974   6.647  70.161  1.00  0.00    -0.305 C  
HETATM   28  O   UNL     1     -11.113   7.096  71.288  1.00  0.00    -0.242 OA 
BRANCH  27  29
HETATM   29  N   UNL     1     -10.444   5.400  69.924  1.00  0.00    -0.306 N  
HETATM   30  H   UNL     1     -10.657   4.899  69.062  1.00  0.00     0.000 HD 
BRANCH  29  31
HETATM   31  C   UNL     1      -9.571   4.812  70.937  1.00  0.00    -0.177 C  
HETATM   32  C   UNL     1      -9.880   3.335  71.213  1.00  0.00    -0.169 C  
HETATM   33  C   UNL     1      -9.207   2.348  70.261  1.00  0.00    -0.196 C  
HETATM   34  C   UNL     1      -7.715   2.626  70.047  1.00  0.00    -0.045 C  
HETATM   35  C   UNL     1      -7.517   4.080  69.607  1.00  0.00    -0.053 C  
HETATM   36  C   UNL     1      -6.875   2.284  71.284  1.00  0.00    -0.031 C  
HETATM   37  C   UNL     1      -8.093   5.075  70.612  1.00  0.00    -0.094 C  
ENDBRANCH  29  31
ENDBRANCH  27  29
ENDBRANCH  25  27
ENDBRANCH  22  25
ENDBRANCH  19  22
ENDBRANCH  15  16
ENDBRANCH  14  15
ENDBRANCH  12  14
ENDBRANCH  10  12
ENDBRANCH   7  10
ENDBRANCH   2   3
TORSDOF 11
ENDMDL
MODEL      190
REMARK 921   NORMALIZED FREE ENERGY PREDICTED BY IDOCK:   -4.74 KCAL/MOL
REMARK 922        TOTAL FREE ENERGY PREDICTED BY IDOCK:  -10.10 KCAL/MOL
REMARK 923 INTER-LIGAND FREE ENERGY PREDICTED BY IDOCK:   -8.36 KCAL/MOL
REMARK 924 INTRA-LIGAND FREE ENERGY PREDICTED BY IDOCK:   -1.74 KCAL/MOL
REMARK 927      BINDING AFFINITY PREDICTED BY RF-SCORE:    0.00 PKD
ROOT
HETATM    1  C   UNL     1      -9.580   7.915  69.102  1.00  0.00    -0.153 C  
HETATM    2  C   UNL     1      -8.110   7.758  68.741  1.00  0.00    -0.126 C  
ENDROOT
BRANCH   2   3
HETATM    3  C   UNL     1      -7.880   7.940  67.283  1.00  0.00    -0.113 C  
HETATM    4  C   UNL     1      -8.367   7.285  66.219  1.00  0.00    -0.129 C  
HETATM    5  C   UNL     1      -7.840   7.826  64.930  1.00  0.00    -0.123 C  
HETATM    6  C   UNL     1      -9.359   6.176  66.212  1.00  0.00    -0.157 C  
HETATM    7  N   UNL     1      -7.048   8.942  65.370  1.00  0.00    -0.080 N  
HETATM    8  O   UNL     1      -6.327   9.753  67.451  1.00  0.00    -0.066 OA 
HETATM    9  C   UNL     1      -6.989   8.996  66.757  1.00  0.00    -0.081 C  
BRANCH   7  10
HETATM   10  C   UNL     1      -6.633   9.908  64.471  1.00  0.00    -0.124 C  
HETATM   11  O   UNL     1      -5.516   9.892  63.957  1.00  0.00    -0.077 OA 
BRANCH  10  12
HETATM   12  N   UNL     1      -7.574  10.858  64.166  1.00  0.00    -0.229 N  
HETATM   13  H   UNL     1      -7.737  11.612  64.834  1.00  0.00     0.000 HD 
BRANCH  12  14
HETATM   14  C   UNL     1      -8.347  10.842  62.941  1.00  0.00    -0.114 C  
BRANCH  14  15
HETATM   15  C   UNL     1      -9.863  10.752  63.184  1.00  0.00    -0.378 C  
BRANCH  15  16
HETATM   16  C   UNL     1     -10.320  11.307  64.523  1.00  0.00    -0.381 A  
HETATM   17  C   UNL     1     -10.817  12.613  64.646  1.00  0.00    -0.349 A  
HETATM   18  C   UNL     1     -11.180  13.131  65.891  1.00  0.00    -0.311 A  
HETATM   19  C   UNL     1     -11.118  12.329  67.030  1.00  0.00    -0.287 A  
HETATM   20  C   UNL     1     -10.670  11.009  66.925  1.00  0.00    -0.325 A  
HETATM   21  C   UNL     1     -10.281  10.502  65.675  1.00  0.00    -0.315 A  
BRANCH  19  22
HETATM   22  S   UNL     1     -11.451  13.050  68.627  1.00  0.00    -0.330 S  
HETATM   23  O   UNL     1     -12.244  14.241  68.401  1.00  0.00    -0.299 OA 
HETATM   24  O   UNL     1     -11.931  12.014  69.515  1.00  0.00    -0.303 OA 
BRANCH  22  25
HETATM   25  N   UNL     1      -9.972  13.610  69.169  1.00  0.00    -0.412 N  
HETATM   26  H   UNL     1      -9.741  13.489  70.155  1.00  0.00     0.000 HD 
BRANCH  25  27
HETATM   27  C   UNL     1      -9.045  14.228  68.352  1.00  0.00    -0.194 C  
HETATM   28  O   UNL     1      -8.332  13.608  67.578  1.00  0.00    -0.164 OA 
BRANCH  27  29
HETATM   29  N   UNL     1      -8.986  15.596  68.473  1.00  0.00    -0.184 N  
HETATM   30  H   UNL     1      -8.388  16.033  69.174  1.00  0.00     0.000 HD 
BRANCH  29  31
HETATM   31  C   UNL     1      -9.802  16.410  67.574  1.00  0.00    -0.239 C  
HETATM   32  C   UNL     1     -10.517  17.563  68.288  1.00  0.00    -0.383 C  
HETATM   33  C   UNL     1      -9.684  18.832  68.455  1.00  0.00    -0.421 C  
HETATM   34  C   UNL     1      -8.968  19.265  67.170  1.00  0.00    -0.338 C  
HETATM   35  C   UNL     1      -8.141  18.099  66.620  1.00  0.00    -0.283 C  
HETATM   36  C   UNL     1      -9.939  19.822  66.121  1.00  0.00    -0.573 C  
HETATM   37  C   UNL     1      -8.992  16.860  66.349  1.00  0.00    -0.317 C  
ENDBRANCH  29  31
ENDBRANCH  27  29
ENDBRANCH  25  27
ENDBRANCH  22  25
ENDBRANCH  19  22
ENDBRANCH  15  16
ENDBRANCH  14  15
ENDBRANCH  12  14
ENDBRANCH  10  12
ENDBRANCH   7  10
ENDBRANCH   2   3
TORSDOF 11
ENDMDL
MODEL      191
REMARK 921   NORMALIZED FREE ENERGY PREDICTED BY IDOCK:   -4.74 KCAL/MOL
REMARK 922        TOTAL FREE ENERGY PREDICTED BY IDOCK:  -10.09 KCAL/MOL
REMARK 923 INTER-LIGAND FREE ENERGY PREDICTED BY IDOCK:   -7.76 KCAL/MOL
REMARK 924 INTRA-LIGAND FREE ENERGY PREDICTED BY IDOCK:   -2.32 KCAL/MOL
REMARK 927      BINDING AFFINITY PREDICTED BY RF-SCORE:    0.00 PKD
ROOT
HETATM    1  C   UNL     1     -11.309  13.165  63.872  1.00  0.00    -0.420 C  
HETATM    2  C   UNL     1     -11.544  13.979  65.135  1.00  0.00    -0.344 C  
ENDROOT
BRANCH   2   3
HETATM    3  C   UNL     1     -10.721  13.484  66.271  1.00  0.00    -0.288 C  
HETATM    4  C   UNL     1      -9.572  13.934  66.796  1.00  0.00    -0.288 C  
HETATM    5  C   UNL     1      -9.107  13.098  67.944  1.00  0.00    -0.207 C  
HETATM    6  C   UNL     1      -8.802  15.142  66.394  1.00  0.00    -0.277 C  
HETATM    7  N   UNL     1     -10.178  12.150  68.082  1.00  0.00    -0.198 N  
HETATM    8  O   UNL     1     -12.086  11.601  66.830  1.00  0.00    -0.512 OA 
HETATM    9  C   UNL     1     -11.113  12.300  67.065  1.00  0.00    -0.287 C  
BRANCH   7  10
HETATM   10  C   UNL     1     -10.296  11.384  69.228  1.00  0.00    -0.024 C  
HETATM   11  O   UNL     1      -9.481  10.515  69.526  1.00  0.00    -0.179 OA 
BRANCH  10  12
HETATM   12  N   UNL     1     -11.368  11.697  70.025  1.00  0.00    -0.499 N  
HETATM   13  H   UNL     1     -11.370  12.598  70.504  1.00  0.00     0.000 HD 
BRANCH  12  14
HETATM   14  C   UNL     1     -12.496  10.809  70.219  1.00  0.00    -0.317 C  
BRANCH  14  15
HETATM   15  C   UNL     1     -12.447  10.054  71.559  1.00  0.00    -0.516 C  
BRANCH  15  16
HETATM   16  C   UNL     1     -11.829   8.668  71.478  1.00  0.00    -0.366 A  
HETATM   17  C   UNL     1     -10.758   8.293  72.302  1.00  0.00    -0.399 A  
HETATM   18  C   UNL     1     -10.161   7.037  72.179  1.00  0.00    -0.206 A  
HETATM   19  C   UNL     1     -10.668   6.103  71.274  1.00  0.00    -0.256 A  
HETATM   20  C   UNL     1     -11.764   6.439  70.475  1.00  0.00    -0.385 A  
HETATM   21  C   UNL     1     -12.343   7.713  70.583  1.00  0.00     0.038 A  
BRANCH  19  22
HETATM   22  S   UNL     1      -9.807   4.561  71.034  1.00  0.00    -0.186 S  
HETATM   23  O   UNL     1     -10.149   3.701  72.149  1.00  0.00    -0.168 OA 
HETATM   24  O   UNL     1     -10.025   4.113  69.676  1.00  0.00    -0.195 OA 
BRANCH  22  25
HETATM   25  N   UNL     1      -8.189   4.927  71.249  1.00  0.00    -0.108 N  
HETATM   26  H   UNL     1      -7.711   4.542  72.064  1.00  0.00     0.000 HD 
BRANCH  25  27
HETATM   27  C   UNL     1      -7.466   5.723  70.382  1.00  0.00    -0.088 C  
HETATM   28  O   UNL     1      -6.359   6.159  70.655  1.00  0.00    -0.037 OA 
BRANCH  27  29
HETATM   29  N   UNL     1      -8.086   5.985  69.183  1.00  0.00    -0.110 N  
HETATM   30  H   UNL     1      -8.423   5.226  68.592  1.00  0.00     0.000 HD 
BRANCH  29  31
HETATM   31  C   UNL     1      -8.250   7.379  68.775  1.00  0.00    -0.129 C  
HETATM   32  C   UNL     1      -7.037   7.930  68.015  1.00  0.00    -0.085 C  
HETATM   33  C   UNL     1      -7.031   7.638  66.515  1.00  0.00    -0.067 C  
HETATM   34  C   UNL     1      -8.367   7.943  65.828  1.00  0.00    -0.139 C  
HETATM   35  C   UNL     1      -9.501   7.213  66.555  1.00  0.00    -0.208 C  
HETATM   36  C   UNL     1      -8.636   9.449  65.719  1.00  0.00    -0.161 C  
HETATM   37  C   UNL     1      -9.580   7.586  68.034  1.00  0.00    -0.156 C  
ENDBRANCH  29  31
ENDBRANCH  27  29
ENDBRANCH  25  27
ENDBRANCH  22  25
ENDBRANCH  19  22
ENDBRANCH  15  16
ENDBRANCH  14  15
ENDBRANCH  12  14
ENDBRANCH  10  12
ENDBRANCH   7  10
ENDBRANCH   2   3
TORSDOF 11
ENDMDL
MODEL      192
REMARK 921   NORMALIZED FREE ENERGY PREDICTED BY IDOCK:   -4.73 KCAL/MOL
REMARK 922        TOTAL FREE ENERGY PREDICTED BY IDOCK:  -10.08 KCAL/MOL
REMARK 923 INTER-LIGAND FREE ENERGY PREDICTED BY IDOCK:   -8.75 KCAL/MOL
REMARK 924 INTRA-LIGAND FREE ENERGY PREDICTED BY IDOCK:   -1.34 KCAL/MOL
REMARK 927      BINDING AFFINITY PREDICTED BY RF-SCORE:    0.00 PKD
ROOT
HETATM    1  C   UNL     1      -7.836   6.141  66.957  1.00  0.00    -0.101 C  
HETATM    2  C   UNL     1      -8.630   4.944  67.458  1.00  0.00    -0.104 C  
ENDROOT
BRANCH   2   3
HETATM    3  C   UNL     1      -9.333   5.246  68.734  1.00  0.00    -0.157 C  
HETATM    4  C   UNL     1      -9.045   4.924  70.003  1.00  0.00    -0.157 C  
HETATM    5  C   UNL     1     -10.059   5.450  70.966  1.00  0.00    -0.216 C  
HETATM    6  C   UNL     1      -7.856   4.183  70.504  1.00  0.00    -0.051 C  
HETATM    7  N   UNL     1     -10.934   6.199  70.106  1.00  0.00    -0.326 N  
HETATM    8  O   UNL     1     -11.165   6.457  67.785  1.00  0.00    -0.323 OA 
HETATM    9  C   UNL     1     -10.579   6.041  68.772  1.00  0.00    -0.282 C  
BRANCH   7  10
HETATM   10  C   UNL     1     -11.834   7.106  70.636  1.00  0.00    -0.291 C  
HETATM   11  O   UNL     1     -12.997   6.804  70.895  1.00  0.00    -0.212 OA 
BRANCH  10  12
HETATM   12  N   UNL     1     -11.320   8.352  70.889  1.00  0.00    -0.266 N  
HETATM   13  H   UNL     1     -10.659   8.749  70.221  1.00  0.00     0.000 HD 
BRANCH  12  14
HETATM   14  C   UNL     1     -11.670   9.130  72.060  1.00  0.00    -0.314 C  
BRANCH  14  15
HETATM   15  C   UNL     1     -12.808  10.132  71.801  1.00  0.00    -0.554 C  
BRANCH  15  16
HETATM   16  C   UNL     1     -12.464  11.233  70.813  1.00  0.00    -0.471 A  
HETATM   17  C   UNL     1     -12.439  12.583  71.195  1.00  0.00    -0.322 A  
HETATM   18  C   UNL     1     -12.178  13.589  70.264  1.00  0.00    -0.417 A  
HETATM   19  C   UNL     1     -11.868  13.263  68.943  1.00  0.00    -0.327 A  
HETATM   20  C   UNL     1     -11.841  11.922  68.550  1.00  0.00    -0.357 A  
HETATM   21  C   UNL     1     -12.132  10.915  69.484  1.00  0.00    -0.380 A  
BRANCH  19  22
HETATM   22  S   UNL     1     -11.676  14.565  67.741  1.00  0.00    -0.361 S  
HETATM   23  O   UNL     1     -12.474  14.204  66.587  1.00  0.00    -0.426 OA 
HETATM   24  O   UNL     1     -11.881  15.838  68.397  1.00  0.00    -0.338 OA 
BRANCH  22  25
HETATM   25  N   UNL     1     -10.090  14.451  67.224  1.00  0.00    -0.250 N  
HETATM   26  H   UNL     1      -9.364  14.893  67.789  1.00  0.00     0.000 HD 
BRANCH  25  27
HETATM   27  C   UNL     1      -9.710  13.790  66.073  1.00  0.00    -0.237 C  
HETATM   28  O   UNL     1      -9.982  14.200  64.956  1.00  0.00    -0.336 OA 
BRANCH  27  29
HETATM   29  N   UNL     1      -8.996  12.632  66.279  1.00  0.00    -0.430 N  
HETATM   30  H   UNL     1      -9.019  11.877  65.594  1.00  0.00     0.000 HD 
BRANCH  29  31
HETATM   31  C   UNL     1      -8.206  12.510  67.502  1.00  0.00    -0.175 C  
HETATM   32  C   UNL     1      -8.711  11.405  68.437  1.00  0.00    -0.157 C  
HETATM   33  C   UNL     1      -8.184  10.006  68.123  1.00  0.00    -0.109 C  
HETATM   34  C   UNL     1      -6.669   9.961  67.894  1.00  0.00    -0.068 C  
HETATM   35  C   UNL     1      -6.277  10.981  66.820  1.00  0.00    -0.110 C  
HETATM   36  C   UNL     1      -5.877  10.166  69.192  1.00  0.00    -0.037 C  
HETATM   37  C   UNL     1      -6.707  12.401  67.182  1.00  0.00    -0.084 C  
ENDBRANCH  29  31
ENDBRANCH  27  29
ENDBRANCH  25  27
ENDBRANCH  22  25
ENDBRANCH  19  22
ENDBRANCH  15  16
ENDBRANCH  14  15
ENDBRANCH  12  14
ENDBRANCH  10  12
ENDBRANCH   7  10
ENDBRANCH   2   3
TORSDOF 11
ENDMDL
MODEL      193
REMARK 921   NORMALIZED FREE ENERGY PREDICTED BY IDOCK:   -4.70 KCAL/MOL
REMARK 922        TOTAL FREE ENERGY PREDICTED BY IDOCK:  -10.03 KCAL/MOL
REMARK 923 INTER-LIGAND FREE ENERGY PREDICTED BY IDOCK:   -7.47 KCAL/MOL
REMARK 924 INTRA-LIGAND FREE ENERGY PREDICTED BY IDOCK:   -2.56 KCAL/MOL
REMARK 927      BINDING AFFINITY PREDICTED BY RF-SCORE:    0.00 PKD
ROOT
HETATM    1  C   UNL     1     -11.841   6.171  72.114  1.00  0.00    -0.339 C  
HETATM    2  C   UNL     1     -10.821   5.044  72.041  1.00  0.00    -0.150 C  
ENDROOT
BRANCH   2   3
HETATM    3  C   UNL     1      -9.626   5.434  71.246  1.00  0.00    -0.205 C  
HETATM    4  C   UNL     1      -8.451   5.966  71.614  1.00  0.00    -0.128 C  
HETATM    5  C   UNL     1      -7.543   6.195  70.449  1.00  0.00    -0.096 C  
HETATM    6  C   UNL     1      -7.988   6.279  72.993  1.00  0.00    -0.107 C  
HETATM    7  N   UNL     1      -8.303   5.645  69.360  1.00  0.00    -0.106 N  
HETATM    8  O   UNL     1     -10.492   4.840  69.097  1.00  0.00    -0.066 OA 
HETATM    9  C   UNL     1      -9.568   5.253  69.780  1.00  0.00    -0.167 C  
BRANCH   7  10
HETATM   10  C   UNL     1      -7.696   5.372  68.147  1.00  0.00    -0.085 C  
HETATM   11  O   UNL     1      -7.598   4.231  67.702  1.00  0.00    -0.072 OA 
BRANCH  10  12
HETATM   12  N   UNL     1      -7.250   6.473  67.462  1.00  0.00    -0.084 N  
HETATM   13  H   UNL     1      -6.252   6.549  67.261  1.00  0.00     0.000 HD 
BRANCH  12  14
HETATM   14  C   UNL     1      -8.128   7.534  67.010  1.00  0.00    -0.117 C  
BRANCH  14  15
HETATM   15  C   UNL     1      -7.385   8.849  66.717  1.00  0.00    -0.082 C  
BRANCH  15  16
HETATM   16  C   UNL     1      -8.265   9.960  66.170  1.00  0.00    -0.118 A  
HETATM   17  C   UNL     1      -7.939  11.312  66.352  1.00  0.00    -0.125 A  
HETATM   18  C   UNL     1      -8.785  12.324  65.894  1.00  0.00     0.339 A  
HETATM   19  C   UNL     1      -9.942  12.005  65.183  1.00  0.00    -0.239 A  
HETATM   20  C   UNL     1     -10.264  10.665  64.950  1.00  0.00    -0.395 A  
HETATM   21  C   UNL     1      -9.424   9.651  65.436  1.00  0.00    -0.343 A  
BRANCH  19  22
HETATM   22  S   UNL     1     -11.078  13.303  64.732  1.00  0.00    -0.362 S  
HETATM   23  O   UNL     1     -10.346  14.553  64.794  1.00  0.00    -0.415 OA 
HETATM   24  O   UNL     1     -11.763  12.921  63.517  1.00  0.00    -0.490 OA 
BRANCH  22  25
HETATM   25  N   UNL     1     -12.174  13.381  65.992  1.00  0.00    -0.436 N  
HETATM   26  H   UNL     1     -13.170  13.374  65.768  1.00  0.00     0.000 HD 
BRANCH  25  27
HETATM   27  C   UNL     1     -11.805  13.454  67.321  1.00  0.00    -0.376 C  
HETATM   28  O   UNL     1     -11.316  14.458  67.814  1.00  0.00    -0.283 OA 
BRANCH  27  29
HETATM   29  N   UNL     1     -12.031  12.310  68.049  1.00  0.00    -0.292 N  
HETATM   30  H   UNL     1     -12.775  11.664  67.788  1.00  0.00     0.000 HD 
BRANCH  29  31
HETATM   31  C   UNL     1     -11.180  12.043  69.207  1.00  0.00    -0.229 C  
HETATM   32  C   UNL     1     -11.976  11.791  70.493  1.00  0.00    -0.383 C  
HETATM   33  C   UNL     1     -12.450  10.352  70.685  1.00  0.00    -0.437 C  
HETATM   34  C   UNL     1     -11.354   9.310  70.436  1.00  0.00    -0.283 C  
HETATM   35  C   UNL     1     -10.730   9.534  69.055  1.00  0.00    -0.224 C  
HETATM   36  C   UNL     1     -10.295   9.301  71.546  1.00  0.00    -0.364 C  
HETATM   37  C   UNL     1     -10.156  10.940  68.897  1.00  0.00    -0.211 C  
ENDBRANCH  29  31
ENDBRANCH  27  29
ENDBRANCH  25  27
ENDBRANCH  22  25
ENDBRANCH  19  22
ENDBRANCH  15  16
ENDBRANCH  14  15
ENDBRANCH  12  14
ENDBRANCH  10  12
ENDBRANCH   7  10
ENDBRANCH   2   3
TORSDOF 11
ENDMDL
MODEL      194
REMARK 921   NORMALIZED FREE ENERGY PREDICTED BY IDOCK:   -4.69 KCAL/MOL
REMARK 922        TOTAL FREE ENERGY PREDICTED BY IDOCK:  -10.02 KCAL/MOL
REMARK 923 INTER-LIGAND FREE ENERGY PREDICTED BY IDOCK:   -7.67 KCAL/MOL
REMARK 924 INTRA-LIGAND FREE ENERGY PREDICTED BY IDOCK:   -2.35 KCAL/MOL
REMARK 927      BINDING AFFINITY PREDICTED BY RF-SCORE:    0.00 PKD
ROOT
HETATM    1  C   UNL     1      -8.406   5.577  67.981  1.00  0.00    -0.099 C  
HETATM    2  C   UNL     1      -7.419   4.800  68.840  1.00  0.00    -0.061 C  
ENDROOT
BRANCH   2   3
HETATM    3  C   UNL     1      -8.114   3.962  69.853  1.00  0.00    -0.061 C  
HETATM    4  C   UNL     1      -8.806   2.820  69.736  1.00  0.00    -0.146 C  
HETATM    5  C   UNL     1      -9.335   2.340  71.049  1.00  0.00    -0.139 C  
HETATM    6  C   UNL     1      -9.033   2.018  68.503  1.00  0.00    -0.171 C  
HETATM    7  N   UNL     1      -8.787   3.301  71.966  1.00  0.00    -0.085 N  
HETATM    8  O   UNL     1      -7.630   5.332  71.754  1.00  0.00    -0.100 OA 
HETATM    9  C   UNL     1      -8.122   4.316  71.289  1.00  0.00    -0.081 C  
BRANCH   7  10
HETATM   10  C   UNL     1      -8.776   3.048  73.326  1.00  0.00    -0.080 C  
HETATM   11  O   UNL     1      -7.764   2.683  73.920  1.00  0.00    -0.052 OA 
BRANCH  10  12
HETATM   12  N   UNL     1      -9.968   3.275  73.967  1.00  0.00    -0.114 N  
HETATM   13  H   UNL     1     -10.523   2.471  74.258  1.00  0.00     0.000 HD 
BRANCH  12  14
HETATM   14  C   UNL     1     -10.474   4.603  74.249  1.00  0.00    -0.279 C  
BRANCH  14  15
HETATM   15  C   UNL     1     -11.485   5.099  73.201  1.00  0.00    -0.348 C  
BRANCH  15  16
HETATM   16  C   UNL     1     -10.994   6.260  72.352  1.00  0.00    -0.291 A  
HETATM   17  C   UNL     1     -11.205   6.298  70.966  1.00  0.00    -0.372 A  
HETATM   18  C   UNL     1     -10.699   7.341  70.189  1.00  0.00    -0.260 A  
HETATM   19  C   UNL     1     -10.029   8.406  70.793  1.00  0.00    -0.189 A  
HETATM   20  C   UNL     1      -9.847   8.413  72.179  1.00  0.00    -0.372 A  
HETATM   21  C   UNL     1     -10.334   7.348  72.951  1.00  0.00    -0.328 A  
BRANCH  19  22
HETATM   22  S   UNL     1      -9.271   9.654  69.771  1.00  0.00    -0.231 S  
HETATM   23  O   UNL     1      -8.071  10.095  70.453  1.00  0.00    -0.146 OA 
HETATM   24  O   UNL     1      -9.196   9.163  68.413  1.00  0.00    -0.133 OA 
BRANCH  22  25
HETATM   25  N   UNL     1     -10.311  10.962  69.836  1.00  0.00    -0.418 N  
HETATM   26  H   UNL     1     -10.068  11.743  70.447  1.00  0.00     0.000 HD 
BRANCH  25  27
HETATM   27  C   UNL     1     -11.481  11.042  69.108  1.00  0.00    -0.301 C  
HETATM   28  O   UNL     1     -12.567  10.722  69.567  1.00  0.00    -0.293 OA 
BRANCH  27  29
HETATM   29  N   UNL     1     -11.334  11.514  67.824  1.00  0.00    -0.283 N  
HETATM   30  H   UNL     1     -11.181  10.872  67.047  1.00  0.00     0.000 HD 
BRANCH  29  31
HETATM   31  C   UNL     1     -11.403  12.956  67.601  1.00  0.00    -0.303 C  
HETATM   32  C   UNL     1     -10.025  13.604  67.426  1.00  0.00    -0.234 C  
HETATM   33  C   UNL     1      -9.465  13.553  66.006  1.00  0.00    -0.109 C  
HETATM   34  C   UNL     1     -10.476  13.979  64.935  1.00  0.00    -0.453 C  
HETATM   35  C   UNL     1     -11.761  13.158  65.081  1.00  0.00    -0.367 C  
HETATM   36  C   UNL     1     -10.756  15.487  64.965  1.00  0.00    -0.463 C  
HETATM   37  C   UNL     1     -12.384  13.294  66.469  1.00  0.00    -0.311 C  
ENDBRANCH  29  31
ENDBRANCH  27  29
ENDBRANCH  25  27
ENDBRANCH  22  25
ENDBRANCH  19  22
ENDBRANCH  15  16
ENDBRANCH  14  15
ENDBRANCH  12  14
ENDBRANCH  10  12
ENDBRANCH   7  10
ENDBRANCH   2   3
TORSDOF 11
ENDMDL
MODEL      195
REMARK 921   NORMALIZED FREE ENERGY PREDICTED BY IDOCK:   -4.68 KCAL/MOL
REMARK 922        TOTAL FREE ENERGY PREDICTED BY IDOCK:  -10.00 KCAL/MOL
REMARK 923 INTER-LIGAND FREE ENERGY PREDICTED BY IDOCK:   -7.90 KCAL/MOL
REMARK 924 INTRA-LIGAND FREE ENERGY PREDICTED BY IDOCK:   -2.10 KCAL/MOL
REMARK 927      BINDING AFFINITY PREDICTED BY RF-SCORE:    0.00 PKD
ROOT
HETATM    1  C   UNL     1     -10.695  13.102  65.161  1.00  0.00    -0.329 C  
HETATM    2  C   UNL     1     -11.868  13.901  65.709  1.00  0.00    -0.393 C  
ENDROOT
BRANCH   2   3
HETATM    3  C   UNL     1     -11.425  14.920  66.697  1.00  0.00    -0.297 C  
HETATM    4  C   UNL     1     -11.527  14.963  68.034  1.00  0.00    -0.355 C  
HETATM    5  C   UNL     1     -10.934  16.208  68.608  1.00  0.00    -0.336 C  
HETATM    6  C   UNL     1     -12.095  13.923  68.934  1.00  0.00    -0.355 C  
HETATM    7  N   UNL     1     -10.391  16.851  67.443  1.00  0.00    -0.303 N  
HETATM    8  O   UNL     1     -10.509  16.478  65.129  1.00  0.00    -0.637 OA 
HETATM    9  C   UNL     1     -10.725  16.156  66.287  1.00  0.00    -0.213 C  
BRANCH   7  10
HETATM   10  C   UNL     1      -9.481  17.885  67.571  1.00  0.00    -0.258 C  
HETATM   11  O   UNL     1      -9.812  19.013  67.929  1.00  0.00    -0.309 OA 
BRANCH  10  12
HETATM   12  N   UNL     1      -8.178  17.546  67.308  1.00  0.00    -0.205 N  
HETATM   13  H   UNL     1      -7.774  17.825  66.413  1.00  0.00     0.000 HD 
BRANCH  12  14
HETATM   14  C   UNL     1      -7.349  16.808  68.240  1.00  0.00    -0.183 C  
BRANCH  14  15
HETATM   15  C   UNL     1      -6.427  15.787  67.551  1.00  0.00    -0.203 C  
BRANCH  15  16
HETATM   16  C   UNL     1      -6.830  14.336  67.756  1.00  0.00    -0.189 A  
HETATM   17  C   UNL     1      -5.889  13.298  67.705  1.00  0.00    -0.132 A  
HETATM   18  C   UNL     1      -6.280  11.965  67.838  1.00  0.00    -0.061 A  
HETATM   19  C   UNL     1      -7.614  11.646  68.094  1.00  0.00    -0.115 A  
HETATM   20  C   UNL     1      -8.563  12.667  68.195  1.00  0.00    -0.188 A  
HETATM   21  C   UNL     1      -8.169  14.004  68.033  1.00  0.00    -0.155 A  
BRANCH  19  22
HETATM   22  S   UNL     1      -8.115   9.935  68.120  1.00  0.00    -0.105 S  
HETATM   23  O   UNL     1      -9.149   9.776  67.118  1.00  0.00    -0.134 OA 
HETATM   24  O   UNL     1      -6.933   9.103  68.084  1.00  0.00    -0.074 OA 
BRANCH  22  25
HETATM   25  N   UNL     1      -8.898   9.733  69.585  1.00  0.00    -0.195 N  
HETATM   26  H   UNL     1      -9.847  10.096  69.680  1.00  0.00     0.000 HD 
BRANCH  25  27
HETATM   27  C   UNL     1      -8.328   9.101  70.672  1.00  0.00    -0.205 C  
HETATM   28  O   UNL     1      -7.598   9.678  71.463  1.00  0.00    -0.199 OA 
BRANCH  27  29
HETATM   29  N   UNL     1      -8.646   7.769  70.801  1.00  0.00    -0.131 N  
HETATM   30  H   UNL     1      -8.661   7.155  69.987  1.00  0.00     0.000 HD 
BRANCH  29  31
HETATM   31  C   UNL     1      -8.963   7.255  72.131  1.00  0.00    -0.131 C  
HETATM   32  C   UNL     1     -10.447   7.390  72.491  1.00  0.00    -0.280 C  
HETATM   33  C   UNL     1     -11.336   6.252  71.994  1.00  0.00    -0.348 C  
HETATM   34  C   UNL     1     -10.766   4.860  72.285  1.00  0.00    -0.218 C  
HETATM   35  C   UNL     1      -9.338   4.760  71.738  1.00  0.00    -0.186 C  
HETATM   36  C   UNL     1     -10.832   4.503  73.775  1.00  0.00    -0.360 C  
HETATM   37  C   UNL     1      -8.417   5.831  72.318  1.00  0.00    -0.122 C  
ENDBRANCH  29  31
ENDBRANCH  27  29
ENDBRANCH  25  27
ENDBRANCH  22  25
ENDBRANCH  19  22
ENDBRANCH  15  16
ENDBRANCH  14  15
ENDBRANCH  12  14
ENDBRANCH  10  12
ENDBRANCH   7  10
ENDBRANCH   2   3
TORSDOF 11
ENDMDL
MODEL      196
REMARK 921   NORMALIZED FREE ENERGY PREDICTED BY IDOCK:   -4.68 KCAL/MOL
REMARK 922        TOTAL FREE ENERGY PREDICTED BY IDOCK:   -9.99 KCAL/MOL
REMARK 923 INTER-LIGAND FREE ENERGY PREDICTED BY IDOCK:   -8.85 KCAL/MOL
REMARK 924 INTRA-LIGAND FREE ENERGY PREDICTED BY IDOCK:   -1.15 KCAL/MOL
REMARK 927      BINDING AFFINITY PREDICTED BY RF-SCORE:    0.00 PKD
ROOT
HETATM    1  C   UNL     1     -10.647   3.902  64.385  1.00  0.00    -0.224 C  
HETATM    2  C   UNL     1      -9.232   4.263  64.809  1.00  0.00    -0.156 C  
ENDROOT
BRANCH   2   3
HETATM    3  C   UNL     1      -9.183   4.728  66.221  1.00  0.00    -0.141 C  
HETATM    4  C   UNL     1      -9.086   5.957  66.748  1.00  0.00    -0.130 C  
HETATM    5  C   UNL     1      -9.067   5.934  68.242  1.00  0.00    -0.118 C  
HETATM    6  C   UNL     1      -9.051   7.256  66.022  1.00  0.00    -0.117 C  
HETATM    7  N   UNL     1      -9.254   4.538  68.527  1.00  0.00    -0.124 N  
HETATM    8  O   UNL     1      -9.291   2.570  67.249  1.00  0.00    -0.155 OA 
HETATM    9  C   UNL     1      -9.253   3.785  67.358  1.00  0.00    -0.183 C  
BRANCH   7  10
HETATM   10  C   UNL     1      -9.609   4.121  69.797  1.00  0.00    -0.211 C  
HETATM   11  O   UNL     1      -9.274   3.028  70.248  1.00  0.00    -0.115 OA 
BRANCH  10  12
HETATM   12  N   UNL     1     -10.324   5.034  70.528  1.00  0.00    -0.245 N  
HETATM   13  H   UNL     1     -10.987   5.636  70.038  1.00  0.00     0.000 HD 
BRANCH  12  14
HETATM   14  C   UNL     1     -10.183   5.186  71.962  1.00  0.00    -0.202 C  
BRANCH  14  15
HETATM   15  C   UNL     1      -9.431   6.467  72.363  1.00  0.00    -0.143 C  
BRANCH  15  16
HETATM   16  C   UNL     1     -10.060   7.752  71.854  1.00  0.00    -0.231 A  
HETATM   17  C   UNL     1     -11.282   8.221  72.358  1.00  0.00    -0.451 A  
HETATM   18  C   UNL     1     -11.878   9.374  71.842  1.00  0.00    -0.402 A  
HETATM   19  C   UNL     1     -11.230  10.120  70.858  1.00  0.00    -0.307 A  
HETATM   20  C   UNL     1      -9.989   9.697  70.373  1.00  0.00    -0.330 A  
HETATM   21  C   UNL     1      -9.407   8.523  70.876  1.00  0.00    -0.214 A  
BRANCH  19  22
HETATM   22  S   UNL     1     -12.070  11.506  70.115  1.00  0.00    -0.338 S  
HETATM   23  O   UNL     1     -12.631  11.044  68.861  1.00  0.00    -0.366 OA 
HETATM   24  O   UNL     1     -12.921  12.123  71.109  1.00  0.00    -0.277 OA 
BRANCH  22  25
HETATM   25  N   UNL     1     -10.855  12.570  69.680  1.00  0.00    -0.402 N  
HETATM   26  H   UNL     1      -9.962  12.509  70.169  1.00  0.00     0.000 HD 
BRANCH  25  27
HETATM   27  C   UNL     1     -10.997  13.526  68.693  1.00  0.00    -0.263 C  
HETATM   28  O   UNL     1     -11.424  14.647  68.919  1.00  0.00    -0.267 OA 
BRANCH  27  29
HETATM   29  N   UNL     1     -10.617  13.121  67.435  1.00  0.00    -0.241 N  
HETATM   30  H   UNL     1      -9.655  13.236  67.118  1.00  0.00     0.000 HD 
BRANCH  29  31
HETATM   31  C   UNL     1     -11.625  12.522  66.563  1.00  0.00    -0.388 C  
HETATM   32  C   UNL     1     -12.491  13.562  65.842  1.00  0.00    -0.484 C  
HETATM   33  C   UNL     1     -11.896  14.107  64.545  1.00  0.00    -0.451 C  
HETATM   34  C   UNL     1     -11.358  13.015  63.614  1.00  0.00    -0.392 C  
HETATM   35  C   UNL     1     -10.370  12.126  64.376  1.00  0.00    -0.348 C  
HETATM   36  C   UNL     1     -12.481  12.195  62.967  1.00  0.00    -0.136 C  
HETATM   37  C   UNL     1     -10.995  11.491  65.616  1.00  0.00    -0.296 C  
ENDBRANCH  29  31
ENDBRANCH  27  29
ENDBRANCH  25  27
ENDBRANCH  22  25
ENDBRANCH  19  22
ENDBRANCH  15  16
ENDBRANCH  14  15
ENDBRANCH  12  14
ENDBRANCH  10  12
ENDBRANCH   7  10
ENDBRANCH   2   3
TORSDOF 11
ENDMDL
MODEL      197
REMARK 921   NORMALIZED FREE ENERGY PREDICTED BY IDOCK:   -4.67 KCAL/MOL
REMARK 922        TOTAL FREE ENERGY PREDICTED BY IDOCK:   -9.97 KCAL/MOL
REMARK 923 INTER-LIGAND FREE ENERGY PREDICTED BY IDOCK:   -8.24 KCAL/MOL
REMARK 924 INTRA-LIGAND FREE ENERGY PREDICTED BY IDOCK:   -1.73 KCAL/MOL
REMARK 927      BINDING AFFINITY PREDICTED BY RF-SCORE:    0.00 PKD
ROOT
HETATM    1  C   UNL     1     -12.655  15.849  73.042  1.00  0.00    -0.606 C  
HETATM    2  C   UNL     1     -13.487  15.470  71.826  1.00  0.00    -0.576 C  
ENDROOT
BRANCH   2   3
HETATM    3  C   UNL     1     -12.837  14.398  71.027  1.00  0.00    -0.423 C  
HETATM    4  C   UNL     1     -12.025  14.454  69.961  1.00  0.00    -0.394 C  
HETATM    5  C   UNL     1     -11.618  13.097  69.485  1.00  0.00    -0.283 C  
HETATM    6  C   UNL     1     -11.492  15.670  69.289  1.00  0.00    -0.368 C  
HETATM    7  N   UNL     1     -12.224  12.238  70.465  1.00  0.00    -0.350 N  
HETATM    8  O   UNL     1     -13.738  12.539  72.233  1.00  0.00    -0.482 OA 
HETATM    9  C   UNL     1     -13.013  12.966  71.349  1.00  0.00    -0.270 C  
BRANCH   7  10
HETATM   10  C   UNL     1     -11.836  10.915  70.576  1.00  0.00    -0.360 C  
HETATM   11  O   UNL     1     -11.024  10.400  69.810  1.00  0.00    -0.253 OA 
BRANCH  10  12
HETATM   12  N   UNL     1     -12.394  10.234  71.628  1.00  0.00    -0.384 N  
HETATM   13  H   UNL     1     -12.196  10.558  72.575  1.00  0.00     0.000 HD 
BRANCH  12  14
HETATM   14  C   UNL     1     -13.249   9.077  71.458  1.00  0.00    -0.334 C  
BRANCH  14  15
HETATM   15  C   UNL     1     -12.826   7.880  72.328  1.00  0.00    -0.152 C  
BRANCH  15  16
HETATM   16  C   UNL     1     -11.847   6.931  71.659  1.00  0.00    -0.363 A  
HETATM   17  C   UNL     1     -11.762   6.827  70.262  1.00  0.00    -0.397 A  
HETATM   18  C   UNL     1     -10.898   5.910  69.661  1.00  0.00    -0.444 A  
HETATM   19  C   UNL     1     -10.050   5.126  70.443  1.00  0.00    -0.262 A  
HETATM   20  C   UNL     1     -10.084   5.245  71.835  1.00  0.00    -0.252 A  
HETATM   21  C   UNL     1     -10.974   6.149  72.436  1.00  0.00    -0.299 A  
BRANCH  19  22
HETATM   22  S   UNL     1      -9.059   3.865  69.664  1.00  0.00    -0.138 S  
HETATM   23  O   UNL     1      -8.797   2.848  70.662  1.00  0.00    -0.071 OA 
HETATM   24  O   UNL     1      -9.668   3.506  68.402  1.00  0.00    -0.127 OA 
BRANCH  22  25
HETATM   25  N   UNL     1      -7.577   4.588  69.383  1.00  0.00    -0.055 N  
HETATM   26  H   UNL     1      -6.884   4.577  70.132  1.00  0.00     0.000 HD 
BRANCH  25  27
HETATM   27  C   UNL     1      -7.240   5.198  68.191  1.00  0.00    -0.067 C  
HETATM   28  O   UNL     1      -6.722   4.594  67.265  1.00  0.00    -0.049 OA 
BRANCH  27  29
HETATM   29  N   UNL     1      -7.536   6.539  68.122  1.00  0.00    -0.093 N  
HETATM   30  H   UNL     1      -8.455   6.885  68.394  1.00  0.00     0.000 HD 
BRANCH  29  31
HETATM   31  C   UNL     1      -6.500   7.456  67.652  1.00  0.00    -0.056 C  
HETATM   32  C   UNL     1      -7.048   8.572  66.754  1.00  0.00    -0.074 C  
HETATM   33  C   UNL     1      -7.591   9.790  67.499  1.00  0.00    -0.091 C  
HETATM   34  C   UNL     1      -6.653  10.301  68.598  1.00  0.00    -0.052 C  
HETATM   35  C   UNL     1      -6.294   9.154  69.548  1.00  0.00    -0.043 C  
HETATM   36  C   UNL     1      -5.402  10.981  68.027  1.00  0.00    -0.042 C  
HETATM   37  C   UNL     1      -5.649   7.976  68.820  1.00  0.00    -0.031 C  
ENDBRANCH  29  31
ENDBRANCH  27  29
ENDBRANCH  25  27
ENDBRANCH  22  25
ENDBRANCH  19  22
ENDBRANCH  15  16
ENDBRANCH  14  15
ENDBRANCH  12  14
ENDBRANCH  10  12
ENDBRANCH   7  10
ENDBRANCH   2   3
TORSDOF 11
ENDMDL
MODEL      198
REMARK 921   NORMALIZED FREE ENERGY PREDICTED BY IDOCK:   -4.65 KCAL/MOL
REMARK 922        TOTAL FREE ENERGY PREDICTED BY IDOCK:   -9.94 KCAL/MOL
REMARK 923 INTER-LIGAND FREE ENERGY PREDICTED BY IDOCK:   -8.75 KCAL/MOL
REMARK 924 INTRA-LIGAND FREE ENERGY PREDICTED BY IDOCK:   -1.19 KCAL/MOL
REMARK 927      BINDING AFFINITY PREDICTED BY RF-SCORE:    0.00 PKD
ROOT
HETATM    1  C   UNL     1      -8.422   7.051  66.104  1.00  0.00    -0.136 C  
HETATM    2  C   UNL     1      -7.728   6.097  67.065  1.00  0.00    -0.100 C  
ENDROOT
BRANCH   2   3
HETATM    3  C   UNL     1      -8.568   5.812  68.259  1.00  0.00    -0.112 C  
HETATM    4  C   UNL     1      -9.336   4.758  68.572  1.00  0.00    -0.181 C  
HETATM    5  C   UNL     1     -10.007   4.919  69.897  1.00  0.00    -0.247 C  
HETATM    6  C   UNL     1      -9.523   3.507  67.788  1.00  0.00    -0.230 C  
HETATM    7  N   UNL     1      -9.463   6.165  70.364  1.00  0.00    -0.160 N  
HETATM    8  O   UNL     1      -8.136   7.856  69.423  1.00  0.00    -0.120 OA 
HETATM    9  C   UNL     1      -8.666   6.757  69.391  1.00  0.00    -0.136 C  
BRANCH   7  10
HETATM   10  C   UNL     1      -9.584   6.531  71.692  1.00  0.00    -0.160 C  
HETATM   11  O   UNL     1      -8.800   6.145  72.556  1.00  0.00    -0.126 OA 
BRANCH  10  12
HETATM   12  N   UNL     1     -10.618   7.391  71.963  1.00  0.00    -0.205 N  
HETATM   13  H   UNL     1     -11.496   7.001  72.308  1.00  0.00     0.000 HD 
BRANCH  12  14
HETATM   14  C   UNL     1     -10.523   8.825  71.783  1.00  0.00    -0.346 C  
BRANCH  14  15
HETATM   15  C   UNL     1     -11.839   9.462  71.305  1.00  0.00    -0.435 C  
BRANCH  15  16
HETATM   16  C   UNL     1     -11.679  10.468  70.178  1.00  0.00    -0.410 A  
HETATM   17  C   UNL     1     -11.313  10.070  68.884  1.00  0.00    -0.123 A  
HETATM   18  C   UNL     1     -11.113  11.009  67.871  1.00  0.00    -0.347 A  
HETATM   19  C   UNL     1     -11.342  12.364  68.114  1.00  0.00    -0.291 A  
HETATM   20  C   UNL     1     -11.752  12.780  69.383  1.00  0.00    -0.380 A  
HETATM   21  C   UNL     1     -11.925  11.834  70.405  1.00  0.00    -0.422 A  
BRANCH  19  22
HETATM   22  S   UNL     1     -10.946  13.558  66.850  1.00  0.00    -0.292 S  
HETATM   23  O   UNL     1     -10.201  12.862  65.821  1.00  0.00    -0.280 OA 
HETATM   24  O   UNL     1     -12.146  14.292  66.510  1.00  0.00    -0.431 OA 
BRANCH  22  25
HETATM   25  N   UNL     1      -9.840  14.593  67.560  1.00  0.00    -0.218 N  
HETATM   26  H   UNL     1      -9.760  14.591  68.577  1.00  0.00     0.000 HD 
BRANCH  25  27
HETATM   27  C   UNL     1      -9.029  15.449  66.843  1.00  0.00    -0.247 C  
HETATM   28  O   UNL     1      -7.812  15.351  66.833  1.00  0.00    -0.217 OA 
BRANCH  27  29
HETATM   29  N   UNL     1      -9.695  16.422  66.135  1.00  0.00    -0.309 N  
HETATM   30  H   UNL     1      -9.654  16.447  65.117  1.00  0.00     0.000 HD 
BRANCH  29  31
HETATM   31  C   UNL     1     -10.463  17.419  66.877  1.00  0.00    -0.279 C  
HETATM   32  C   UNL     1      -9.948  17.634  68.306  1.00  0.00    -0.339 C  
HETATM   33  C   UNL     1      -8.798  18.631  68.432  1.00  0.00    -0.367 C  
HETATM   34  C   UNL     1      -9.038  19.940  67.670  1.00  0.00    -0.431 C  
HETATM   35  C   UNL     1      -9.380  19.632  66.208  1.00  0.00    -0.453 C  
HETATM   36  C   UNL     1     -10.108  20.814  68.335  1.00  0.00     0.221 C  
HETATM   37  C   UNL     1     -10.599  18.722  66.075  1.00  0.00    -0.442 C  
ENDBRANCH  29  31
ENDBRANCH  27  29
ENDBRANCH  25  27
ENDBRANCH  22  25
ENDBRANCH  19  22
ENDBRANCH  15  16
ENDBRANCH  14  15
ENDBRANCH  12  14
ENDBRANCH  10  12
ENDBRANCH   7  10
ENDBRANCH   2   3
TORSDOF 11
ENDMDL
MODEL      199
REMARK 921   NORMALIZED FREE ENERGY PREDICTED BY IDOCK:   -4.65 KCAL/MOL
REMARK 922        TOTAL FREE ENERGY PREDICTED BY IDOCK:   -9.94 KCAL/MOL
REMARK 923 INTER-LIGAND FREE ENERGY PREDICTED BY IDOCK:   -8.19 KCAL/MOL
REMARK 924 INTRA-LIGAND FREE ENERGY PREDICTED BY IDOCK:   -1.75 KCAL/MOL
REMARK 927      BINDING AFFINITY PREDICTED BY RF-SCORE:    0.00 PKD
ROOT
HETATM    1  C   UNL     1      -9.768   4.059  68.688  1.00  0.00    -0.138 C  
HETATM    2  C   UNL     1      -9.270   3.645  70.065  1.00  0.00    -0.223 C  
ENDROOT
BRANCH   2   3
HETATM    3  C   UNL     1      -8.814   4.816  70.859  1.00  0.00    -0.150 C  
HETATM    4  C   UNL     1      -7.665   5.508  70.841  1.00  0.00    -0.092 C  
HETATM    5  C   UNL     1      -7.657   6.620  71.840  1.00  0.00    -0.096 C  
HETATM    6  C   UNL     1      -6.499   5.307  69.939  1.00  0.00    -0.035 C  
HETATM    7  N   UNL     1      -8.985   6.548  72.385  1.00  0.00    -0.134 N  
HETATM    8  O   UNL     1     -10.777   5.043  72.208  1.00  0.00    -0.216 OA 
HETATM    9  C   UNL     1      -9.673   5.450  71.883  1.00  0.00    -0.163 C  
BRANCH   7  10
HETATM   10  C   UNL     1      -9.500   7.599  73.122  1.00  0.00    -0.243 C  
HETATM   11  O   UNL     1      -8.898   8.093  74.073  1.00  0.00    -0.236 OA 
BRANCH  10  12
HETATM   12  N   UNL     1     -10.710   8.074  72.686  1.00  0.00    -0.334 N  
HETATM   13  H   UNL     1     -11.506   8.032  73.323  1.00  0.00     0.000 HD 
BRANCH  12  14
HETATM   14  C   UNL     1     -10.912   8.632  71.365  1.00  0.00    -0.271 C  
BRANCH  14  15
HETATM   15  C   UNL     1     -11.775   9.906  71.372  1.00  0.00    -0.449 C  
BRANCH  15  16
HETATM   16  C   UNL     1     -11.617  10.781  70.140  1.00  0.00    -0.424 A  
HETATM   17  C   UNL     1     -11.946  12.144  70.161  1.00  0.00    -0.394 A  
HETATM   18  C   UNL     1     -11.851  12.925  69.007  1.00  0.00    -0.352 A  
HETATM   19  C   UNL     1     -11.358  12.373  67.824  1.00  0.00    -0.299 A  
HETATM   20  C   UNL     1     -10.981  11.028  67.792  1.00  0.00    -0.323 A  
HETATM   21  C   UNL     1     -11.104  10.241  68.947  1.00  0.00    -0.278 A  
BRANCH  19  22
HETATM   22  S   UNL     1     -11.377  13.347  66.330  1.00  0.00    -0.324 S  
HETATM   23  O   UNL     1     -12.585  14.146  66.355  1.00  0.00    -0.427 OA 
HETATM   24  O   UNL     1     -10.087  13.982  66.172  1.00  0.00    -0.290 OA 
BRANCH  22  25
HETATM   25  N   UNL     1     -11.613  12.244  65.095  1.00  0.00    -0.351 N  
HETATM   26  H   UNL     1     -12.534  11.818  64.997  1.00  0.00     0.000 HD 
BRANCH  25  27
HETATM   27  C   UNL     1     -10.626  11.881  64.199  1.00  0.00    -0.350 C  
HETATM   28  O   UNL     1     -10.723  12.075  62.998  1.00  0.00    -0.294 OA 
BRANCH  27  29
HETATM   29  N   UNL     1      -9.522  11.285  64.763  1.00  0.00    -0.295 N  
HETATM   30  H   UNL     1      -8.869  11.826  65.329  1.00  0.00     0.000 HD 
BRANCH  29  31
HETATM   31  C   UNL     1      -9.308   9.859  64.531  1.00  0.00    -0.275 C  
HETATM   32  C   UNL     1      -8.205   9.575  63.504  1.00  0.00    -0.164 C  
HETATM   33  C   UNL     1      -6.787   9.553  64.072  1.00  0.00    -0.105 C  
HETATM   34  C   UNL     1      -6.654   8.719  65.351  1.00  0.00    -0.067 C  
HETATM   35  C   UNL     1      -7.684   9.187  66.384  1.00  0.00    -0.096 C  
HETATM   36  C   UNL     1      -6.763   7.213  65.079  1.00  0.00    -0.047 C  
HETATM   37  C   UNL     1      -9.115   9.107  65.857  1.00  0.00    -0.256 C  
ENDBRANCH  29  31
ENDBRANCH  27  29
ENDBRANCH  25  27
ENDBRANCH  22  25
ENDBRANCH  19  22
ENDBRANCH  15  16
ENDBRANCH  14  15
ENDBRANCH  12  14
ENDBRANCH  10  12
ENDBRANCH   7  10
ENDBRANCH   2   3
TORSDOF 11
ENDMDL
MODEL      200
REMARK 921   NORMALIZED FREE ENERGY PREDICTED BY IDOCK:   -4.64 KCAL/MOL
REMARK 922        TOTAL FREE ENERGY PREDICTED BY IDOCK:   -9.94 KCAL/MOL
REMARK 923 INTER-LIGAND FREE ENERGY PREDICTED BY IDOCK:   -8.40 KCAL/MOL
REMARK 924 INTRA-LIGAND FREE ENERGY PREDICTED BY IDOCK:   -1.54 KCAL/MOL
REMARK 927      BINDING AFFINITY PREDICTED BY RF-SCORE:    0.00 PKD
ROOT
HETATM    1  C   UNL     1      -9.186   7.593  74.049  1.00  0.00    -0.239 C  
HETATM    2  C   UNL     1     -10.464   6.787  73.872  1.00  0.00    -0.356 C  
ENDROOT
BRANCH   2   3
HETATM    3  C   UNL     1     -10.745   6.509  72.439  1.00  0.00    -0.253 C  
HETATM    4  C   UNL     1     -11.614   7.065  71.582  1.00  0.00    -0.320 C  
HETATM    5  C   UNL     1     -11.545   6.447  70.223  1.00  0.00    -0.383 C  
HETATM    6  C   UNL     1     -12.541   8.201  71.837  1.00  0.00    -0.368 C  
HETATM    7  N   UNL     1     -10.460   5.516  70.368  1.00  0.00    -0.276 N  
HETATM    8  O   UNL     1      -9.176   4.724  72.166  1.00  0.00    -0.126 OA 
HETATM    9  C   UNL     1     -10.011   5.472  71.683  1.00  0.00    -0.182 C  
BRANCH   7  10
HETATM   10  C   UNL     1      -9.859   4.957  69.254  1.00  0.00    -0.201 C  
HETATM   11  O   UNL     1      -9.859   3.745  69.045  1.00  0.00    -0.096 OA 
BRANCH  10  12
HETATM   12  N   UNL     1      -9.302   5.857  68.383  1.00  0.00    -0.119 N  
HETATM   13  H   UNL     1      -8.502   6.407  68.698  1.00  0.00     0.000 HD 
BRANCH  12  14
HETATM   14  C   UNL     1      -9.796   6.066  67.037  1.00  0.00    -0.152 C  
BRANCH  14  15
HETATM   15  C   UNL     1     -10.568   7.387  66.874  1.00  0.00    -0.375 C  
BRANCH  15  16
HETATM   16  C   UNL     1      -9.730   8.636  67.091  1.00  0.00    -0.248 A  
HETATM   17  C   UNL     1      -9.982   9.514  68.156  1.00  0.00    -0.191 A  
HETATM   18  C   UNL     1      -9.242  10.688  68.311  1.00  0.00    -0.153 A  
HETATM   19  C   UNL     1      -8.188  10.974  67.443  1.00  0.00    -0.122 A  
HETATM   20  C   UNL     1      -7.888  10.090  66.403  1.00  0.00    -0.113 A  
HETATM   21  C   UNL     1      -8.653   8.925  66.235  1.00  0.00    -0.145 A  
BRANCH  19  22
HETATM   22  S   UNL     1      -7.349  12.542  67.573  1.00  0.00    -0.154 S  
HETATM   23  O   UNL     1      -7.505  12.999  68.939  1.00  0.00    -0.084 OA 
HETATM   24  O   UNL     1      -6.029  12.413  66.996  1.00  0.00    -0.254 OA 
BRANCH  22  25
HETATM   25  N   UNL     1      -8.261  13.601  66.654  1.00  0.00    -0.349 N  
HETATM   26  H   UNL     1      -8.003  13.739  65.677  1.00  0.00     0.000 HD 
BRANCH  25  27
HETATM   27  C   UNL     1      -9.345  14.299  67.148  1.00  0.00    -0.228 C  
HETATM   28  O   UNL     1     -10.478  13.844  67.146  1.00  0.00    -0.266 OA 
BRANCH  27  29
HETATM   29  N   UNL     1      -9.053  15.547  67.647  1.00  0.00    -0.181 N  
HETATM   30  H   UNL     1      -8.458  15.654  68.468  1.00  0.00     0.000 HD 
BRANCH  29  31
HETATM   31  C   UNL     1      -9.616  16.714  66.973  1.00  0.00    -0.244 C  
HETATM   32  C   UNL     1     -10.739  17.387  67.773  1.00  0.00    -0.332 C  
HETATM   33  C   UNL     1     -10.268  18.394  68.821  1.00  0.00    -0.333 C  
HETATM   34  C   UNL     1      -9.223  19.383  68.291  1.00  0.00    -0.402 C  
HETATM   35  C   UNL     1      -8.056  18.615  67.661  1.00  0.00    -0.262 C  
HETATM   36  C   UNL     1      -9.827  20.404  67.319  1.00  0.00    -0.597 C  
HETATM   37  C   UNL     1      -8.511  17.687  66.537  1.00  0.00    -0.294 C  
ENDBRANCH  29  31
ENDBRANCH  27  29
ENDBRANCH  25  27
ENDBRANCH  22  25
ENDBRANCH  19  22
ENDBRANCH  15  16
ENDBRANCH  14  15
ENDBRANCH  12  14
ENDBRANCH  10  12
ENDBRANCH   7  10
ENDBRANCH   2   3
TORSDOF 11
ENDMDL
MODEL      201
REMARK 921   NORMALIZED FREE ENERGY PREDICTED BY IDOCK:   -4.63 KCAL/MOL
REMARK 922        TOTAL FREE ENERGY PREDICTED BY IDOCK:   -9.91 KCAL/MOL
REMARK 923 INTER-LIGAND FREE ENERGY PREDICTED BY IDOCK:   -8.63 KCAL/MOL
REMARK 924 INTRA-LIGAND FREE ENERGY PREDICTED BY IDOCK:   -1.28 KCAL/MOL
REMARK 927      BINDING AFFINITY PREDICTED BY RF-SCORE:    0.00 PKD
ROOT
HETATM    1  C   UNL     1     -10.625   5.715  73.307  1.00  0.00    -0.280 C  
HETATM    2  C   UNL     1     -10.846   4.648  72.246  1.00  0.00    -0.085 C  
ENDROOT
BRANCH   2   3
HETATM    3  C   UNL     1     -10.057   4.924  71.016  1.00  0.00    -0.288 C  
HETATM    4  C   UNL     1      -8.847   4.499  70.624  1.00  0.00    -0.140 C  
HETATM    5  C   UNL     1      -8.455   5.052  69.292  1.00  0.00    -0.088 C  
HETATM    6  C   UNL     1      -7.946   3.548  71.331  1.00  0.00    -0.060 C  
HETATM    7  N   UNL     1      -9.630   5.786  68.911  1.00  0.00    -0.127 N  
HETATM    8  O   UNL     1     -11.627   6.402  69.980  1.00  0.00    -0.425 OA 
HETATM    9  C   UNL     1     -10.569   5.794  69.936  1.00  0.00    -0.318 C  
BRANCH   7  10
HETATM   10  C   UNL     1      -9.808   6.198  67.603  1.00  0.00    -0.120 C  
HETATM   11  O   UNL     1     -10.751   5.815  66.914  1.00  0.00    -0.285 OA 
BRANCH  10  12
HETATM   12  N   UNL     1      -8.878   7.097  67.147  1.00  0.00    -0.120 N  
HETATM   13  H   UNL     1      -8.061   6.741  66.651  1.00  0.00     0.000 HD 
BRANCH  12  14
HETATM   14  C   UNL     1      -9.001   8.528  67.338  1.00  0.00    -0.134 C  
BRANCH  14  15
HETATM   15  C   UNL     1     -10.332   9.095  66.813  1.00  0.00    -0.308 C  
BRANCH  15  16
HETATM   16  C   UNL     1     -10.719  10.441  67.402  1.00  0.00    -0.338 A  
HETATM   17  C   UNL     1     -11.411  11.401  66.648  1.00  0.00    -0.230 A  
HETATM   18  C   UNL     1     -11.710  12.656  67.183  1.00  0.00    -0.438 A  
HETATM   19  C   UNL     1     -11.384  12.952  68.506  1.00  0.00    -0.289 A  
HETATM   20  C   UNL     1     -10.736  11.995  69.291  1.00  0.00    -0.063 A  
HETATM   21  C   UNL     1     -10.412  10.745  68.740  1.00  0.00    -0.221 A  
BRANCH  19  22
HETATM   22  S   UNL     1     -11.648  14.604  69.123  1.00  0.00    -0.320 S  
HETATM   23  O   UNL     1     -11.827  15.467  67.973  1.00  0.00    -0.277 OA 
HETATM   24  O   UNL     1     -12.654  14.558  70.162  1.00  0.00    -0.341 OA 
BRANCH  22  25
HETATM   25  N   UNL     1     -10.182  15.061  69.785  1.00  0.00    -0.433 N  
HETATM   26  H   UNL     1     -10.097  15.084  70.802  1.00  0.00     0.000 HD 
BRANCH  25  27
HETATM   27  C   UNL     1      -9.080  15.409  69.029  1.00  0.00    -0.233 C  
HETATM   28  O   UNL     1      -8.050  14.754  69.024  1.00  0.00    -0.152 OA 
BRANCH  27  29
HETATM   29  N   UNL     1      -9.230  16.551  68.277  1.00  0.00    -0.208 N  
HETATM   30  H   UNL     1      -9.958  16.615  67.565  1.00  0.00     0.000 HD 
BRANCH  29  31
HETATM   31  C   UNL     1      -8.323  17.669  68.522  1.00  0.00    -0.291 C  
HETATM   32  C   UNL     1      -7.150  17.720  67.534  1.00  0.00    -0.198 C  
HETATM   33  C   UNL     1      -7.448  18.433  66.217  1.00  0.00    -0.294 C  
HETATM   34  C   UNL     1      -8.147  19.785  66.399  1.00  0.00    -0.350 C  
HETATM   35  C   UNL     1      -9.403  19.608  67.258  1.00  0.00    -0.429 C  
HETATM   36  C   UNL     1      -7.208  20.853  66.974  1.00  0.00    -0.351 C  
HETATM   37  C   UNL     1      -9.093  18.995  68.622  1.00  0.00    -0.401 C  
ENDBRANCH  29  31
ENDBRANCH  27  29
ENDBRANCH  25  27
ENDBRANCH  22  25
ENDBRANCH  19  22
ENDBRANCH  15  16
ENDBRANCH  14  15
ENDBRANCH  12  14
ENDBRANCH  10  12
ENDBRANCH   7  10
ENDBRANCH   2   3
TORSDOF 11
ENDMDL
MODEL      202
REMARK 921   NORMALIZED FREE ENERGY PREDICTED BY IDOCK:   -4.57 KCAL/MOL
REMARK 922        TOTAL FREE ENERGY PREDICTED BY IDOCK:   -9.81 KCAL/MOL
REMARK 923 INTER-LIGAND FREE ENERGY PREDICTED BY IDOCK:   -8.53 KCAL/MOL
REMARK 924 INTRA-LIGAND FREE ENERGY PREDICTED BY IDOCK:   -1.27 KCAL/MOL
REMARK 927      BINDING AFFINITY PREDICTED BY RF-SCORE:    0.00 PKD
ROOT
HETATM    1  C   UNL     1      -6.812   7.631  70.205  1.00  0.00    -0.047 C  
HETATM    2  C   UNL     1      -8.113   7.116  70.804  1.00  0.00    -0.109 C  
ENDROOT
BRANCH   2   3
HETATM    3  C   UNL     1      -9.081   6.712  69.751  1.00  0.00    -0.143 C  
HETATM    4  C   UNL     1     -10.323   7.138  69.477  1.00  0.00    -0.224 C  
HETATM    5  C   UNL     1     -10.922   6.425  68.308  1.00  0.00    -0.312 C  
HETATM    6  C   UNL     1     -11.083   8.221  70.159  1.00  0.00    -0.189 C  
HETATM    7  N   UNL     1      -9.838   5.587  67.875  1.00  0.00    -0.131 N  
HETATM    8  O   UNL     1      -7.724   5.028  68.729  1.00  0.00    -0.076 OA 
HETATM    9  C   UNL     1      -8.759   5.676  68.747  1.00  0.00    -0.106 C  
BRANCH   7  10
HETATM   10  C   UNL     1      -9.866   4.989  66.628  1.00  0.00    -0.196 C  
HETATM   11  O   UNL     1      -9.843   3.769  66.482  1.00  0.00    -0.173 OA 
BRANCH  10  12
HETATM   12  N   UNL     1      -9.962   5.858  65.571  1.00  0.00    -0.142 N  
HETATM   13  H   UNL     1     -10.858   6.314  65.397  1.00  0.00     0.000 HD 
BRANCH  12  14
HETATM   14  C   UNL     1      -8.851   6.160  64.691  1.00  0.00     0.333 C  
BRANCH  14  15
HETATM   15  C   UNL     1      -7.966   7.308  65.207  1.00  0.00    -0.127 C  
BRANCH  15  16
HETATM   16  C   UNL     1      -8.669   8.651  65.306  1.00  0.00    -0.200 A  
HETATM   17  C   UNL     1      -9.369   9.031  66.460  1.00  0.00    -0.246 A  
HETATM   18  C   UNL     1     -10.059  10.243  66.517  1.00  0.00    -0.290 A  
HETATM   19  C   UNL     1     -10.006  11.133  65.444  1.00  0.00    -0.259 A  
HETATM   20  C   UNL     1      -9.277  10.796  64.300  1.00  0.00    -0.246 A  
HETATM   21  C   UNL     1      -8.607   9.564  64.238  1.00  0.00    -0.215 A  
BRANCH  19  22
HETATM   22  S   UNL     1     -11.006  12.608  65.481  1.00  0.00    -0.288 S  
HETATM   23  O   UNL     1     -10.323  13.609  64.686  1.00  0.00    -0.418 OA 
HETATM   24  O   UNL     1     -12.375  12.251  65.180  1.00  0.00    -0.520 OA 
BRANCH  22  25
HETATM   25  N   UNL     1     -10.906  13.163  67.055  1.00  0.00    -0.262 N  
HETATM   26  H   UNL     1     -10.092  13.719  67.321  1.00  0.00     0.000 HD 
BRANCH  25  27
HETATM   27  C   UNL     1     -11.866  12.910  68.015  1.00  0.00    -0.343 C  
HETATM   28  O   UNL     1     -12.240  11.781  68.291  1.00  0.00    -0.486 OA 
BRANCH  27  29
HETATM   29  N   UNL     1     -12.368  14.026  68.642  1.00  0.00    -0.503 N  
HETATM   30  H   UNL     1     -13.130  14.560  68.225  1.00  0.00     0.000 HD 
BRANCH  29  31
HETATM   31  C   UNL     1     -11.784  14.429  69.919  1.00  0.00    -0.303 C  
HETATM   32  C   UNL     1     -12.371  15.736  70.464  1.00  0.00    -0.388 C  
HETATM   33  C   UNL     1     -13.663  15.578  71.264  1.00  0.00    -0.482 C  
HETATM   34  C   UNL     1     -13.599  14.459  72.310  1.00  0.00    -0.549 C  
HETATM   35  C   UNL     1     -13.167  13.149  71.642  1.00  0.00    -0.435 C  
HETATM   36  C   UNL     1     -12.695  14.819  73.496  1.00  0.00    -0.566 C  
HETATM   37  C   UNL     1     -11.821  13.274  70.932  1.00  0.00     0.109 C  
ENDBRANCH  29  31
ENDBRANCH  27  29
ENDBRANCH  25  27
ENDBRANCH  22  25
ENDBRANCH  19  22
ENDBRANCH  15  16
ENDBRANCH  14  15
ENDBRANCH  12  14
ENDBRANCH  10  12
ENDBRANCH   7  10
ENDBRANCH   2   3
TORSDOF 11
ENDMDL
MODEL      203
REMARK 921   NORMALIZED FREE ENERGY PREDICTED BY IDOCK:   -4.56 KCAL/MOL
REMARK 922        TOTAL FREE ENERGY PREDICTED BY IDOCK:   -9.80 KCAL/MOL
REMARK 923 INTER-LIGAND FREE ENERGY PREDICTED BY IDOCK:   -8.35 KCAL/MOL
REMARK 924 INTRA-LIGAND FREE ENERGY PREDICTED BY IDOCK:   -1.46 KCAL/MOL
REMARK 927      BINDING AFFINITY PREDICTED BY RF-SCORE:    0.00 PKD
ROOT
HETATM    1  C   UNL     1      -7.335   9.178  66.036  1.00  0.00    -0.094 C  
HETATM    2  C   UNL     1      -8.236   8.010  65.664  1.00  0.00    -0.135 C  
ENDROOT
BRANCH   2   3
HETATM    3  C   UNL     1      -8.596   7.193  66.853  1.00  0.00    -0.124 C  
HETATM    4  C   UNL     1      -7.891   6.298  67.561  1.00  0.00    -0.105 C  
HETATM    5  C   UNL     1      -8.682   5.715  68.687  1.00  0.00    -0.106 C  
HETATM    6  C   UNL     1      -6.470   5.903  67.365  1.00  0.00    -0.047 C  
HETATM    7  N   UNL     1      -9.915   6.449  68.603  1.00  0.00    -0.141 N  
HETATM    8  O   UNL     1     -10.852   7.958  67.069  1.00  0.00    -0.305 OA 
HETATM    9  C   UNL     1      -9.929   7.278  67.488  1.00  0.00    -0.169 C  
BRANCH   7  10
HETATM   10  C   UNL     1     -10.812   6.440  69.656  1.00  0.00    -0.320 C  
HETATM   11  O   UNL     1     -10.845   5.532  70.484  1.00  0.00    -0.269 OA 
BRANCH  10  12
HETATM   12  N   UNL     1     -11.630   7.537  69.729  1.00  0.00    -0.466 N  
HETATM   13  H   UNL     1     -12.413   7.604  69.078  1.00  0.00     0.000 HD 
BRANCH  12  14
HETATM   14  C   UNL     1     -11.437   8.607  70.688  1.00  0.00    -0.228 C  
BRANCH  14  15
HETATM   15  C   UNL     1     -10.140   9.401  70.453  1.00  0.00    -0.310 C  
BRANCH  15  16
HETATM   16  C   UNL     1     -10.321  10.677  69.647  1.00  0.00    -0.185 A  
HETATM   17  C   UNL     1     -11.510  11.419  69.703  1.00  0.00    -0.380 A  
HETATM   18  C   UNL     1     -11.684  12.558  68.915  1.00  0.00    -0.367 A  
HETATM   19  C   UNL     1     -10.647  13.017  68.104  1.00  0.00    -0.245 A  
HETATM   20  C   UNL     1      -9.436  12.320  68.067  1.00  0.00    -0.206 A  
HETATM   21  C   UNL     1      -9.275  11.160  68.840  1.00  0.00    -0.106 A  
BRANCH  19  22
HETATM   22  S   UNL     1     -10.939  14.388  67.002  1.00  0.00    -0.312 S  
HETATM   23  O   UNL     1      -9.707  14.624  66.275  1.00  0.00    -0.276 OA 
HETATM   24  O   UNL     1     -12.173  14.155  66.284  1.00  0.00    -0.437 OA 
BRANCH  22  25
HETATM   25  N   UNL     1     -11.115  15.719  67.999  1.00  0.00    -0.332 N  
HETATM   26  H   UNL     1     -11.744  15.644  68.798  1.00  0.00     0.000 HD 
BRANCH  25  27
HETATM   27  C   UNL     1     -10.452  16.914  67.799  1.00  0.00    -0.340 C  
HETATM   28  O   UNL     1     -10.904  17.809  67.102  1.00  0.00    -0.267 OA 
BRANCH  27  29
HETATM   29  N   UNL     1      -9.244  17.023  68.446  1.00  0.00    -0.251 N  
HETATM   30  H   UNL     1      -9.172  16.851  69.449  1.00  0.00     0.000 HD 
BRANCH  29  31
HETATM   31  C   UNL     1      -8.067  17.392  67.664  1.00  0.00    -0.197 C  
HETATM   32  C   UNL     1      -8.269  18.667  66.837  1.00  0.00    -0.268 C  
HETATM   33  C   UNL     1      -8.005  19.971  67.588  1.00  0.00    -0.338 C  
HETATM   34  C   UNL     1      -6.693  19.964  68.380  1.00  0.00    -0.332 C  
HETATM   35  C   UNL     1      -6.654  18.744  69.306  1.00  0.00    -0.298 C  
HETATM   36  C   UNL     1      -5.461  20.028  67.468  1.00  0.00    -0.185 C  
HETATM   37  C   UNL     1      -6.808  17.430  68.544  1.00  0.00    -0.203 C  
ENDBRANCH  29  31
ENDBRANCH  27  29
ENDBRANCH  25  27
ENDBRANCH  22  25
ENDBRANCH  19  22
ENDBRANCH  15  16
ENDBRANCH  14  15
ENDBRANCH  12  14
ENDBRANCH  10  12
ENDBRANCH   7  10
ENDBRANCH   2   3
TORSDOF 11
ENDMDL
MODEL      204
REMARK 921   NORMALIZED FREE ENERGY PREDICTED BY IDOCK:   -4.56 KCAL/MOL
REMARK 922        TOTAL FREE ENERGY PREDICTED BY IDOCK:   -9.80 KCAL/MOL
REMARK 923 INTER-LIGAND FREE ENERGY PREDICTED BY IDOCK:   -7.73 KCAL/MOL
REMARK 924 INTRA-LIGAND FREE ENERGY PREDICTED BY IDOCK:   -2.07 KCAL/MOL
REMARK 927      BINDING AFFINITY PREDICTED BY RF-SCORE:    0.00 PKD
ROOT
HETATM    1  C   UNL     1      -8.001   7.900  66.957  1.00  0.00    -0.112 C  
HETATM    2  C   UNL     1      -7.596   6.593  67.622  1.00  0.00    -0.106 C  
ENDROOT
BRANCH   2   3
HETATM    3  C   UNL     1      -7.637   6.694  69.105  1.00  0.00    -0.100 C  
HETATM    4  C   UNL     1      -6.725   7.123  69.990  1.00  0.00    -0.051 C  
HETATM    5  C   UNL     1      -7.217   7.035  71.399  1.00  0.00    -0.078 C  
HETATM    6  C   UNL     1      -5.379   7.689  69.705  1.00  0.00    -0.023 C  
HETATM    7  N   UNL     1      -8.569   6.581  71.220  1.00  0.00    -0.126 N  
HETATM    8  O   UNL     1      -9.838   5.807  69.404  1.00  0.00    -0.149 OA 
HETATM    9  C   UNL     1      -8.829   6.299  69.884  1.00  0.00    -0.141 C  
BRANCH   7  10
HETATM   10  C   UNL     1      -9.481   6.665  72.256  1.00  0.00    -0.145 C  
HETATM   11  O   UNL     1      -9.893   5.673  72.853  1.00  0.00    -0.164 OA 
BRANCH  10  12
HETATM   12  N   UNL     1      -9.858   7.940  72.594  1.00  0.00    -0.226 N  
HETATM   13  H   UNL     1      -9.148   8.578  72.954  1.00  0.00     0.000 HD 
BRANCH  12  14
HETATM   14  C   UNL     1     -11.218   8.424  72.463  1.00  0.00    -0.336 C  
BRANCH  14  15
HETATM   15  C   UNL     1     -11.729   8.405  71.012  1.00  0.00    -0.296 C  
BRANCH  15  16
HETATM   16  C   UNL     1     -11.372   9.640  70.202  1.00  0.00    -0.275 A  
HETATM   17  C   UNL     1     -11.930  10.894  70.491  1.00  0.00    -0.466 A  
HETATM   18  C   UNL     1     -11.638  12.010  69.705  1.00  0.00    -0.371 A  
HETATM   19  C   UNL     1     -10.728  11.909  68.653  1.00  0.00    -0.235 A  
HETATM   20  C   UNL     1     -10.124  10.680  68.375  1.00  0.00    -0.181 A  
HETATM   21  C   UNL     1     -10.442   9.555  69.152  1.00  0.00    -0.224 A  
BRANCH  19  22
HETATM   22  S   UNL     1     -10.477  13.308  67.576  1.00  0.00    -0.237 S  
HETATM   23  O   UNL     1     -10.422  12.800  66.220  1.00  0.00    -0.251 OA 
HETATM   24  O   UNL     1     -11.425  14.342  67.927  1.00  0.00    -0.288 OA 
BRANCH  22  25
HETATM   25  N   UNL     1      -8.925  13.837  67.903  1.00  0.00    -0.183 N  
HETATM   26  H   UNL     1      -8.147  13.209  67.699  1.00  0.00     0.000 HD 
BRANCH  25  27
HETATM   27  C   UNL     1      -8.639  15.079  68.436  1.00  0.00    -0.162 C  
HETATM   28  O   UNL     1      -8.077  15.222  69.510  1.00  0.00    -0.231 OA 
BRANCH  27  29
HETATM   29  N   UNL     1      -9.035  16.146  67.663  1.00  0.00    -0.191 N  
HETATM   30  H   UNL     1      -9.357  16.006  66.706  1.00  0.00     0.000 HD 
BRANCH  29  31
HETATM   31  C   UNL     1      -8.982  17.484  68.247  1.00  0.00    -0.267 C  
HETATM   32  C   UNL     1      -7.866  18.354  67.656  1.00  0.00    -0.240 C  
HETATM   33  C   UNL     1      -8.233  19.084  66.365  1.00  0.00    -0.314 C  
HETATM   34  C   UNL     1      -9.587  19.798  66.431  1.00  0.00    -0.508 C  
HETATM   35  C   UNL     1     -10.673  18.808  66.866  1.00  0.00    -0.406 C  
HETATM   36  C   UNL     1      -9.550  21.037  67.334  1.00  0.00    -0.261 C  
HETATM   37  C   UNL     1     -10.362  18.157  68.212  1.00  0.00    -0.377 C  
ENDBRANCH  29  31
ENDBRANCH  27  29
ENDBRANCH  25  27
ENDBRANCH  22  25
ENDBRANCH  19  22
ENDBRANCH  15  16
ENDBRANCH  14  15
ENDBRANCH  12  14
ENDBRANCH  10  12
ENDBRANCH   7  10
ENDBRANCH   2   3
TORSDOF 11
ENDMDL
MODEL      205
REMARK 921   NORMALIZED FREE ENERGY PREDICTED BY IDOCK:   -4.55 KCAL/MOL
REMARK 922        TOTAL FREE ENERGY PREDICTED BY IDOCK:   -9.77 KCAL/MOL
REMARK 923 INTER-LIGAND FREE ENERGY PREDICTED BY IDOCK:   -7.83 KCAL/MOL
REMARK 924 INTRA-LIGAND FREE ENERGY PREDICTED BY IDOCK:   -1.94 KCAL/MOL
REMARK 927      BINDING AFFINITY PREDICTED BY RF-SCORE:    0.00 PKD
ROOT
HETATM    1  C   UNL     1     -13.072  10.189  70.999  1.00  0.00    -0.458 C  
HETATM    2  C   UNL     1     -12.201   9.724  72.157  1.00  0.00    -0.130 C  
ENDROOT
BRANCH   2   3
HETATM    3  C   UNL     1     -11.503   8.449  71.842  1.00  0.00    -0.384 C  
HETATM    4  C   UNL     1     -11.975   7.230  71.542  1.00  0.00    -0.349 C  
HETATM    5  C   UNL     1     -10.880   6.241  71.303  1.00  0.00    -0.265 C  
HETATM    6  C   UNL     1     -13.396   6.819  71.388  1.00  0.00    -0.150 C  
HETATM    7  N   UNL     1      -9.703   7.059  71.413  1.00  0.00    -0.170 N  
HETATM    8  O   UNL     1      -9.267   9.266  72.082  1.00  0.00    -0.185 OA 
HETATM    9  C   UNL     1     -10.028   8.353  71.803  1.00  0.00    -0.241 C  
BRANCH   7  10
HETATM   10  C   UNL     1      -8.482   6.600  70.953  1.00  0.00    -0.133 C  
HETATM   11  O   UNL     1      -7.604   6.192  71.710  1.00  0.00    -0.093 OA 
BRANCH  10  12
HETATM   12  N   UNL     1      -8.342   6.595  69.589  1.00  0.00    -0.130 N  
HETATM   13  H   UNL     1      -8.086   5.721  69.130  1.00  0.00     0.000 HD 
BRANCH  12  14
HETATM   14  C   UNL     1      -8.541   7.773  68.769  1.00  0.00    -0.129 C  
BRANCH  14  15
HETATM   15  C   UNL     1      -7.610   8.938  69.150  1.00  0.00    -0.080 C  
BRANCH  15  16
HETATM   16  C   UNL     1      -8.112  10.309  68.729  1.00  0.00    -0.120 A  
HETATM   17  C   UNL     1      -7.248  11.274  68.192  1.00  0.00    -0.081 A  
HETATM   18  C   UNL     1      -7.710  12.550  67.862  1.00  0.00    -0.138 A  
HETATM   19  C   UNL     1      -9.062  12.864  67.998  1.00  0.00    -0.211 A  
HETATM   20  C   UNL     1      -9.951  11.903  68.488  1.00  0.00    -0.196 A  
HETATM   21  C   UNL     1      -9.476  10.631  68.844  1.00  0.00    -0.199 A  
BRANCH  19  22
HETATM   22  S   UNL     1      -9.605  14.537  67.705  1.00  0.00    -0.218 S  
HETATM   23  O   UNL     1      -8.645  15.148  66.809  1.00  0.00    -0.243 OA 
HETATM   24  O   UNL     1     -11.011  14.517  67.363  1.00  0.00    -0.288 OA 
BRANCH  22  25
HETATM   25  N   UNL     1      -9.396  15.325  69.166  1.00  0.00    -0.223 N  
HETATM   26  H   UNL     1      -8.663  14.993  69.793  1.00  0.00     0.000 HD 
BRANCH  25  27
HETATM   27  C   UNL     1     -10.163  16.400  69.568  1.00  0.00    -0.244 C  
HETATM   28  O   UNL     1     -10.331  17.388  68.869  1.00  0.00    -0.335 OA 
BRANCH  27  29
HETATM   29  N   UNL     1     -10.728  16.276  70.815  1.00  0.00     0.081 N  
HETATM   30  H   UNL     1     -10.171  16.417  71.657  1.00  0.00     0.000 HD 
BRANCH  29  31
HETATM   31  C   UNL     1     -12.147  15.936  70.905  1.00  0.00    -0.374 C  
HETATM   32  C   UNL     1     -12.499  14.628  70.186  1.00  0.00    -0.369 C  
HETATM   33  C   UNL     1     -12.287  13.362  71.013  1.00  0.00    -0.401 C  
HETATM   34  C   UNL     1     -12.869  13.452  72.428  1.00  0.00    -0.250 C  
HETATM   35  C   UNL     1     -12.328  14.700  73.132  1.00  0.00    -0.351 C  
HETATM   36  C   UNL     1     -14.403  13.415  72.431  1.00  0.00    -0.257 C  
HETATM   37  C   UNL     1     -12.634  15.982  72.361  1.00  0.00    -0.521 C  
ENDBRANCH  29  31
ENDBRANCH  27  29
ENDBRANCH  25  27
ENDBRANCH  22  25
ENDBRANCH  19  22
ENDBRANCH  15  16
ENDBRANCH  14  15
ENDBRANCH  12  14
ENDBRANCH  10  12
ENDBRANCH   7  10
ENDBRANCH   2   3
TORSDOF 11
ENDMDL
MODEL      206
REMARK 921   NORMALIZED FREE ENERGY PREDICTED BY IDOCK:   -4.51 KCAL/MOL
REMARK 922        TOTAL FREE ENERGY PREDICTED BY IDOCK:   -9.71 KCAL/MOL
REMARK 923 INTER-LIGAND FREE ENERGY PREDICTED BY IDOCK:   -8.20 KCAL/MOL
REMARK 924 INTRA-LIGAND FREE ENERGY PREDICTED BY IDOCK:   -1.51 KCAL/MOL
REMARK 927      BINDING AFFINITY PREDICTED BY RF-SCORE:    0.00 PKD
ROOT
HETATM    1  C   UNL     1     -10.173   2.950  74.544  1.00  0.00    -0.201 C  
HETATM    2  C   UNL     1     -10.859   3.545  73.322  1.00  0.00    -0.288 C  
ENDROOT
BRANCH   2   3
HETATM    3  C   UNL     1      -9.873   4.012  72.311  1.00  0.00    -0.224 C  
HETATM    4  C   UNL     1      -9.332   3.396  71.249  1.00  0.00    -0.208 C  
HETATM    5  C   UNL     1      -8.369   4.273  70.516  1.00  0.00    -0.070 C  
HETATM    6  C   UNL     1      -9.628   2.028  70.745  1.00  0.00    -0.167 C  
HETATM    7  N   UNL     1      -8.482   5.514  71.232  1.00  0.00    -0.125 N  
HETATM    8  O   UNL     1      -9.534   6.201  73.214  1.00  0.00    -0.142 OA 
HETATM    9  C   UNL     1      -9.305   5.376  72.344  1.00  0.00    -0.143 C  
BRANCH   7  10
HETATM   10  C   UNL     1      -7.989   6.686  70.689  1.00  0.00    -0.111 C  
HETATM   11  O   UNL     1      -7.058   6.700  69.887  1.00  0.00    -0.064 OA 
BRANCH  10  12
HETATM   12  N   UNL     1      -8.644   7.826  71.081  1.00  0.00    -0.128 N  
HETATM   13  H   UNL     1      -8.453   8.200  72.011  1.00  0.00     0.000 HD 
BRANCH  12  14
HETATM   14  C   UNL     1      -9.593   8.522  70.237  1.00  0.00    -0.167 C  
BRANCH  14  15
HETATM   15  C   UNL     1      -9.176   9.970  69.925  1.00  0.00    -0.195 C  
BRANCH  15  16
HETATM   16  C   UNL     1      -9.735  10.521  68.624  1.00  0.00    -0.175 A  
HETATM   17  C   UNL     1      -8.998  10.479  67.432  1.00  0.00    -0.139 A  
HETATM   18  C   UNL     1      -9.500  11.040  66.256  1.00  0.00    -0.219 A  
HETATM   19  C   UNL     1     -10.780  11.593  66.232  1.00  0.00    -0.272 A  
HETATM   20  C   UNL     1     -11.552  11.604  67.397  1.00  0.00    -0.330 A  
HETATM   21  C   UNL     1     -11.032  11.064  68.583  1.00  0.00    -0.271 A  
BRANCH  19  22
HETATM   22  S   UNL     1     -11.345  12.427  64.760  1.00  0.00    -0.327 S  
HETATM   23  O   UNL     1     -11.136  11.522  63.648  1.00  0.00    -0.397 OA 
HETATM   24  O   UNL     1     -12.657  12.980  65.013  1.00  0.00    -0.520 OA 
BRANCH  22  25
HETATM   25  N   UNL     1     -10.252  13.670  64.517  1.00  0.00    -0.647 N  
HETATM   26  H   UNL     1      -9.443  13.493  63.921  1.00  0.00     0.000 HD 
BRANCH  25  27
HETATM   27  C   UNL     1     -10.386  14.923  65.081  1.00  0.00    -0.401 C  
HETATM   28  O   UNL     1     -11.197  15.743  64.680  1.00  0.00    -0.445 OA 
BRANCH  27  29
HETATM   29  N   UNL     1      -9.538  15.180  66.132  1.00  0.00    -0.293 N  
HETATM   30  H   UNL     1      -8.652  15.662  65.982  1.00  0.00     0.000 HD 
BRANCH  29  31
HETATM   31  C   UNL     1      -9.936  14.746  67.469  1.00  0.00    -0.219 C  
HETATM   32  C   UNL     1      -8.949  15.177  68.561  1.00  0.00    -0.186 C  
HETATM   33  C   UNL     1      -9.167  16.587  69.106  1.00  0.00    -0.197 C  
HETATM   34  C   UNL     1     -10.629  16.886  69.458  1.00  0.00    -0.239 C  
HETATM   35  C   UNL     1     -11.523  16.588  68.251  1.00  0.00    -0.075 C  
HETATM   36  C   UNL     1     -11.092  16.134  70.712  1.00  0.00    -0.281 C  
HETATM   37  C   UNL     1     -11.389  15.145  67.770  1.00  0.00    -0.335 C  
ENDBRANCH  29  31
ENDBRANCH  27  29
ENDBRANCH  25  27
ENDBRANCH  22  25
ENDBRANCH  19  22
ENDBRANCH  15  16
ENDBRANCH  14  15
ENDBRANCH  12  14
ENDBRANCH  10  12
ENDBRANCH   7  10
ENDBRANCH   2   3
TORSDOF 11
ENDMDL
MODEL      207
REMARK 921   NORMALIZED FREE ENERGY PREDICTED BY IDOCK:   -4.50 KCAL/MOL
REMARK 922        TOTAL FREE ENERGY PREDICTED BY IDOCK:   -9.70 KCAL/MOL
REMARK 923 INTER-LIGAND FREE ENERGY PREDICTED BY IDOCK:   -8.23 KCAL/MOL
REMARK 924 INTRA-LIGAND FREE ENERGY PREDICTED BY IDOCK:   -1.46 KCAL/MOL
REMARK 927      BINDING AFFINITY PREDICTED BY RF-SCORE:    0.00 PKD
ROOT
HETATM    1  C   UNL     1      -5.750   6.567  68.085  1.00  0.00    -0.012 C  
HETATM    2  C   UNL     1      -6.620   7.693  68.621  1.00  0.00    -0.053 C  
ENDROOT
BRANCH   2   3
HETATM    3  C   UNL     1      -7.591   7.203  69.636  1.00  0.00    -0.104 C  
HETATM    4  C   UNL     1      -7.458   6.965  70.949  1.00  0.00    -0.083 C  
HETATM    5  C   UNL     1      -8.724   6.468  71.567  1.00  0.00    -0.132 C  
HETATM    6  C   UNL     1      -6.253   7.188  71.794  1.00  0.00    -0.037 C  
HETATM    7  N   UNL     1      -9.644   6.530  70.464  1.00  0.00    -0.169 N  
HETATM    8  O   UNL     1      -9.456   6.939  68.161  1.00  0.00    -0.125 OA 
HETATM    9  C   UNL     1      -8.994   6.889  69.290  1.00  0.00    -0.137 C  
BRANCH   7  10
HETATM   10  C   UNL     1     -11.008   6.451  70.681  1.00  0.00    -0.298 C  
HETATM   11  O   UNL     1     -11.528   5.505  71.268  1.00  0.00    -0.018 OA 
BRANCH  10  12
HETATM   12  N   UNL     1     -11.729   7.527  70.230  1.00  0.00    -0.493 N  
HETATM   13  H   UNL     1     -12.117   7.490  69.287  1.00  0.00     0.000 HD 
BRANCH  12  14
HETATM   14  C   UNL     1     -11.965   8.713  71.028  1.00  0.00    -0.243 C  
BRANCH  14  15
HETATM   15  C   UNL     1     -10.788   9.703  71.001  1.00  0.00    -0.412 C  
BRANCH  15  16
HETATM   16  C   UNL     1     -10.829  10.700  69.856  1.00  0.00    -0.301 A  
HETATM   17  C   UNL     1      -9.901  10.651  68.805  1.00  0.00    -0.196 A  
HETATM   18  C   UNL     1      -9.915  11.608  67.788  1.00  0.00    -0.191 A  
HETATM   19  C   UNL     1     -10.901  12.594  67.764  1.00  0.00    -0.221 A  
HETATM   20  C   UNL     1     -11.864  12.635  68.776  1.00  0.00    -0.341 A  
HETATM   21  C   UNL     1     -11.830  11.688  69.810  1.00  0.00    -0.428 A  
BRANCH  19  22
HETATM   22  S   UNL     1     -10.816  13.886  66.538  1.00  0.00    -0.297 S  
HETATM   23  O   UNL     1     -10.091  13.353  65.403  1.00  0.00    -0.295 OA 
HETATM   24  O   UNL     1     -12.138  14.446  66.359  1.00  0.00    -0.414 OA 
BRANCH  22  25
HETATM   25  N   UNL     1      -9.802  15.043  67.194  1.00  0.00    -0.231 N  
HETATM   26  H   UNL     1      -8.967  14.730  67.689  1.00  0.00     0.000 HD 
BRANCH  25  27
HETATM   27  C   UNL     1     -10.035  16.401  67.101  1.00  0.00    -0.260 C  
HETATM   28  O   UNL     1     -10.958  16.953  67.680  1.00  0.00    -0.285 OA 
BRANCH  27  29
HETATM   29  N   UNL     1      -9.147  17.089  66.309  1.00  0.00    -0.261 N  
HETATM   30  H   UNL     1      -9.335  17.233  65.317  1.00  0.00     0.000 HD 
BRANCH  29  31
HETATM   31  C   UNL     1      -7.926  17.608  66.921  1.00  0.00    -0.226 C  
HETATM   32  C   UNL     1      -6.983  18.276  65.912  1.00  0.00    -0.312 C  
HETATM   33  C   UNL     1      -7.291  19.742  65.616  1.00  0.00    -0.294 C  
HETATM   34  C   UNL     1      -7.525  20.583  66.875  1.00  0.00    -0.336 C  
HETATM   35  C   UNL     1      -8.606  19.929  67.742  1.00  0.00    -0.370 C  
HETATM   36  C   UNL     1      -6.232  20.826  67.663  1.00  0.00    -0.342 C  
HETATM   37  C   UNL     1      -8.250  18.496  68.132  1.00  0.00    -0.315 C  
ENDBRANCH  29  31
ENDBRANCH  27  29
ENDBRANCH  25  27
ENDBRANCH  22  25
ENDBRANCH  19  22
ENDBRANCH  15  16
ENDBRANCH  14  15
ENDBRANCH  12  14
ENDBRANCH  10  12
ENDBRANCH   7  10
ENDBRANCH   2   3
TORSDOF 11
ENDMDL
MODEL      208
REMARK 921   NORMALIZED FREE ENERGY PREDICTED BY IDOCK:   -4.48 KCAL/MOL
REMARK 922        TOTAL FREE ENERGY PREDICTED BY IDOCK:   -9.67 KCAL/MOL
REMARK 923 INTER-LIGAND FREE ENERGY PREDICTED BY IDOCK:   -7.27 KCAL/MOL
REMARK 924 INTRA-LIGAND FREE ENERGY PREDICTED BY IDOCK:   -2.40 KCAL/MOL
REMARK 927      BINDING AFFINITY PREDICTED BY RF-SCORE:    0.00 PKD
ROOT
HETATM    1  C   UNL     1      -9.204   9.215  71.510  1.00  0.00    -0.156 C  
HETATM    2  C   UNL     1     -10.438   8.940  70.663  1.00  0.00    -0.271 C  
ENDROOT
BRANCH   2   3
HETATM    3  C   UNL     1     -11.559   9.852  71.012  1.00  0.00    -0.470 C  
HETATM    4  C   UNL     1     -12.666   9.658  71.745  1.00  0.00    -0.510 C  
HETATM    5  C   UNL     1     -13.520  10.881  71.818  1.00  0.00    -0.182 C  
HETATM    6  C   UNL     1     -13.061   8.428  72.483  1.00  0.00    -0.209 C  
HETATM    7  N   UNL     1     -12.729  11.847  71.106  1.00  0.00    -0.344 N  
HETATM    8  O   UNL     1     -10.772  11.766  69.812  1.00  0.00     0.078 OA 
HETATM    9  C   UNL     1     -11.598  11.257  70.553  1.00  0.00    -0.133 C  
BRANCH   7  10
HETATM   10  C   UNL     1     -13.011  13.198  71.205  1.00  0.00    -0.254 C  
HETATM   11  O   UNL     1     -13.910  13.632  71.922  1.00  0.00    -0.405 OA 
BRANCH  10  12
HETATM   12  N   UNL     1     -12.185  14.016  70.477  1.00  0.00    -0.343 N  
HETATM   13  H   UNL     1     -11.191  13.793  70.438  1.00  0.00     0.000 HD 
BRANCH  12  14
HETATM   14  C   UNL     1     -12.659  15.184  69.762  1.00  0.00    -0.114 C  
BRANCH  14  15
HETATM   15  C   UNL     1     -11.726  15.610  68.616  1.00  0.00    -0.364 C  
BRANCH  15  16
HETATM   16  C   UNL     1     -11.406  14.508  67.621  1.00  0.00    -0.354 A  
HETATM   17  C   UNL     1     -12.369  13.564  67.235  1.00  0.00    -0.179 A  
HETATM   18  C   UNL     1     -12.046  12.522  66.364  1.00  0.00    -0.279 A  
HETATM   19  C   UNL     1     -10.771  12.441  65.806  1.00  0.00    -0.267 A  
HETATM   20  C   UNL     1      -9.807  13.398  66.139  1.00  0.00    -0.289 A  
HETATM   21  C   UNL     1     -10.129  14.428  67.037  1.00  0.00    -0.256 A  
BRANCH  19  22
HETATM   22  S   UNL     1     -10.339  11.028  64.809  1.00  0.00    -0.317 S  
HETATM   23  O   UNL     1     -10.582   9.847  65.612  1.00  0.00    -0.039 OA 
HETATM   24  O   UNL     1     -10.962  11.165  63.511  1.00  0.00    -0.336 OA 
BRANCH  22  25
HETATM   25  N   UNL     1      -8.676  11.103  64.642  1.00  0.00    -0.375 N  
HETATM   26  H   UNL     1      -8.257  11.995  64.378  1.00  0.00     0.000 HD 
BRANCH  25  27
HETATM   27  C   UNL     1      -7.841  10.022  64.844  1.00  0.00    -0.141 C  
HETATM   28  O   UNL     1      -7.308   9.420  63.925  1.00  0.00    -0.100 OA 
BRANCH  27  29
HETATM   29  N   UNL     1      -7.649   9.675  66.161  1.00  0.00    -0.100 N  
HETATM   30  H   UNL     1      -8.343   9.120  66.660  1.00  0.00     0.000 HD 
BRANCH  29  31
HETATM   31  C   UNL     1      -6.428  10.123  66.827  1.00  0.00    -0.071 C  
HETATM   32  C   UNL     1      -6.548  11.532  67.420  1.00  0.00    -0.101 C  
HETATM   33  C   UNL     1      -7.165  11.593  68.816  1.00  0.00    -0.116 C  
HETATM   34  C   UNL     1      -6.569  10.573  69.792  1.00  0.00    -0.112 C  
HETATM   35  C   UNL     1      -6.648   9.168  69.186  1.00  0.00    -0.050 C  
HETATM   36  C   UNL     1      -5.139  10.935  70.212  1.00  0.00    -0.058 C  
HETATM   37  C   UNL     1      -5.935   9.076  67.838  1.00  0.00    -0.050 C  
ENDBRANCH  29  31
ENDBRANCH  27  29
ENDBRANCH  25  27
ENDBRANCH  22  25
ENDBRANCH  19  22
ENDBRANCH  15  16
ENDBRANCH  14  15
ENDBRANCH  12  14
ENDBRANCH  10  12
ENDBRANCH   7  10
ENDBRANCH   2   3
TORSDOF 11
ENDMDL
MODEL      209
REMARK 921   NORMALIZED FREE ENERGY PREDICTED BY IDOCK:   -4.47 KCAL/MOL
REMARK 922        TOTAL FREE ENERGY PREDICTED BY IDOCK:   -9.65 KCAL/MOL
REMARK 923 INTER-LIGAND FREE ENERGY PREDICTED BY IDOCK:   -7.80 KCAL/MOL
REMARK 924 INTRA-LIGAND FREE ENERGY PREDICTED BY IDOCK:   -1.85 KCAL/MOL
REMARK 927      BINDING AFFINITY PREDICTED BY RF-SCORE:    0.00 PKD
ROOT
HETATM    1  C   UNL     1     -14.281   8.640  71.946  1.00  0.00    -0.507 C  
HETATM    2  C   UNL     1     -12.873   8.529  72.510  1.00  0.00    -0.310 C  
ENDROOT
BRANCH   2   3
HETATM    3  C   UNL     1     -11.954   7.841  71.565  1.00  0.00    -0.329 C  
HETATM    4  C   UNL     1     -11.286   8.291  70.492  1.00  0.00    -0.247 C  
HETATM    5  C   UNL     1     -10.476   7.219  69.838  1.00  0.00    -0.225 C  
HETATM    6  C   UNL     1     -11.245   9.683  69.966  1.00  0.00    -0.271 C  
HETATM    7  N   UNL     1     -10.685   6.102  70.717  1.00  0.00    -0.251 N  
HETATM    8  O   UNL     1     -12.085   5.666  72.550  1.00  0.00    -0.221 OA 
HETATM    9  C   UNL     1     -11.610   6.411  71.707  1.00  0.00    -0.316 C  
BRANCH   7  10
HETATM   10  C   UNL     1      -9.864   4.991  70.649  1.00  0.00    -0.212 C  
HETATM   11  O   UNL     1     -10.224   3.881  71.036  1.00  0.00    -0.056 OA 
BRANCH  10  12
HETATM   12  N   UNL     1      -8.636   5.212  70.080  1.00  0.00    -0.106 N  
HETATM   13  H   UNL     1      -7.946   5.747  70.608  1.00  0.00     0.000 HD 
BRANCH  12  14
HETATM   14  C   UNL     1      -8.272   4.722  68.766  1.00  0.00    -0.083 C  
BRANCH  14  15
HETATM   15  C   UNL     1      -7.266   5.632  68.040  1.00  0.00    -0.072 C  
BRANCH  15  16
HETATM   16  C   UNL     1      -7.738   7.062  67.841  1.00  0.00    -0.113 A  
HETATM   17  C   UNL     1      -8.649   7.401  66.830  1.00  0.00    -0.127 A  
HETATM   18  C   UNL     1      -9.032   8.727  66.621  1.00  0.00    -0.168 A  
HETATM   19  C   UNL     1      -8.564   9.735  67.465  1.00  0.00    -0.125 A  
HETATM   20  C   UNL     1      -7.691   9.414  68.509  1.00  0.00    -0.085 A  
HETATM   21  C   UNL     1      -7.288   8.083  68.697  1.00  0.00    -0.089 A  
BRANCH  19  22
HETATM   22  S   UNL     1      -8.952  11.435  67.096  1.00  0.00    -0.166 S  
HETATM   23  O   UNL     1      -8.481  12.233  68.211  1.00  0.00    -0.171 OA 
HETATM   24  O   UNL     1      -8.510  11.733  65.751  1.00  0.00     0.081 OA 
BRANCH  22  25
HETATM   25  N   UNL     1     -10.620  11.528  67.171  1.00  0.00    -0.226 N  
HETATM   26  H   UNL     1     -11.151  10.657  67.209  1.00  0.00     0.000 HD 
BRANCH  25  27
HETATM   27  C   UNL     1     -11.317  12.720  67.184  1.00  0.00    -0.314 C  
HETATM   28  O   UNL     1     -11.247  13.534  66.276  1.00  0.00    -0.292 OA 
BRANCH  27  29
HETATM   29  N   UNL     1     -12.101  12.921  68.295  1.00  0.00    -0.229 N  
HETATM   30  H   UNL     1     -13.107  12.761  68.260  1.00  0.00     0.000 HD 
BRANCH  29  31
HETATM   31  C   UNL     1     -11.457  13.369  69.528  1.00  0.00    -0.244 C  
HETATM   32  C   UNL     1     -10.906  14.797  69.434  1.00  0.00    -0.269 C  
HETATM   33  C   UNL     1     -11.921  15.900  69.728  1.00  0.00    -0.276 C  
HETATM   34  C   UNL     1     -12.744  15.650  70.997  1.00  0.00    -0.517 C  
HETATM   35  C   UNL     1     -13.397  14.266  70.926  1.00  0.00    -0.266 C  
HETATM   36  C   UNL     1     -11.913  15.824  72.274  1.00  0.00    -0.592 C  
HETATM   37  C   UNL     1     -12.373  13.148  70.742  1.00  0.00    -0.404 C  
ENDBRANCH  29  31
ENDBRANCH  27  29
ENDBRANCH  25  27
ENDBRANCH  22  25
ENDBRANCH  19  22
ENDBRANCH  15  16
ENDBRANCH  14  15
ENDBRANCH  12  14
ENDBRANCH  10  12
ENDBRANCH   7  10
ENDBRANCH   2   3
TORSDOF 11
ENDMDL
MODEL      210
REMARK 921   NORMALIZED FREE ENERGY PREDICTED BY IDOCK:   -4.44 KCAL/MOL
REMARK 922        TOTAL FREE ENERGY PREDICTED BY IDOCK:   -9.60 KCAL/MOL
REMARK 923 INTER-LIGAND FREE ENERGY PREDICTED BY IDOCK:   -7.28 KCAL/MOL
REMARK 924 INTRA-LIGAND FREE ENERGY PREDICTED BY IDOCK:   -2.33 KCAL/MOL
REMARK 927      BINDING AFFINITY PREDICTED BY RF-SCORE:    0.00 PKD
ROOT
HETATM    1  C   UNL     1     -10.165  14.521  68.687  1.00  0.00    -0.243 C  
HETATM    2  C   UNL     1      -9.833  14.536  67.202  1.00  0.00    -0.245 C  
ENDROOT
BRANCH   2   3
HETATM    3  C   UNL     1     -10.053  13.206  66.575  1.00  0.00    -0.280 C  
HETATM    4  C   UNL     1     -11.109  12.696  65.924  1.00  0.00    -0.323 C  
HETATM    5  C   UNL     1     -10.871  11.292  65.469  1.00  0.00    -0.179 C  
HETATM    6  C   UNL     1     -12.389  13.380  65.594  1.00  0.00    -0.521 C  
HETATM    7  N   UNL     1      -9.505  11.074  65.859  1.00  0.00    -0.205 N  
HETATM    8  O   UNL     1      -7.932  12.255  67.140  1.00  0.00    -0.169 OA 
HETATM    9  C   UNL     1      -9.013  12.155  66.581  1.00  0.00    -0.198 C  
BRANCH   7  10
HETATM   10  C   UNL     1      -8.789  10.008  65.347  1.00  0.00    -0.173 C  
HETATM   11  O   UNL     1      -9.145   9.399  64.340  1.00  0.00    -0.217 OA 
BRANCH  10  12
HETATM   12  N   UNL     1      -7.634   9.708  66.022  1.00  0.00    -0.100 N  
HETATM   13  H   UNL     1      -6.769  10.165  65.731  1.00  0.00     0.000 HD 
BRANCH  12  14
HETATM   14  C   UNL     1      -7.583   8.773  67.128  1.00  0.00    -0.088 C  
BRANCH  14  15
HETATM   15  C   UNL     1      -8.712   7.729  67.088  1.00  0.00    -0.125 C  
BRANCH  15  16
HETATM   16  C   UNL     1      -9.700   7.825  68.239  1.00  0.00    -0.169 A  
HETATM   17  C   UNL     1      -9.794   8.978  69.032  1.00  0.00    -0.178 A  
HETATM   18  C   UNL     1     -10.665   9.032  70.122  1.00  0.00    -0.258 A  
HETATM   19  C   UNL     1     -11.511   7.959  70.399  1.00  0.00    -0.145 A  
HETATM   20  C   UNL     1     -11.468   6.817  69.594  1.00  0.00    -0.286 A  
HETATM   21  C   UNL     1     -10.571   6.757  68.517  1.00  0.00    -0.265 A  
BRANCH  19  22
HETATM   22  S   UNL     1     -12.512   7.992  71.874  1.00  0.00    -0.335 S  
HETATM   23  O   UNL     1     -12.779   9.384  72.179  1.00  0.00    -0.384 OA 
HETATM   24  O   UNL     1     -13.606   7.059  71.716  1.00  0.00    -0.343 OA 
BRANCH  22  25
HETATM   25  N   UNL     1     -11.502   7.467  73.099  1.00  0.00    -0.614 N  
HETATM   26  H   UNL     1     -11.378   8.068  73.914  1.00  0.00     0.000 HD 
BRANCH  25  27
HETATM   27  C   UNL     1     -10.826   6.264  73.065  1.00  0.00    -0.259 C  
HETATM   28  O   UNL     1     -11.397   5.185  73.108  1.00  0.00    -0.314 OA 
BRANCH  27  29
HETATM   29  N   UNL     1      -9.457   6.370  72.977  1.00  0.00    -0.142 N  
HETATM   30  H   UNL     1      -8.990   7.258  73.157  1.00  0.00     0.000 HD 
BRANCH  29  31
HETATM   31  C   UNL     1      -8.690   5.180  72.617  1.00  0.00    -0.123 C  
HETATM   32  C   UNL     1      -8.614   4.947  71.103  1.00  0.00    -0.131 C  
HETATM   33  C   UNL     1      -7.500   5.710  70.390  1.00  0.00    -0.080 C  
HETATM   34  C   UNL     1      -6.140   5.600  71.089  1.00  0.00    -0.033 C  
HETATM   35  C   UNL     1      -6.278   6.016  72.557  1.00  0.00    -0.053 C  
HETATM   36  C   UNL     1      -5.522   4.204  70.947  1.00  0.00    -0.008 C  
HETATM   37  C   UNL     1      -7.315   5.180  73.303  1.00  0.00    -0.091 C  
ENDBRANCH  29  31
ENDBRANCH  27  29
ENDBRANCH  25  27
ENDBRANCH  22  25
ENDBRANCH  19  22
ENDBRANCH  15  16
ENDBRANCH  14  15
ENDBRANCH  12  14
ENDBRANCH  10  12
ENDBRANCH   7  10
ENDBRANCH   2   3
TORSDOF 11
ENDMDL
MODEL      211
REMARK 921   NORMALIZED FREE ENERGY PREDICTED BY IDOCK:   -4.44 KCAL/MOL
REMARK 922        TOTAL FREE ENERGY PREDICTED BY IDOCK:   -9.60 KCAL/MOL
REMARK 923 INTER-LIGAND FREE ENERGY PREDICTED BY IDOCK:   -8.51 KCAL/MOL
REMARK 924 INTRA-LIGAND FREE ENERGY PREDICTED BY IDOCK:   -1.08 KCAL/MOL
REMARK 927      BINDING AFFINITY PREDICTED BY RF-SCORE:    0.00 PKD
ROOT
HETATM    1  C   UNL     1     -10.044   2.934  74.255  1.00  0.00    -0.185 C  
HETATM    2  C   UNL     1     -10.956   3.605  73.238  1.00  0.00    -0.276 C  
ENDROOT
BRANCH   2   3
HETATM    3  C   UNL     1     -10.282   4.746  72.563  1.00  0.00    -0.245 C  
HETATM    4  C   UNL     1      -9.694   4.845  71.362  1.00  0.00    -0.237 C  
HETATM    5  C   UNL     1      -9.139   6.210  71.112  1.00  0.00    -0.146 C  
HETATM    6  C   UNL     1      -9.600   3.798  70.308  1.00  0.00    -0.257 C  
HETATM    7  N   UNL     1      -9.555   6.926  72.287  1.00  0.00    -0.148 N  
HETATM    8  O   UNL     1     -10.548   6.337  74.330  1.00  0.00    -0.219 OA 
HETATM    9  C   UNL     1     -10.168   6.076  73.200  1.00  0.00    -0.197 C  
BRANCH   7  10
HETATM   10  C   UNL     1      -9.516   8.308  72.318  1.00  0.00    -0.271 C  
HETATM   11  O   UNL     1      -8.472   8.941  72.173  1.00  0.00    -0.382 OA 
BRANCH  10  12
HETATM   12  N   UNL     1     -10.733   8.918  72.482  1.00  0.00    -0.026 N  
HETATM   13  H   UNL     1     -11.043   9.138  73.429  1.00  0.00     0.000 HD 
BRANCH  12  14
HETATM   14  C   UNL     1     -11.600   9.265  71.374  1.00  0.00    -0.367 C  
BRANCH  14  15
HETATM   15  C   UNL     1     -12.137  10.704  71.454  1.00  0.00    -0.342 C  
BRANCH  15  16
HETATM   16  C   UNL     1     -12.097  11.466  70.140  1.00  0.00    -0.439 A  
HETATM   17  C   UNL     1     -12.001  10.801  68.908  1.00  0.00    -0.210 A  
HETATM   18  C   UNL     1     -11.907  11.514  67.711  1.00  0.00    -0.228 A  
HETATM   19  C   UNL     1     -11.977  12.907  67.716  1.00  0.00    -0.283 A  
HETATM   20  C   UNL     1     -12.119  13.589  68.927  1.00  0.00    -0.315 A  
HETATM   21  C   UNL     1     -12.185  12.869  70.130  1.00  0.00    -0.336 A  
BRANCH  19  22
HETATM   22  S   UNL     1     -11.714  13.801  66.195  1.00  0.00    -0.390 S  
HETATM   23  O   UNL     1     -13.007  13.952  65.559  1.00  0.00    -0.673 OA 
HETATM   24  O   UNL     1     -10.899  14.963  66.473  1.00  0.00    -0.310 OA 
BRANCH  22  25
HETATM   25  N   UNL     1     -10.868  12.746  65.210  1.00  0.00    -0.285 N  
HETATM   26  H   UNL     1     -11.336  12.377  64.382  1.00  0.00     0.000 HD 
BRANCH  25  27
HETATM   27  C   UNL     1      -9.569  12.349  65.458  1.00  0.00    -0.063 C  
HETATM   28  O   UNL     1      -8.969  12.655  66.477  1.00  0.00    -0.199 OA 
BRANCH  27  29
HETATM   29  N   UNL     1      -9.001  11.578  64.472  1.00  0.00    -0.386 N  
HETATM   30  H   UNL     1      -8.276  11.959  63.864  1.00  0.00     0.000 HD 
BRANCH  29  31
HETATM   31  C   UNL     1      -9.460  10.199  64.315  1.00  0.00    -0.305 C  
HETATM   32  C   UNL     1      -9.157   9.618  62.929  1.00  0.00    -0.241 C  
HETATM   33  C   UNL     1      -7.760   9.022  62.772  1.00  0.00    -0.114 C  
HETATM   34  C   UNL     1      -7.361   8.089  63.921  1.00  0.00    -0.098 C  
HETATM   35  C   UNL     1      -7.535   8.814  65.260  1.00  0.00    -0.086 C  
HETATM   36  C   UNL     1      -8.128   6.762  63.887  1.00  0.00    -0.003 C  
HETATM   37  C   UNL     1      -8.961   9.316  65.469  1.00  0.00    -0.251 C  
ENDBRANCH  29  31
ENDBRANCH  27  29
ENDBRANCH  25  27
ENDBRANCH  22  25
ENDBRANCH  19  22
ENDBRANCH  15  16
ENDBRANCH  14  15
ENDBRANCH  12  14
ENDBRANCH  10  12
ENDBRANCH   7  10
ENDBRANCH   2   3
TORSDOF 11
ENDMDL
MODEL      212
REMARK 921   NORMALIZED FREE ENERGY PREDICTED BY IDOCK:   -4.42 KCAL/MOL
REMARK 922        TOTAL FREE ENERGY PREDICTED BY IDOCK:   -9.58 KCAL/MOL
REMARK 923 INTER-LIGAND FREE ENERGY PREDICTED BY IDOCK:   -8.00 KCAL/MOL
REMARK 924 INTRA-LIGAND FREE ENERGY PREDICTED BY IDOCK:   -1.57 KCAL/MOL
REMARK 927      BINDING AFFINITY PREDICTED BY RF-SCORE:    0.00 PKD
ROOT
HETATM    1  C   UNL     1      -5.594   4.486  66.799  1.00  0.00    -0.014 C  
HETATM    2  C   UNL     1      -6.984   4.324  66.202  1.00  0.00    -0.066 C  
ENDROOT
BRANCH   2   3
HETATM    3  C   UNL     1      -8.042   4.384  67.245  1.00  0.00    -0.101 C  
HETATM    4  C   UNL     1      -8.540   3.441  68.058  1.00  0.00    -0.116 C  
HETATM    5  C   UNL     1      -9.613   3.972  68.953  1.00  0.00    -0.143 C  
HETATM    6  C   UNL     1      -8.110   2.021  68.173  1.00  0.00    -0.067 C  
HETATM    7  N   UNL     1      -9.618   5.371  68.623  1.00  0.00    -0.123 N  
HETATM    8  O   UNL     1      -8.594   6.696  66.978  1.00  0.00    -0.112 OA 
HETATM    9  C   UNL     1      -8.755   5.638  67.567  1.00  0.00    -0.107 C  
BRANCH   7  10
HETATM   10  C   UNL     1     -10.250   6.286  69.446  1.00  0.00    -0.193 C  
HETATM   11  O   UNL     1     -11.331   6.051  69.982  1.00  0.00    -0.384 OA 
BRANCH  10  12
HETATM   12  N   UNL     1      -9.562   7.454  69.649  1.00  0.00    -0.156 N  
HETATM   13  H   UNL     1      -8.570   7.399  69.881  1.00  0.00     0.000 HD 
BRANCH  12  14
HETATM   14  C   UNL     1     -10.177   8.762  69.551  1.00  0.00    -0.208 C  
BRANCH  14  15
HETATM   15  C   UNL     1     -10.261   9.284  68.106  1.00  0.00    -0.246 C  
BRANCH  15  16
HETATM   16  C   UNL     1     -10.085  10.786  67.967  1.00  0.00    -0.198 A  
HETATM   17  C   UNL     1     -11.178  11.636  67.736  1.00  0.00    -0.333 A  
HETATM   18  C   UNL     1     -10.996  13.008  67.554  1.00  0.00    -0.282 A  
HETATM   19  C   UNL     1      -9.724  13.570  67.667  1.00  0.00    -0.229 A  
HETATM   20  C   UNL     1      -8.627  12.749  67.943  1.00  0.00    -0.181 A  
HETATM   21  C   UNL     1      -8.811  11.367  68.098  1.00  0.00    -0.162 A  
BRANCH  19  22
HETATM   22  S   UNL     1      -9.495  15.297  67.292  1.00  0.00    -0.211 S  
HETATM   23  O   UNL     1      -8.169  15.440  66.724  1.00  0.00    -0.232 OA 
HETATM   24  O   UNL     1     -10.652  15.775  66.567  1.00  0.00    -0.306 OA 
BRANCH  22  25
HETATM   25  N   UNL     1      -9.413  16.059  68.779  1.00  0.00    -0.216 N  
HETATM   26  H   UNL     1      -8.704  15.746  69.444  1.00  0.00     0.000 HD 
BRANCH  25  27
HETATM   27  C   UNL     1     -10.252  17.088  69.155  1.00  0.00    -0.288 C  
HETATM   28  O   UNL     1     -10.331  18.136  68.532  1.00  0.00    -0.375 OA 
BRANCH  27  29
HETATM   29  N   UNL     1     -10.998  16.845  70.285  1.00  0.00    -0.296 N  
HETATM   30  H   UNL     1     -11.352  17.615  70.852  1.00  0.00     0.000 HD 
BRANCH  29  31
HETATM   31  C   UNL     1     -11.272  15.457  70.651  1.00  0.00    -0.342 C  
HETATM   32  C   UNL     1     -11.061  15.177  72.144  1.00  0.00    -0.006 C  
HETATM   33  C   UNL     1     -12.257  15.501  73.036  1.00  0.00    -0.564 C  
HETATM   34  C   UNL     1     -13.585  14.956  72.499  1.00  0.00    -0.562 C  
HETATM   35  C   UNL     1     -13.793  15.429  71.056  1.00  0.00    -0.361 C  
HETATM   36  C   UNL     1     -13.680  13.430  72.618  1.00  0.00    -0.512 C  
HETATM   37  C   UNL     1     -12.649  15.011  70.136  1.00  0.00    -0.312 C  
ENDBRANCH  29  31
ENDBRANCH  27  29
ENDBRANCH  25  27
ENDBRANCH  22  25
ENDBRANCH  19  22
ENDBRANCH  15  16
ENDBRANCH  14  15
ENDBRANCH  12  14
ENDBRANCH  10  12
ENDBRANCH   7  10
ENDBRANCH   2   3
TORSDOF 11
ENDMDL
MODEL      213
REMARK 921   NORMALIZED FREE ENERGY PREDICTED BY IDOCK:   -4.42 KCAL/MOL
REMARK 922        TOTAL FREE ENERGY PREDICTED BY IDOCK:   -9.56 KCAL/MOL
REMARK 923 INTER-LIGAND FREE ENERGY PREDICTED BY IDOCK:   -7.56 KCAL/MOL
REMARK 924 INTRA-LIGAND FREE ENERGY PREDICTED BY IDOCK:   -2.00 KCAL/MOL
REMARK 927      BINDING AFFINITY PREDICTED BY RF-SCORE:    0.00 PKD
ROOT
HETATM    1  C   UNL     1      -9.514  17.951  68.465  1.00  0.00    -0.316 C  
HETATM    2  C   UNL     1      -9.235  17.146  67.205  1.00  0.00    -0.242 C  
ENDROOT
BRANCH   2   3
HETATM    3  C   UNL     1     -10.186  16.012  67.055  1.00  0.00    -0.282 C  
HETATM    4  C   UNL     1     -10.716  15.174  67.958  1.00  0.00    -0.264 C  
HETATM    5  C   UNL     1     -11.633  14.173  67.333  1.00  0.00    -0.372 C  
HETATM    6  C   UNL     1     -10.522  15.188  69.433  1.00  0.00    -0.259 C  
HETATM    7  N   UNL     1     -11.643  14.588  65.957  1.00  0.00    -0.360 N  
HETATM    8  O   UNL     1     -10.434  16.142  64.679  1.00  0.00    -0.526 OA 
HETATM    9  C   UNL     1     -10.743  15.626  65.742  1.00  0.00    -0.341 C  
BRANCH   7  10
HETATM   10  C   UNL     1     -12.611  14.119  65.088  1.00  0.00    -0.408 C  
HETATM   11  O   UNL     1     -13.788  13.995  65.418  1.00  0.00    -0.084 OA 
BRANCH  10  12
HETATM   12  N   UNL     1     -12.166  13.843  63.820  1.00  0.00    -0.864 N  
HETATM   13  H   UNL     1     -12.180  14.592  63.127  1.00  0.00     0.000 HD 
BRANCH  12  14
HETATM   14  C   UNL     1     -11.678  12.539  63.419  1.00  0.00    -0.488 C  
BRANCH  14  15
HETATM   15  C   UNL     1     -10.204  12.305  63.793  1.00  0.00    -0.427 C  
BRANCH  15  16
HETATM   16  C   UNL     1      -9.992  11.706  65.173  1.00  0.00    -0.297 A  
HETATM   17  C   UNL     1      -8.972  12.160  66.022  1.00  0.00     0.017 A  
HETATM   18  C   UNL     1      -8.751  11.563  67.264  1.00  0.00    -0.151 A  
HETATM   19  C   UNL     1      -9.591  10.543  67.713  1.00  0.00    -0.156 A  
HETATM   20  C   UNL     1     -10.643  10.106  66.904  1.00  0.00    -0.267 A  
HETATM   21  C   UNL     1     -10.844  10.691  65.644  1.00  0.00    -0.010 A  
BRANCH  19  22
HETATM   22  S   UNL     1      -9.207   9.701  69.237  1.00  0.00    -0.196 S  
HETATM   23  O   UNL     1      -8.161  10.459  69.893  1.00  0.00    -0.119 OA 
HETATM   24  O   UNL     1     -10.441   9.411  69.933  1.00  0.00    -0.206 OA 
BRANCH  22  25
HETATM   25  N   UNL     1      -8.478   8.270  68.772  1.00  0.00    -0.125 N  
HETATM   26  H   UNL     1      -9.041   7.419  68.770  1.00  0.00     0.000 HD 
BRANCH  25  27
HETATM   27  C   UNL     1      -7.154   8.178  68.390  1.00  0.00    -0.077 C  
HETATM   28  O   UNL     1      -6.230   8.394  69.159  1.00  0.00    -0.041 OA 
BRANCH  27  29
HETATM   29  N   UNL     1      -6.952   7.821  67.078  1.00  0.00    -0.075 N  
HETATM   30  H   UNL     1      -6.402   6.996  66.840  1.00  0.00     0.000 HD 
BRANCH  29  31
HETATM   31  C   UNL     1      -7.546   8.651  66.032  1.00  0.00    -0.093 C  
HETATM   32  C   UNL     1      -6.511   9.479  65.261  1.00  0.00    -0.078 C  
HETATM   33  C   UNL     1      -5.836   8.749  64.102  1.00  0.00    -0.070 C  
HETATM   34  C   UNL     1      -6.821   8.008  63.191  1.00  0.00    -0.084 C  
HETATM   35  C   UNL     1      -7.701   7.075  64.029  1.00  0.00    -0.116 C  
HETATM   36  C   UNL     1      -7.658   8.968  62.336  1.00  0.00    -0.103 C  
HETATM   37  C   UNL     1      -8.464   7.821  65.122  1.00  0.00    -0.075 C  
ENDBRANCH  29  31
ENDBRANCH  27  29
ENDBRANCH  25  27
ENDBRANCH  22  25
ENDBRANCH  19  22
ENDBRANCH  15  16
ENDBRANCH  14  15
ENDBRANCH  12  14
ENDBRANCH  10  12
ENDBRANCH   7  10
ENDBRANCH   2   3
TORSDOF 11
ENDMDL
MODEL      214
REMARK 921   NORMALIZED FREE ENERGY PREDICTED BY IDOCK:   -4.39 KCAL/MOL
REMARK 922        TOTAL FREE ENERGY PREDICTED BY IDOCK:   -9.51 KCAL/MOL
REMARK 923 INTER-LIGAND FREE ENERGY PREDICTED BY IDOCK:   -8.23 KCAL/MOL
REMARK 924 INTRA-LIGAND FREE ENERGY PREDICTED BY IDOCK:   -1.29 KCAL/MOL
REMARK 927      BINDING AFFINITY PREDICTED BY RF-SCORE:    0.00 PKD
ROOT
HETATM    1  C   UNL     1     -11.902   8.678  72.154  1.00  0.00    -0.447 C  
HETATM    2  C   UNL     1     -11.150   7.361  72.266  1.00  0.00    -0.308 C  
ENDROOT
BRANCH   2   3
HETATM    3  C   UNL     1     -10.014   7.293  71.308  1.00  0.00    -0.191 C  
HETATM    4  C   UNL     1      -8.747   7.721  71.402  1.00  0.00    -0.142 C  
HETATM    5  C   UNL     1      -7.958   7.433  70.166  1.00  0.00    -0.112 C  
HETATM    6  C   UNL     1      -8.092   8.367  72.572  1.00  0.00    -0.177 C  
HETATM    7  N   UNL     1      -8.901   6.701  69.367  1.00  0.00    -0.134 N  
HETATM    8  O   UNL     1     -11.191   6.209  69.529  1.00  0.00    -0.389 OA 
HETATM    9  C   UNL     1     -10.149   6.662  69.978  1.00  0.00    -0.177 C  
BRANCH   7  10
HETATM   10  C   UNL     1      -8.478   5.975  68.268  1.00  0.00    -0.112 C  
HETATM   11  O   UNL     1      -8.257   4.767  68.323  1.00  0.00    -0.088 OA 
BRANCH  10  12
HETATM   12  N   UNL     1      -8.364   6.696  67.107  1.00  0.00    -0.113 N  
HETATM   13  H   UNL     1      -7.643   6.427  66.437  1.00  0.00     0.000 HD 
BRANCH  12  14
HETATM   14  C   UNL     1      -9.219   7.821  66.787  1.00  0.00    -0.163 C  
BRANCH  14  15
HETATM   15  C   UNL     1      -8.869   8.483  65.443  1.00  0.00    -0.173 C  
BRANCH  15  16
HETATM   16  C   UNL     1      -9.615   9.776  65.165  1.00  0.00    -0.356 A  
HETATM   17  C   UNL     1     -10.322  10.449  66.173  1.00  0.00    -0.269 A  
HETATM   18  C   UNL     1     -11.050  11.606  65.892  1.00  0.00    -0.320 A  
HETATM   19  C   UNL     1     -11.032  12.154  64.609  1.00  0.00    -0.312 A  
HETATM   20  C   UNL     1     -10.297  11.527  63.599  1.00  0.00    -0.467 A  
HETATM   21  C   UNL     1      -9.588  10.349  63.880  1.00  0.00    -0.370 A  
BRANCH  19  22
HETATM   22  S   UNL     1     -12.079  13.548  64.238  1.00  0.00    -0.422 S  
HETATM   23  O   UNL     1     -12.478  13.427  62.851  1.00  0.00    -0.563 OA 
HETATM   24  O   UNL     1     -13.080  13.668  65.275  1.00  0.00    -0.735 OA 
BRANCH  22  25
HETATM   25  N   UNL     1     -11.065  14.878  64.283  1.00  0.00    -0.607 N  
HETATM   26  H   UNL     1     -10.915  15.400  63.419  1.00  0.00     0.000 HD 
BRANCH  25  27
HETATM   27  C   UNL     1     -10.422  15.308  65.427  1.00  0.00    -0.398 C  
HETATM   28  O   UNL     1      -9.440  16.033  65.397  1.00  0.00    -0.378 OA 
BRANCH  27  29
HETATM   29  N   UNL     1     -10.972  14.860  66.604  1.00  0.00    -0.321 N  
HETATM   30  H   UNL     1     -11.422  13.946  66.656  1.00  0.00     0.000 HD 
BRANCH  29  31
HETATM   31  C   UNL     1     -10.896  15.723  67.780  1.00  0.00    -0.316 C  
HETATM   32  C   UNL     1     -12.274  16.119  68.326  1.00  0.00     0.728 C  
HETATM   33  C   UNL     1     -12.902  15.108  69.283  1.00  0.00     0.441 C  
HETATM   34  C   UNL     1     -11.938  14.614  70.368  1.00  0.00    -0.375 C  
HETATM   35  C   UNL     1     -10.658  14.079  69.719  1.00  0.00     0.264 C  
HETATM   36  C   UNL     1     -11.639  15.693  71.417  1.00  0.00    -0.499 C  
HETATM   37  C   UNL     1      -9.967  15.125  68.847  1.00  0.00    -0.227 C  
ENDBRANCH  29  31
ENDBRANCH  27  29
ENDBRANCH  25  27
ENDBRANCH  22  25
ENDBRANCH  19  22
ENDBRANCH  15  16
ENDBRANCH  14  15
ENDBRANCH  12  14
ENDBRANCH  10  12
ENDBRANCH   7  10
ENDBRANCH   2   3
TORSDOF 11
ENDMDL
MODEL      215
REMARK 921   NORMALIZED FREE ENERGY PREDICTED BY IDOCK:   -4.37 KCAL/MOL
REMARK 922        TOTAL FREE ENERGY PREDICTED BY IDOCK:   -9.48 KCAL/MOL
REMARK 923 INTER-LIGAND FREE ENERGY PREDICTED BY IDOCK:   -7.79 KCAL/MOL
REMARK 924 INTRA-LIGAND FREE ENERGY PREDICTED BY IDOCK:   -1.69 KCAL/MOL
REMARK 927      BINDING AFFINITY PREDICTED BY RF-SCORE:    0.00 PKD
ROOT
HETATM    1  C   UNL     1     -10.136   1.749  71.850  1.00  0.00    -0.218 C  
HETATM    2  C   UNL     1     -10.671   2.450  73.090  1.00  0.00    -0.262 C  
ENDROOT
BRANCH   2   3
HETATM    3  C   UNL     1      -9.834   3.621  73.464  1.00  0.00    -0.156 C  
HETATM    4  C   UNL     1      -8.589   3.700  73.957  1.00  0.00    -0.089 C  
HETATM    5  C   UNL     1      -8.159   5.112  74.187  1.00  0.00    -0.100 C  
HETATM    6  C   UNL     1      -7.647   2.580  74.227  1.00  0.00    -0.043 C  
HETATM    7  N   UNL     1      -9.280   5.857  73.682  1.00  0.00    -0.131 N  
HETATM    8  O   UNL     1     -11.440   5.315  72.942  1.00  0.00    -0.307 OA 
HETATM    9  C   UNL     1     -10.318   5.009  73.315  1.00  0.00    -0.191 C  
BRANCH   7  10
HETATM   10  C   UNL     1      -9.164   7.210  73.419  1.00  0.00    -0.168 C  
HETATM   11  O   UNL     1      -8.783   8.015  74.266  1.00  0.00    -0.229 OA 
BRANCH  10  12
HETATM   12  N   UNL     1      -9.467   7.578  72.133  1.00  0.00    -0.145 N  
HETATM   13  H   UNL     1      -8.904   7.194  71.373  1.00  0.00     0.000 HD 
BRANCH  12  14
HETATM   14  C   UNL     1     -10.547   8.485  71.803  1.00  0.00    -0.301 C  
BRANCH  14  15
HETATM   15  C   UNL     1     -11.342   8.051  70.559  1.00  0.00    -0.229 C  
BRANCH  15  16
HETATM   16  C   UNL     1     -10.698   8.430  69.236  1.00  0.00    -0.139 A  
HETATM   17  C   UNL     1     -10.141   9.701  69.028  1.00  0.00    -0.193 A  
HETATM   18  C   UNL     1      -9.604  10.056  67.789  1.00  0.00    -0.168 A  
HETATM   19  C   UNL     1      -9.550   9.124  66.753  1.00  0.00    -0.195 A  
HETATM   20  C   UNL     1     -10.058   7.837  66.952  1.00  0.00    -0.356 A  
HETATM   21  C   UNL     1     -10.621   7.493  68.190  1.00  0.00    -0.201 A  
BRANCH  19  22
HETATM   22  S   UNL     1      -8.991   9.640  65.140  1.00  0.00    -0.221 S  
HETATM   23  O   UNL     1      -7.921  10.596  65.344  1.00  0.00    -0.148 OA 
HETATM   24  O   UNL     1      -8.771   8.465  64.326  1.00  0.00    -0.008 OA 
BRANCH  22  25
HETATM   25  N   UNL     1     -10.254  10.533  64.505  1.00  0.00    -0.337 N  
HETATM   26  H   UNL     1     -11.112  10.042  64.250  1.00  0.00     0.000 HD 
BRANCH  25  27
HETATM   27  C   UNL     1     -10.199  11.898  64.308  1.00  0.00    -0.311 C  
HETATM   28  O   UNL     1     -10.485  12.423  63.243  1.00  0.00    -0.395 OA 
BRANCH  27  29
HETATM   29  N   UNL     1      -9.800  12.626  65.405  1.00  0.00    -0.425 N  
HETATM   30  H   UNL     1      -8.869  12.503  65.802  1.00  0.00     0.000 HD 
BRANCH  29  31
HETATM   31  C   UNL     1     -10.742  13.581  65.986  1.00  0.00    -0.279 C  
HETATM   32  C   UNL     1     -10.801  13.511  67.516  1.00  0.00    -0.276 C  
HETATM   33  C   UNL     1      -9.737  14.334  68.240  1.00  0.00    -0.221 C  
HETATM   34  C   UNL     1      -9.600  15.763  67.703  1.00  0.00    -0.220 C  
HETATM   35  C   UNL     1      -9.373  15.727  66.188  1.00  0.00    -0.381 C  
HETATM   36  C   UNL     1     -10.798  16.645  68.080  1.00  0.00    -0.337 C  
HETATM   37  C   UNL     1     -10.493  14.999  65.449  1.00  0.00    -0.406 C  
ENDBRANCH  29  31
ENDBRANCH  27  29
ENDBRANCH  25  27
ENDBRANCH  22  25
ENDBRANCH  19  22
ENDBRANCH  15  16
ENDBRANCH  14  15
ENDBRANCH  12  14
ENDBRANCH  10  12
ENDBRANCH   7  10
ENDBRANCH   2   3
TORSDOF 11
ENDMDL
MODEL      216
REMARK 921   NORMALIZED FREE ENERGY PREDICTED BY IDOCK:   -4.34 KCAL/MOL
REMARK 922        TOTAL FREE ENERGY PREDICTED BY IDOCK:   -9.44 KCAL/MOL
REMARK 923 INTER-LIGAND FREE ENERGY PREDICTED BY IDOCK:   -7.43 KCAL/MOL
REMARK 924 INTRA-LIGAND FREE ENERGY PREDICTED BY IDOCK:   -2.01 KCAL/MOL
REMARK 927      BINDING AFFINITY PREDICTED BY RF-SCORE:    0.00 PKD
ROOT
HETATM    1  C   UNL     1      -9.973  13.018  64.438  1.00  0.00    -0.131 C  
HETATM    2  C   UNL     1     -10.500  13.504  65.780  1.00  0.00    -0.293 C  
ENDROOT
BRANCH   2   3
HETATM    3  C   UNL     1      -9.929  12.725  66.910  1.00  0.00    -0.232 C  
HETATM    4  C   UNL     1      -8.750  12.816  67.544  1.00  0.00    -0.185 C  
HETATM    5  C   UNL     1      -8.613  11.802  68.634  1.00  0.00    -0.062 C  
HETATM    6  C   UNL     1      -7.664  13.805  67.305  1.00  0.00    -0.095 C  
HETATM    7  N   UNL     1      -9.900  11.163  68.617  1.00  0.00    -0.198 N  
HETATM    8  O   UNL     1     -11.775  11.233  67.206  1.00  0.00    -0.566 OA 
HETATM    9  C   UNL     1     -10.677  11.631  67.564  1.00  0.00    -0.215 C  
BRANCH   7  10
HETATM   10  C   UNL     1     -10.306  10.371  69.676  1.00  0.00    -0.226 C  
HETATM   11  O   UNL     1      -9.798   9.278  69.914  1.00  0.00    -0.178 OA 
BRANCH  10  12
HETATM   12  N   UNL     1     -11.288  10.917  70.463  1.00  0.00    -0.450 N  
HETATM   13  H   UNL     1     -11.073  11.764  70.990  1.00  0.00     0.000 HD 
BRANCH  12  14
HETATM   14  C   UNL     1     -12.614  10.347  70.583  1.00  0.00    -0.348 C  
BRANCH  14  15
HETATM   15  C   UNL     1     -12.888   9.739  71.969  1.00  0.00    -0.491 C  
BRANCH  15  16
HETATM   16  C   UNL     1     -12.181   8.419  72.228  1.00  0.00    -0.449 A  
HETATM   17  C   UNL     1     -11.049   8.342  73.053  1.00  0.00    -0.020 A  
HETATM   18  C   UNL     1     -10.375   7.133  73.238  1.00  0.00    -0.369 A  
HETATM   19  C   UNL     1     -10.859   5.962  72.655  1.00  0.00    -0.251 A  
HETATM   20  C   UNL     1     -12.012   6.006  71.867  1.00  0.00    -0.185 A  
HETATM   21  C   UNL     1     -12.671   7.229  71.663  1.00  0.00    -0.410 A  
BRANCH  19  22
HETATM   22  S   UNL     1      -9.907   4.460  72.788  1.00  0.00    -0.152 S  
HETATM   23  O   UNL     1      -8.954   4.651  73.862  1.00  0.00    -0.107 OA 
HETATM   24  O   UNL     1     -10.814   3.334  72.811  1.00  0.00    -0.090 OA 
BRANCH  22  25
HETATM   25  N   UNL     1      -8.984   4.406  71.394  1.00  0.00    -0.119 N  
HETATM   26  H   UNL     1      -8.685   3.494  71.048  1.00  0.00     0.000 HD 
BRANCH  25  27
HETATM   27  C   UNL     1      -8.604   5.530  70.687  1.00  0.00    -0.129 C  
HETATM   28  O   UNL     1      -7.702   6.266  71.055  1.00  0.00    -0.100 OA 
BRANCH  27  29
HETATM   29  N   UNL     1      -9.317   5.757  69.534  1.00  0.00    -0.129 N  
HETATM   30  H   UNL     1     -10.312   5.975  69.570  1.00  0.00     0.000 HD 
BRANCH  29  31
HETATM   31  C   UNL     1      -8.613   5.679  68.255  1.00  0.00    -0.107 C  
HETATM   32  C   UNL     1      -8.238   4.245  67.862  1.00  0.00    -0.094 C  
HETATM   33  C   UNL     1      -9.339   3.466  67.144  1.00  0.00    -0.224 C  
HETATM   34  C   UNL     1     -10.004   4.252  66.009  1.00  0.00    -0.234 C  
HETATM   35  C   UNL     1     -10.500   5.603  66.536  1.00  0.00    -0.309 C  
HETATM   36  C   UNL     1      -9.080   4.418  64.796  1.00  0.00    -0.152 C  
HETATM   37  C   UNL     1      -9.378   6.433  67.157  1.00  0.00    -0.133 C  
ENDBRANCH  29  31
ENDBRANCH  27  29
ENDBRANCH  25  27
ENDBRANCH  22  25
ENDBRANCH  19  22
ENDBRANCH  15  16
ENDBRANCH  14  15
ENDBRANCH  12  14
ENDBRANCH  10  12
ENDBRANCH   7  10
ENDBRANCH   2   3
TORSDOF 11
ENDMDL
MODEL      217
REMARK 921   NORMALIZED FREE ENERGY PREDICTED BY IDOCK:   -4.34 KCAL/MOL
REMARK 922        TOTAL FREE ENERGY PREDICTED BY IDOCK:   -9.44 KCAL/MOL
REMARK 923 INTER-LIGAND FREE ENERGY PREDICTED BY IDOCK:   -8.37 KCAL/MOL
REMARK 924 INTRA-LIGAND FREE ENERGY PREDICTED BY IDOCK:   -1.07 KCAL/MOL
REMARK 927      BINDING AFFINITY PREDICTED BY RF-SCORE:    0.00 PKD
ROOT
HETATM    1  C   UNL     1      -9.770   3.621  66.071  1.00  0.00    -0.093 C  
HETATM    2  C   UNL     1      -8.776   4.308  66.996  1.00  0.00    -0.110 C  
ENDROOT
BRANCH   2   3
HETATM    3  C   UNL     1      -9.437   5.325  67.857  1.00  0.00    -0.146 C  
HETATM    4  C   UNL     1      -9.715   6.620  67.646  1.00  0.00    -0.142 C  
HETATM    5  C   UNL     1     -10.395   7.252  68.818  1.00  0.00    -0.200 C  
HETATM    6  C   UNL     1      -9.467   7.412  66.411  1.00  0.00    -0.194 C  
HETATM    7  N   UNL     1     -10.560   6.137  69.710  1.00  0.00    -0.249 N  
HETATM    8  O   UNL     1      -9.809   3.914  69.753  1.00  0.00    -0.195 OA 
HETATM    9  C   UNL     1      -9.942   4.999  69.208  1.00  0.00    -0.207 C  
BRANCH   7  10
HETATM   10  C   UNL     1     -11.426   6.220  70.785  1.00  0.00    -0.316 C  
HETATM   11  O   UNL     1     -11.147   5.765  71.892  1.00  0.00    -0.259 OA 
BRANCH  10  12
HETATM   12  N   UNL     1     -12.600   6.884  70.534  1.00  0.00    -0.553 N  
HETATM   13  H   UNL     1     -12.987   6.847  69.590  1.00  0.00     0.000 HD 
BRANCH  12  14
HETATM   14  C   UNL     1     -13.316   7.637  71.544  1.00  0.00    -0.332 C  
BRANCH  14  15
HETATM   15  C   UNL     1     -12.445   8.699  72.237  1.00  0.00    -0.460 C  
BRANCH  15  16
HETATM   16  C   UNL     1     -12.164   9.931  71.393  1.00  0.00    -0.499 A  
HETATM   17  C   UNL     1     -12.794  11.157  71.652  1.00  0.00    -0.524 A  
HETATM   18  C   UNL     1     -12.571  12.267  70.834  1.00  0.00    -0.334 A  
HETATM   19  C   UNL     1     -11.660  12.193  69.781  1.00  0.00    -0.262 A  
HETATM   20  C   UNL     1     -10.985  10.994  69.533  1.00  0.00    -0.297 A  
HETATM   21  C   UNL     1     -11.233   9.874  70.341  1.00  0.00    -0.379 A  
BRANCH  19  22
HETATM   22  S   UNL     1     -11.496  13.575  68.667  1.00  0.00    -0.333 S  
HETATM   23  O   UNL     1     -11.677  13.065  67.323  1.00  0.00    -0.340 OA 
HETATM   24  O   UNL     1     -12.317  14.663  69.149  1.00  0.00    -0.220 OA 
BRANCH  22  25
HETATM   25  N   UNL     1      -9.883  14.012  68.750  1.00  0.00    -0.360 N  
HETATM   26  H   UNL     1      -9.492  14.245  69.663  1.00  0.00     0.000 HD 
BRANCH  25  27
HETATM   27  C   UNL     1      -9.053  14.074  67.648  1.00  0.00    -0.192 C  
HETATM   28  O   UNL     1      -9.424  14.501  66.566  1.00  0.00    -0.264 OA 
BRANCH  27  29
HETATM   29  N   UNL     1      -7.772  13.621  67.861  1.00  0.00    -0.140 N  
HETATM   30  H   UNL     1      -6.973  14.244  67.752  1.00  0.00     0.000 HD 
BRANCH  29  31
HETATM   31  C   UNL     1      -7.584  12.224  68.248  1.00  0.00    -0.133 C  
HETATM   32  C   UNL     1      -8.471  11.256  67.455  1.00  0.00    -0.131 C  
HETATM   33  C   UNL     1      -7.900  10.815  66.109  1.00  0.00    -0.155 C  
HETATM   34  C   UNL     1      -6.434  10.372  66.184  1.00  0.00    -0.111 C  
HETATM   35  C   UNL     1      -5.593  11.473  66.837  1.00  0.00    -0.129 C  
HETATM   36  C   UNL     1      -6.268   9.026  66.901  1.00  0.00    -0.059 C  
HETATM   37  C   UNL     1      -6.097  11.841  68.231  1.00  0.00    -0.049 C  
ENDBRANCH  29  31
ENDBRANCH  27  29
ENDBRANCH  25  27
ENDBRANCH  22  25
ENDBRANCH  19  22
ENDBRANCH  15  16
ENDBRANCH  14  15
ENDBRANCH  12  14
ENDBRANCH  10  12
ENDBRANCH   7  10
ENDBRANCH   2   3
TORSDOF 11
ENDMDL
MODEL      218
REMARK 921   NORMALIZED FREE ENERGY PREDICTED BY IDOCK:   -4.33 KCAL/MOL
REMARK 922        TOTAL FREE ENERGY PREDICTED BY IDOCK:   -9.42 KCAL/MOL
REMARK 923 INTER-LIGAND FREE ENERGY PREDICTED BY IDOCK:   -8.21 KCAL/MOL
REMARK 924 INTRA-LIGAND FREE ENERGY PREDICTED BY IDOCK:   -1.21 KCAL/MOL
REMARK 927      BINDING AFFINITY PREDICTED BY RF-SCORE:    0.00 PKD
ROOT
HETATM    1  C   UNL     1      -7.205   7.975  66.121  1.00  0.00    -0.070 C  
HETATM    2  C   UNL     1      -8.468   7.265  65.655  1.00  0.00    -0.138 C  
ENDROOT
BRANCH   2   3
HETATM    3  C   UNL     1      -9.104   6.494  66.756  1.00  0.00    -0.153 C  
HETATM    4  C   UNL     1      -8.964   5.216  67.139  1.00  0.00    -0.112 C  
HETATM    5  C   UNL     1      -9.825   4.879  68.314  1.00  0.00    -0.136 C  
HETATM    6  C   UNL     1      -8.051   4.190  66.566  1.00  0.00    -0.101 C  
HETATM    7  N   UNL     1     -10.421   6.149  68.627  1.00  0.00    -0.209 N  
HETATM    8  O   UNL     1     -10.484   8.257  67.596  1.00  0.00    -0.239 OA 
HETATM    9  C   UNL     1     -10.076   7.110  67.684  1.00  0.00    -0.180 C  
BRANCH   7  10
HETATM   10  C   UNL     1     -11.048   6.351  69.844  1.00  0.00    -0.381 C  
HETATM   11  O   UNL     1     -11.005   5.523  70.752  1.00  0.00    -0.230 OA 
BRANCH  10  12
HETATM   12  N   UNL     1     -11.685   7.558  69.973  1.00  0.00    -0.488 N  
HETATM   13  H   UNL     1     -11.992   8.039  69.127  1.00  0.00     0.000 HD 
BRANCH  12  14
HETATM   14  C   UNL     1     -11.942   8.184  71.255  1.00  0.00    -0.291 C  
BRANCH  14  15
HETATM   15  C   UNL     1     -11.121   9.465  71.478  1.00  0.00    -0.446 C  
BRANCH  15  16
HETATM   16  C   UNL     1     -11.321  10.534  70.416  1.00  0.00    -0.411 A  
HETATM   17  C   UNL     1     -10.563  10.548  69.236  1.00  0.00    -0.265 A  
HETATM   18  C   UNL     1     -10.717  11.567  68.294  1.00  0.00    -0.247 A  
HETATM   19  C   UNL     1     -11.681  12.558  68.482  1.00  0.00    -0.324 A  
HETATM   20  C   UNL     1     -12.480  12.538  69.629  1.00  0.00     0.129 A  
HETATM   21  C   UNL     1     -12.302  11.527  70.585  1.00  0.00    -0.457 A  
BRANCH  19  22
HETATM   22  S   UNL     1     -11.764  13.925  67.340  1.00  0.00    -0.410 S  
HETATM   23  O   UNL     1     -12.848  13.648  66.419  1.00  0.00    -0.203 OA 
HETATM   24  O   UNL     1     -11.745  15.161  68.091  1.00  0.00    -0.342 OA 
BRANCH  22  25
HETATM   25  N   UNL     1     -10.373  13.808  66.419  1.00  0.00    -0.284 N  
HETATM   26  H   UNL     1      -9.994  12.880  66.232  1.00  0.00     0.000 HD 
BRANCH  25  27
HETATM   27  C   UNL     1      -9.711  14.902  65.898  1.00  0.00    -0.333 C  
HETATM   28  O   UNL     1     -10.127  15.527  64.935  1.00  0.00    -0.351 OA 
BRANCH  27  29
HETATM   29  N   UNL     1      -8.546  15.239  66.547  1.00  0.00    -0.392 N  
HETATM   30  H   UNL     1      -8.004  16.052  66.258  1.00  0.00     0.000 HD 
BRANCH  29  31
HETATM   31  C   UNL     1      -8.105  14.402  67.661  1.00  0.00    -0.177 C  
HETATM   32  C   UNL     1      -6.666  13.896  67.500  1.00  0.00    -0.132 C  
HETATM   33  C   UNL     1      -5.586  14.863  67.981  1.00  0.00    -0.142 C  
HETATM   34  C   UNL     1      -5.869  15.455  69.366  1.00  0.00    -0.109 C  
HETATM   35  C   UNL     1      -7.263  16.090  69.383  1.00  0.00    -0.213 C  
HETATM   36  C   UNL     1      -5.699  14.422  70.487  1.00  0.00    -0.158 C  
HETATM   37  C   UNL     1      -8.360  15.096  69.008  1.00  0.00    -0.209 C  
ENDBRANCH  29  31
ENDBRANCH  27  29
ENDBRANCH  25  27
ENDBRANCH  22  25
ENDBRANCH  19  22
ENDBRANCH  15  16
ENDBRANCH  14  15
ENDBRANCH  12  14
ENDBRANCH  10  12
ENDBRANCH   7  10
ENDBRANCH   2   3
TORSDOF 11
ENDMDL
MODEL      219
REMARK 921   NORMALIZED FREE ENERGY PREDICTED BY IDOCK:   -4.33 KCAL/MOL
REMARK 922        TOTAL FREE ENERGY PREDICTED BY IDOCK:   -9.42 KCAL/MOL
REMARK 923 INTER-LIGAND FREE ENERGY PREDICTED BY IDOCK:   -7.46 KCAL/MOL
REMARK 924 INTRA-LIGAND FREE ENERGY PREDICTED BY IDOCK:   -1.95 KCAL/MOL
REMARK 927      BINDING AFFINITY PREDICTED BY RF-SCORE:    0.00 PKD
ROOT
HETATM    1  C   UNL     1     -11.696  12.213  67.555  1.00  0.00    -0.385 C  
HETATM    2  C   UNL     1     -12.048  13.655  67.219  1.00  0.00    -0.385 C  
ENDROOT
BRANCH   2   3
HETATM    3  C   UNL     1     -11.038  14.606  67.752  1.00  0.00    -0.306 C  
HETATM    4  C   UNL     1     -10.890  15.155  68.967  1.00  0.00    -0.242 C  
HETATM    5  C   UNL     1      -9.712  16.073  69.035  1.00  0.00    -0.244 C  
HETATM    6  C   UNL     1     -11.711  14.904  70.182  1.00  0.00    -0.340 C  
HETATM    7  N   UNL     1      -9.135  15.923  67.727  1.00  0.00    -0.195 N  
HETATM    8  O   UNL     1      -9.786  14.875  65.731  1.00  0.00    -0.323 OA 
HETATM    9  C   UNL     1      -9.932  15.123  66.918  1.00  0.00    -0.239 C  
BRANCH   7  10
HETATM   10  C   UNL     1      -7.849  16.363  67.472  1.00  0.00    -0.146 C  
HETATM   11  O   UNL     1      -7.538  17.551  67.516  1.00  0.00    -0.191 OA 
BRANCH  10  12
HETATM   12  N   UNL     1      -6.939  15.370  67.209  1.00  0.00    -0.189 N  
HETATM   13  H   UNL     1      -6.598  15.266  66.253  1.00  0.00     0.000 HD 
BRANCH  12  14
HETATM   14  C   UNL     1      -6.441  14.463  68.223  1.00  0.00    -0.115 C  
BRANCH  14  15
HETATM   15  C   UNL     1      -5.896  13.148  67.641  1.00  0.00    -0.122 C  
BRANCH  15  16
HETATM   16  C   UNL     1      -6.820  11.954  67.810  1.00  0.00    -0.094 A  
HETATM   17  C   UNL     1      -6.384  10.645  67.553  1.00  0.00    -0.057 A  
HETATM   18  C   UNL     1      -7.258   9.562  67.657  1.00  0.00    -0.082 A  
HETATM   19  C   UNL     1      -8.571   9.757  68.086  1.00  0.00    -0.118 A  
HETATM   20  C   UNL     1      -9.015  11.047  68.392  1.00  0.00    -0.158 A  
HETATM   21  C   UNL     1      -8.139  12.136  68.260  1.00  0.00    -0.166 A  
BRANCH  19  22
HETATM   22  S   UNL     1      -9.708   8.384  68.076  1.00  0.00    -0.164 S  
HETATM   23  O   UNL     1     -10.450   8.452  66.833  1.00  0.00    -0.317 OA 
HETATM   24  O   UNL     1      -8.988   7.180  68.429  1.00  0.00    -0.127 OA 
BRANCH  22  25
HETATM   25  N   UNL     1     -10.827   8.737  69.268  1.00  0.00    -0.399 N  
HETATM   26  H   UNL     1     -11.722   9.140  68.987  1.00  0.00     0.000 HD 
BRANCH  25  27
HETATM   27  C   UNL     1     -10.606   8.510  70.612  1.00  0.00    -0.209 C  
HETATM   28  O   UNL     1     -10.207   9.381  71.370  1.00  0.00    -0.316 OA 
BRANCH  27  29
HETATM   29  N   UNL     1     -10.871   7.229  71.035  1.00  0.00    -0.236 N  
HETATM   30  H   UNL     1     -11.696   6.731  70.704  1.00  0.00     0.000 HD 
BRANCH  29  31
HETATM   31  C   UNL     1      -9.941   6.600  71.971  1.00  0.00    -0.165 C  
HETATM   32  C   UNL     1     -10.610   6.161  73.280  1.00  0.00    -0.278 C  
HETATM   33  C   UNL     1     -11.275   4.787  73.234  1.00  0.00    -0.421 C  
HETATM   34  C   UNL     1     -10.390   3.701  72.611  1.00  0.00    -0.224 C  
HETATM   35  C   UNL     1      -9.907   4.156  71.230  1.00  0.00    -0.249 C  
HETATM   36  C   UNL     1      -9.222   3.306  73.523  1.00  0.00    -0.103 C  
HETATM   37  C   UNL     1      -9.145   5.478  71.287  1.00  0.00    -0.158 C  
ENDBRANCH  29  31
ENDBRANCH  27  29
ENDBRANCH  25  27
ENDBRANCH  22  25
ENDBRANCH  19  22
ENDBRANCH  15  16
ENDBRANCH  14  15
ENDBRANCH  12  14
ENDBRANCH  10  12
ENDBRANCH   7  10
ENDBRANCH   2   3
TORSDOF 11
ENDMDL
MODEL      220
REMARK 921   NORMALIZED FREE ENERGY PREDICTED BY IDOCK:   -4.32 KCAL/MOL
REMARK 922        TOTAL FREE ENERGY PREDICTED BY IDOCK:   -9.40 KCAL/MOL
REMARK 923 INTER-LIGAND FREE ENERGY PREDICTED BY IDOCK:   -7.86 KCAL/MOL
REMARK 924 INTRA-LIGAND FREE ENERGY PREDICTED BY IDOCK:   -1.54 KCAL/MOL
REMARK 927      BINDING AFFINITY PREDICTED BY RF-SCORE:    0.00 PKD
ROOT
HETATM    1  C   UNL     1      -7.392   8.831  65.077  1.00  0.00    -0.089 C  
HETATM    2  C   UNL     1      -8.528   7.912  65.498  1.00  0.00    -0.153 C  
ENDROOT
BRANCH   2   3
HETATM    3  C   UNL     1      -8.050   6.812  66.377  1.00  0.00    -0.110 C  
HETATM    4  C   UNL     1      -7.214   5.789  66.143  1.00  0.00    -0.076 C  
HETATM    5  C   UNL     1      -7.031   4.920  67.345  1.00  0.00    -0.061 C  
HETATM    6  C   UNL     1      -6.467   5.496  64.890  1.00  0.00    -0.038 C  
HETATM    7  N   UNL     1      -7.797   5.616  68.342  1.00  0.00    -0.092 N  
HETATM    8  O   UNL     1      -9.281   7.435  68.331  1.00  0.00    -0.139 OA 
HETATM    9  C   UNL     1      -8.472   6.698  67.789  1.00  0.00    -0.122 C  
BRANCH   7  10
HETATM   10  C   UNL     1      -7.642   5.317  69.684  1.00  0.00    -0.069 C  
HETATM   11  O   UNL     1      -6.741   4.589  70.096  1.00  0.00    -0.035 OA 
BRANCH  10  12
HETATM   12  N   UNL     1      -8.541   5.927  70.521  1.00  0.00    -0.134 N  
HETATM   13  H   UNL     1      -9.107   6.691  70.151  1.00  0.00     0.000 HD 
BRANCH  12  14
HETATM   14  C   UNL     1      -8.723   5.538  71.904  1.00  0.00    -0.135 C  
BRANCH  14  15
HETATM   15  C   UNL     1      -8.922   6.737  72.848  1.00  0.00    -0.141 C  
BRANCH  15  16
HETATM   16  C   UNL     1      -9.855   7.811  72.314  1.00  0.00    -0.248 A  
HETATM   17  C   UNL     1      -9.412   8.781  71.401  1.00  0.00    -0.330 A  
HETATM   18  C   UNL     1     -10.264   9.796  70.962  1.00  0.00    -0.113 A  
HETATM   19  C   UNL     1     -11.596   9.823  71.373  1.00  0.00    -0.378 A  
HETATM   20  C   UNL     1     -12.072   8.840  72.245  1.00  0.00    -0.423 A  
HETATM   21  C   UNL     1     -11.205   7.838  72.706  1.00  0.00    -0.456 A  
BRANCH  19  22
HETATM   22  S   UNL     1     -12.626  11.204  70.913  1.00  0.00    -0.367 S  
HETATM   23  O   UNL     1     -13.282  10.854  69.670  1.00  0.00     0.075 OA 
HETATM   24  O   UNL     1     -13.409  11.605  72.061  1.00  0.00    -0.481 OA 
BRANCH  22  25
HETATM   25  N   UNL     1     -11.559  12.428  70.510  1.00  0.00    -0.407 N  
HETATM   26  H   UNL     1     -10.823  12.666  71.175  1.00  0.00     0.000 HD 
BRANCH  25  27
HETATM   27  C   UNL     1     -11.621  13.132  69.324  1.00  0.00    -0.314 C  
HETATM   28  O   UNL     1     -12.283  14.150  69.195  1.00  0.00    -0.335 OA 
BRANCH  27  29
HETATM   29  N   UNL     1     -10.877  12.603  68.295  1.00  0.00    -0.229 N  
HETATM   30  H   UNL     1      -9.859  12.597  68.338  1.00  0.00     0.000 HD 
BRANCH  29  31
HETATM   31  C   UNL     1     -11.582  12.049  67.141  1.00  0.00    -0.316 C  
HETATM   32  C   UNL     1     -12.189  13.127  66.234  1.00  0.00    -0.423 C  
HETATM   33  C   UNL     1     -11.232  13.708  65.194  1.00  0.00    -0.318 C  
HETATM   34  C   UNL     1     -10.444  12.641  64.426  1.00  0.00    -0.398 C  
HETATM   35  C   UNL     1      -9.732  11.711  65.414  1.00  0.00    -0.255 C  
HETATM   36  C   UNL     1     -11.326  11.860  63.443  1.00  0.00    -0.465 C  
HETATM   37  C   UNL     1     -10.701  11.043  66.386  1.00  0.00    -0.286 C  
ENDBRANCH  29  31
ENDBRANCH  27  29
ENDBRANCH  25  27
ENDBRANCH  22  25
ENDBRANCH  19  22
ENDBRANCH  15  16
ENDBRANCH  14  15
ENDBRANCH  12  14
ENDBRANCH  10  12
ENDBRANCH   7  10
ENDBRANCH   2   3
TORSDOF 11
ENDMDL
MODEL      221
REMARK 921   NORMALIZED FREE ENERGY PREDICTED BY IDOCK:   -4.31 KCAL/MOL
REMARK 922        TOTAL FREE ENERGY PREDICTED BY IDOCK:   -9.38 KCAL/MOL
REMARK 923 INTER-LIGAND FREE ENERGY PREDICTED BY IDOCK:   -8.79 KCAL/MOL
REMARK 924 INTRA-LIGAND FREE ENERGY PREDICTED BY IDOCK:   -0.60 KCAL/MOL
REMARK 927      BINDING AFFINITY PREDICTED BY RF-SCORE:    0.00 PKD
ROOT
HETATM    1  C   UNL     1     -11.035   6.872  73.218  1.00  0.00    -0.270 C  
HETATM    2  C   UNL     1     -11.209   5.542  72.500  1.00  0.00    -0.330 C  
ENDROOT
BRANCH   2   3
HETATM    3  C   UNL     1     -10.212   5.370  71.411  1.00  0.00    -0.279 C  
HETATM    4  C   UNL     1      -8.957   4.897  71.423  1.00  0.00    -0.162 C  
HETATM    5  C   UNL     1      -8.329   4.920  70.067  1.00  0.00    -0.073 C  
HETATM    6  C   UNL     1      -8.208   4.342  72.582  1.00  0.00    -0.105 C  
HETATM    7  N   UNL     1      -9.409   5.385  69.240  1.00  0.00    -0.116 N  
HETATM    8  O   UNL     1     -11.555   6.248  69.637  1.00  0.00    -0.430 OA 
HETATM    9  C   UNL     1     -10.514   5.731  70.009  1.00  0.00    -0.283 C  
BRANCH   7  10
HETATM   10  C   UNL     1      -9.348   5.254  67.865  1.00  0.00    -0.116 C  
HETATM   11  O   UNL     1     -10.100   4.508  67.240  1.00  0.00    -0.168 OA 
BRANCH  10  12
HETATM   12  N   UNL     1      -8.416   6.049  67.248  1.00  0.00    -0.105 N  
HETATM   13  H   UNL     1      -7.573   5.610  66.877  1.00  0.00     0.000 HD 
BRANCH  12  14
HETATM   14  C   UNL     1      -8.571   7.482  67.100  1.00  0.00    -0.121 C  
BRANCH  14  15
HETATM   15  C   UNL     1      -9.595   7.870  66.019  1.00  0.00    -0.037 C  
BRANCH  15  16
HETATM   16  C   UNL     1     -10.011   9.331  66.041  1.00  0.00    -0.325 A  
HETATM   17  C   UNL     1      -9.826  10.164  64.928  1.00  0.00    -0.390 A  
HETATM   18  C   UNL     1     -10.160  11.518  64.980  1.00  0.00    -0.315 A  
HETATM   19  C   UNL     1     -10.750  12.054  66.125  1.00  0.00    -0.275 A  
HETATM   20  C   UNL     1     -10.987  11.232  67.231  1.00  0.00    -0.342 A  
HETATM   21  C   UNL     1     -10.624   9.877  67.183  1.00  0.00    -0.295 A  
BRANCH  19  22
HETATM   22  S   UNL     1     -11.039  13.810  66.222  1.00  0.00    -0.306 S  
HETATM   23  O   UNL     1     -10.297  14.426  65.140  1.00  0.00    -0.377 OA 
HETATM   24  O   UNL     1     -12.460  14.043  66.354  1.00  0.00    -0.452 OA 
BRANCH  22  25
HETATM   25  N   UNL     1     -10.259  14.304  67.617  1.00  0.00    -0.236 N  
HETATM   26  H   UNL     1     -10.829  14.595  68.412  1.00  0.00     0.000 HD 
BRANCH  25  27
HETATM   27  C   UNL     1      -8.885  14.337  67.751  1.00  0.00    -0.185 C  
HETATM   28  O   UNL     1      -8.286  13.655  68.568  1.00  0.00    -0.157 OA 
BRANCH  27  29
HETATM   29  N   UNL     1      -8.240  15.195  66.892  1.00  0.00    -0.279 N  
HETATM   30  H   UNL     1      -7.905  14.870  65.985  1.00  0.00     0.000 HD 
BRANCH  29  31
HETATM   31  C   UNL     1      -8.045  16.581  67.309  1.00  0.00    -0.168 C  
HETATM   32  C   UNL     1      -8.387  17.594  66.210  1.00  0.00    -0.251 C  
HETATM   33  C   UNL     1      -9.864  17.975  66.123  1.00  0.00    -0.255 C  
HETATM   34  C   UNL     1     -10.487  18.319  67.481  1.00  0.00    -0.431 C  
HETATM   35  C   UNL     1     -10.241  17.174  68.469  1.00  0.00    -0.346 C  
HETATM   36  C   UNL     1      -9.986  19.662  68.029  1.00  0.00    -0.541 C  
HETATM   37  C   UNL     1      -8.756  16.863  68.641  1.00  0.00    -0.267 C  
ENDBRANCH  29  31
ENDBRANCH  27  29
ENDBRANCH  25  27
ENDBRANCH  22  25
ENDBRANCH  19  22
ENDBRANCH  15  16
ENDBRANCH  14  15
ENDBRANCH  12  14
ENDBRANCH  10  12
ENDBRANCH   7  10
ENDBRANCH   2   3
TORSDOF 11
ENDMDL
MODEL      222
REMARK 921   NORMALIZED FREE ENERGY PREDICTED BY IDOCK:   -4.30 KCAL/MOL
REMARK 922        TOTAL FREE ENERGY PREDICTED BY IDOCK:   -9.38 KCAL/MOL
REMARK 923 INTER-LIGAND FREE ENERGY PREDICTED BY IDOCK:   -8.44 KCAL/MOL
REMARK 924 INTRA-LIGAND FREE ENERGY PREDICTED BY IDOCK:   -0.94 KCAL/MOL
REMARK 927      BINDING AFFINITY PREDICTED BY RF-SCORE:    0.00 PKD
ROOT
HETATM    1  C   UNL     1     -10.752   6.030  69.530  1.00  0.00    -0.405 C  
HETATM    2  C   UNL     1      -9.913   4.830  69.116  1.00  0.00    -0.233 C  
ENDROOT
BRANCH   2   3
HETATM    3  C   UNL     1      -8.809   5.219  68.200  1.00  0.00    -0.107 C  
HETATM    4  C   UNL     1      -7.657   5.868  68.424  1.00  0.00    -0.090 C  
HETATM    5  C   UNL     1      -6.851   6.040  67.178  1.00  0.00    -0.063 C  
HETATM    6  C   UNL     1      -7.126   6.350  69.728  1.00  0.00    -0.072 C  
HETATM    7  N   UNL     1      -7.638   5.331  66.207  1.00  0.00    -0.087 N  
HETATM    8  O   UNL     1      -9.771   4.352  66.189  1.00  0.00    -0.176 OA 
HETATM    9  C   UNL     1      -8.838   4.896  66.757  1.00  0.00    -0.110 C  
BRANCH   7  10
HETATM   10  C   UNL     1      -7.096   4.980  64.984  1.00  0.00    -0.062 C  
HETATM   11  O   UNL     1      -6.777   3.824  64.712  1.00  0.00    -0.045 OA 
BRANCH  10  12
HETATM   12  N   UNL     1      -6.982   6.009  64.084  1.00  0.00    -0.049 N  
HETATM   13  H   UNL     1      -6.081   6.157  63.628  1.00  0.00     0.000 HD 
BRANCH  12  14
HETATM   14  C   UNL     1      -8.079   6.894  63.751  1.00  0.00     0.007 C  
BRANCH  14  15
HETATM   15  C   UNL     1      -7.637   8.354  63.548  1.00  0.00    -0.133 C  
BRANCH  15  16
HETATM   16  C   UNL     1      -8.660   9.388  63.987  1.00  0.00    -0.222 A  
HETATM   17  C   UNL     1      -9.213   9.374  65.275  1.00  0.00    -0.299 A  
HETATM   18  C   UNL     1     -10.194  10.295  65.647  1.00  0.00    -0.301 A  
HETATM   19  C   UNL     1     -10.593  11.294  64.760  1.00  0.00    -0.312 A  
HETATM   20  C   UNL     1     -10.021  11.357  63.486  1.00  0.00    -0.424 A  
HETATM   21  C   UNL     1      -9.056  10.412  63.107  1.00  0.00    -0.274 A  
BRANCH  19  22
HETATM   22  S   UNL     1     -11.943  12.371  65.203  1.00  0.00    -0.363 S  
HETATM   23  O   UNL     1     -12.912  12.308  64.127  1.00  0.00    -0.721 OA 
HETATM   24  O   UNL     1     -12.346  12.078  66.561  1.00  0.00    -0.377 OA 
BRANCH  22  25
HETATM   25  N   UNL     1     -11.311  13.917  65.127  1.00  0.00    -0.308 N  
HETATM   26  H   UNL     1     -11.751  14.589  64.498  1.00  0.00     0.000 HD 
BRANCH  25  27
HETATM   27  C   UNL     1     -10.225  14.333  65.871  1.00  0.00    -0.324 C  
HETATM   28  O   UNL     1      -9.470  13.552  66.430  1.00  0.00    -0.266 OA 
BRANCH  27  29
HETATM   29  N   UNL     1     -10.053  15.696  65.934  1.00  0.00    -0.326 N  
HETATM   30  H   UNL     1     -10.399  16.300  65.189  1.00  0.00     0.000 HD 
BRANCH  29  31
HETATM   31  C   UNL     1      -9.362  16.258  67.093  1.00  0.00    -0.222 C  
HETATM   32  C   UNL     1      -8.131  17.089  66.715  1.00  0.00    -0.277 C  
HETATM   33  C   UNL     1      -8.422  18.546  66.359  1.00  0.00    -0.275 C  
HETATM   34  C   UNL     1      -9.343  19.248  67.364  1.00  0.00    -0.368 C  
HETATM   35  C   UNL     1     -10.625  18.430  67.550  1.00  0.00    -0.447 C  
HETATM   36  C   UNL     1      -8.643  19.525  68.700  1.00  0.00    -0.365 C  
HETATM   37  C   UNL     1     -10.342  17.002  68.013  1.00  0.00    -0.341 C  
ENDBRANCH  29  31
ENDBRANCH  27  29
ENDBRANCH  25  27
ENDBRANCH  22  25
ENDBRANCH  19  22
ENDBRANCH  15  16
ENDBRANCH  14  15
ENDBRANCH  12  14
ENDBRANCH  10  12
ENDBRANCH   7  10
ENDBRANCH   2   3
TORSDOF 11
ENDMDL
MODEL      223
REMARK 921   NORMALIZED FREE ENERGY PREDICTED BY IDOCK:   -4.27 KCAL/MOL
REMARK 922        TOTAL FREE ENERGY PREDICTED BY IDOCK:   -9.33 KCAL/MOL
REMARK 923 INTER-LIGAND FREE ENERGY PREDICTED BY IDOCK:   -7.86 KCAL/MOL
REMARK 924 INTRA-LIGAND FREE ENERGY PREDICTED BY IDOCK:   -1.47 KCAL/MOL
REMARK 927      BINDING AFFINITY PREDICTED BY RF-SCORE:    0.00 PKD
ROOT
HETATM    1  C   UNL     1      -6.843  19.683  68.396  1.00  0.00    -0.329 C  
HETATM    2  C   UNL     1      -7.329  18.697  67.344  1.00  0.00    -0.224 C  
ENDROOT
BRANCH   2   3
HETATM    3  C   UNL     1      -8.708  18.221  67.632  1.00  0.00    -0.261 C  
HETATM    4  C   UNL     1      -9.906  18.702  67.267  1.00  0.00    -0.345 C  
HETATM    5  C   UNL     1     -11.034  17.882  67.805  1.00  0.00    -0.081 C  
HETATM    6  C   UNL     1     -10.187  19.872  66.392  1.00  0.00    -0.617 C  
HETATM    7  N   UNL     1     -10.341  16.805  68.459  1.00  0.00    -0.295 N  
HETATM    8  O   UNL     1      -8.101  16.345  68.986  1.00  0.00    -0.225 OA 
HETATM    9  C   UNL     1      -8.967  17.011  68.440  1.00  0.00    -0.247 C  
BRANCH   7  10
HETATM   10  C   UNL     1     -11.016  15.654  68.823  1.00  0.00    -0.281 C  
HETATM   11  O   UNL     1     -10.869  15.125  69.923  1.00  0.00    -0.255 OA 
BRANCH  10  12
HETATM   12  N   UNL     1     -11.889  15.173  67.882  1.00  0.00    -0.447 N  
HETATM   13  H   UNL     1     -12.888  15.330  68.020  1.00  0.00     0.000 HD 
BRANCH  12  14
HETATM   14  C   UNL     1     -11.461  14.450  66.701  1.00  0.00    -0.363 C  
BRANCH  14  15
HETATM   15  C   UNL     1     -11.959  12.995  66.669  1.00  0.00    -0.453 C  
BRANCH  15  16
HETATM   16  C   UNL     1     -11.033  11.997  67.342  1.00  0.00    -0.311 A  
HETATM   17  C   UNL     1      -9.638  12.139  67.291  1.00  0.00    -0.185 A  
HETATM   18  C   UNL     1      -8.797  11.184  67.865  1.00  0.00    -0.136 A  
HETATM   19  C   UNL     1      -9.334  10.103  68.564  1.00  0.00    -0.151 A  
HETATM   20  C   UNL     1     -10.721   9.966  68.668  1.00  0.00    -0.256 A  
HETATM   21  C   UNL     1     -11.563  10.913  68.065  1.00  0.00    -0.295 A  
BRANCH  19  22
HETATM   22  S   UNL     1      -8.247   8.824  69.167  1.00  0.00    -0.121 S  
HETATM   23  O   UNL     1      -6.892   9.232  68.857  1.00  0.00    -0.055 OA 
HETATM   24  O   UNL     1      -8.617   8.502  70.528  1.00  0.00    -0.130 OA 
BRANCH  22  25
HETATM   25  N   UNL     1      -8.538   7.504  68.181  1.00  0.00    -0.124 N  
HETATM   26  H   UNL     1      -7.987   7.408  67.328  1.00  0.00     0.000 HD 
BRANCH  25  27
HETATM   27  C   UNL     1      -9.484   6.538  68.461  1.00  0.00    -0.121 C  
HETATM   28  O   UNL     1     -10.490   6.386  67.785  1.00  0.00    -0.171 OA 
BRANCH  27  29
HETATM   29  N   UNL     1      -9.207   5.756  69.557  1.00  0.00    -0.129 N  
HETATM   30  H   UNL     1      -8.281   5.764  69.983  1.00  0.00     0.000 HD 
BRANCH  29  31
HETATM   31  C   UNL     1     -10.272   4.914  70.098  1.00  0.00    -0.240 C  
HETATM   32  C   UNL     1      -9.852   3.449  70.270  1.00  0.00    -0.003 C  
HETATM   33  C   UNL     1      -9.132   3.136  71.580  1.00  0.00    -0.169 C  
HETATM   34  C   UNL     1      -9.830   3.716  72.815  1.00  0.00    -0.204 C  
HETATM   35  C   UNL     1     -10.057   5.219  72.624  1.00  0.00    -0.214 C  
HETATM   36  C   UNL     1     -11.135   2.980  73.146  1.00  0.00    -0.164 C  
HETATM   37  C   UNL     1     -10.872   5.530  71.370  1.00  0.00    -0.256 C  
ENDBRANCH  29  31
ENDBRANCH  27  29
ENDBRANCH  25  27
ENDBRANCH  22  25
ENDBRANCH  19  22
ENDBRANCH  15  16
ENDBRANCH  14  15
ENDBRANCH  12  14
ENDBRANCH  10  12
ENDBRANCH   7  10
ENDBRANCH   2   3
TORSDOF 11
ENDMDL
MODEL      224
REMARK 921   NORMALIZED FREE ENERGY PREDICTED BY IDOCK:   -4.25 KCAL/MOL
REMARK 922        TOTAL FREE ENERGY PREDICTED BY IDOCK:   -9.29 KCAL/MOL
REMARK 923 INTER-LIGAND FREE ENERGY PREDICTED BY IDOCK:   -7.08 KCAL/MOL
REMARK 924 INTRA-LIGAND FREE ENERGY PREDICTED BY IDOCK:   -2.21 KCAL/MOL
REMARK 927      BINDING AFFINITY PREDICTED BY RF-SCORE:    0.00 PKD
ROOT
HETATM    1  C   UNL     1      -6.277  15.147  70.313  1.00  0.00    -0.108 C  
HETATM    2  C   UNL     1      -7.375  14.517  69.468  1.00  0.00    -0.063 C  
ENDROOT
BRANCH   2   3
HETATM    3  C   UNL     1      -8.398  15.517  69.062  1.00  0.00    -0.227 C  
HETATM    4  C   UNL     1      -9.644  15.741  69.506  1.00  0.00    -0.262 C  
HETATM    5  C   UNL     1     -10.309  16.868  68.783  1.00  0.00    -0.324 C  
HETATM    6  C   UNL     1     -10.352  15.045  70.614  1.00  0.00     0.233 C  
HETATM    7  N   UNL     1      -9.260  17.335  67.919  1.00  0.00    -0.242 N  
HETATM    8  O   UNL     1      -7.119  16.570  67.337  1.00  0.00    -0.127 OA 
HETATM    9  C   UNL     1      -8.141  16.516  68.003  1.00  0.00    -0.167 C  
BRANCH   7  10
HETATM   10  C   UNL     1      -9.357  18.568  67.300  1.00  0.00    -0.280 C  
HETATM   11  O   UNL     1      -9.007  19.610  67.849  1.00  0.00    -0.312 OA 
BRANCH  10  12
HETATM   12  N   UNL     1      -9.833  18.534  66.014  1.00  0.00    -0.251 N  
HETATM   13  H   UNL     1      -9.353  19.088  65.304  1.00  0.00     0.000 HD 
BRANCH  12  14
HETATM   14  C   UNL     1     -10.985  17.750  65.617  1.00  0.00     0.226 C  
BRANCH  14  15
HETATM   15  C   UNL     1     -10.607  16.440  64.904  1.00  0.00    -0.116 C  
BRANCH  15  16
HETATM   16  C   UNL     1     -10.776  15.191  65.752  1.00  0.00    -0.359 A  
HETATM   17  C   UNL     1      -9.694  14.345  66.038  1.00  0.00    -0.320 A  
HETATM   18  C   UNL     1      -9.873  13.170  66.770  1.00  0.00    -0.251 A  
HETATM   19  C   UNL     1     -11.127  12.851  67.291  1.00  0.00    -0.274 A  
HETATM   20  C   UNL     1     -12.211  13.702  67.058  1.00  0.00    -0.373 A  
HETATM   21  C   UNL     1     -12.031  14.868  66.298  1.00  0.00    -0.062 A  
BRANCH  19  22
HETATM   22  S   UNL     1     -11.364  11.280  68.100  1.00  0.00    -0.314 S  
HETATM   23  O   UNL     1     -12.623  11.351  68.813  1.00  0.00    -0.257 OA 
HETATM   24  O   UNL     1     -11.129  10.222  67.143  1.00  0.00    -0.231 OA 
BRANCH  22  25
HETATM   25  N   UNL     1     -10.194  11.224  69.294  1.00  0.00    -0.419 N  
HETATM   26  H   UNL     1     -10.152  11.991  69.966  1.00  0.00     0.000 HD 
BRANCH  25  27
HETATM   27  C   UNL     1      -9.281  10.196  69.419  1.00  0.00    -0.214 C  
HETATM   28  O   UNL     1      -8.125  10.290  69.035  1.00  0.00    -0.112 OA 
BRANCH  27  29
HETATM   29  N   UNL     1      -9.770   9.055  70.011  1.00  0.00    -0.176 N  
HETATM   30  H   UNL     1     -10.465   9.111  70.755  1.00  0.00     0.000 HD 
BRANCH  29  31
HETATM   31  C   UNL     1      -9.269   7.762  69.550  1.00  0.00    -0.149 C  
HETATM   32  C   UNL     1      -8.577   6.956  70.656  1.00  0.00    -0.141 C  
HETATM   33  C   UNL     1      -9.515   6.124  71.529  1.00  0.00    -0.161 C  
HETATM   34  C   UNL     1     -10.530   5.304  70.725  1.00  0.00    -0.298 C  
HETATM   35  C   UNL     1     -11.295   6.222  69.767  1.00  0.00    -0.506 C  
HETATM   36  C   UNL     1      -9.877   4.127  69.989  1.00  0.00    -0.245 C  
HETATM   37  C   UNL     1     -10.365   6.975  68.817  1.00  0.00    -0.196 C  
ENDBRANCH  29  31
ENDBRANCH  27  29
ENDBRANCH  25  27
ENDBRANCH  22  25
ENDBRANCH  19  22
ENDBRANCH  15  16
ENDBRANCH  14  15
ENDBRANCH  12  14
ENDBRANCH  10  12
ENDBRANCH   7  10
ENDBRANCH   2   3
TORSDOF 11
ENDMDL
MODEL      225
REMARK 921   NORMALIZED FREE ENERGY PREDICTED BY IDOCK:   -4.25 KCAL/MOL
REMARK 922        TOTAL FREE ENERGY PREDICTED BY IDOCK:   -9.28 KCAL/MOL
REMARK 923 INTER-LIGAND FREE ENERGY PREDICTED BY IDOCK:   -8.37 KCAL/MOL
REMARK 924 INTRA-LIGAND FREE ENERGY PREDICTED BY IDOCK:   -0.91 KCAL/MOL
REMARK 927      BINDING AFFINITY PREDICTED BY RF-SCORE:    0.00 PKD
ROOT
HETATM    1  C   UNL     1     -12.407  16.157  73.973  1.00  0.00    -0.684 C  
HETATM    2  C   UNL     1     -13.482  15.713  72.992  1.00  0.00    -0.654 C  
ENDROOT
BRANCH   2   3
HETATM    3  C   UNL     1     -12.905  14.956  71.850  1.00  0.00    -0.402 C  
HETATM    4  C   UNL     1     -12.966  13.656  71.526  1.00  0.00    -0.443 C  
HETATM    5  C   UNL     1     -12.217  13.348  70.270  1.00  0.00    -0.335 C  
HETATM    6  C   UNL     1     -13.708  12.578  72.235  1.00  0.00    -0.356 C  
HETATM    7  N   UNL     1     -11.782  14.652  69.849  1.00  0.00    -0.282 N  
HETATM    8  O   UNL     1     -11.801  16.799  70.798  1.00  0.00     0.324 OA 
HETATM    9  C   UNL     1     -12.107  15.617  70.795  1.00  0.00    -0.412 C  
BRANCH   7  10
HETATM   10  C   UNL     1     -11.319  14.857  68.562  1.00  0.00    -0.298 C  
HETATM   11  O   UNL     1     -10.275  15.462  68.326  1.00  0.00    -0.224 OA 
BRANCH  10  12
HETATM   12  N   UNL     1     -12.089  14.300  67.574  1.00  0.00    -0.570 N  
HETATM   13  H   UNL     1     -13.025  14.675  67.417  1.00  0.00     0.000 HD 
BRANCH  12  14
HETATM   14  C   UNL     1     -11.637  13.203  66.742  1.00  0.00    -0.366 C  
BRANCH  14  15
HETATM   15  C   UNL     1     -10.211  12.735  67.081  1.00  0.00    -0.235 C  
BRANCH  15  16
HETATM   16  C   UNL     1     -10.110  11.279  67.505  1.00  0.00    -0.207 A  
HETATM   17  C   UNL     1     -10.095  10.240  66.564  1.00  0.00    -0.290 A  
HETATM   18  C   UNL     1     -10.059   8.904  66.968  1.00  0.00    -0.331 A  
HETATM   19  C   UNL     1      -9.968   8.581  68.323  1.00  0.00    -0.184 A  
HETATM   20  C   UNL     1      -9.935   9.602  69.277  1.00  0.00    -0.197 A  
HETATM   21  C   UNL     1      -9.999  10.943  68.866  1.00  0.00    -0.208 A  
BRANCH  19  22
HETATM   22  S   UNL     1     -10.066   6.873  68.824  1.00  0.00    -0.173 S  
HETATM   23  O   UNL     1      -9.958   6.844  70.268  1.00  0.00    -0.178 OA 
HETATM   24  O   UNL     1     -11.197   6.258  68.166  1.00  0.00    -0.327 OA 
BRANCH  22  25
HETATM   25  N   UNL     1      -8.650   6.175  68.270  1.00  0.00    -0.116 N  
HETATM   26  H   UNL     1      -7.870   6.788  68.033  1.00  0.00     0.000 HD 
BRANCH  25  27
HETATM   27  C   UNL     1      -8.481   4.813  68.118  1.00  0.00    -0.101 C  
HETATM   28  O   UNL     1      -8.476   4.040  69.063  1.00  0.00    -0.075 OA 
BRANCH  27  29
HETATM   29  N   UNL     1      -8.321   4.391  66.819  1.00  0.00    -0.105 N  
HETATM   30  H   UNL     1      -7.495   4.655  66.283  1.00  0.00     0.000 HD 
BRANCH  29  31
HETATM   31  C   UNL     1      -9.362   3.556  66.226  1.00  0.00    -0.166 C  
HETATM   32  C   UNL     1     -10.151   4.270  65.122  1.00  0.00    -0.221 C  
HETATM   33  C   UNL     1      -9.512   4.214  63.735  1.00  0.00    -0.147 C  
HETATM   34  C   UNL     1      -9.045   2.810  63.335  1.00  0.00    -0.095 C  
HETATM   35  C   UNL     1      -8.124   2.242  64.420  1.00  0.00    -0.078 C  
HETATM   36  C   UNL     1     -10.217   1.869  63.032  1.00  0.00    -0.115 C  
HETATM   37  C   UNL     1      -8.798   2.195  65.789  1.00  0.00    -0.121 C  
ENDBRANCH  29  31
ENDBRANCH  27  29
ENDBRANCH  25  27
ENDBRANCH  22  25
ENDBRANCH  19  22
ENDBRANCH  15  16
ENDBRANCH  14  15
ENDBRANCH  12  14
ENDBRANCH  10  12
ENDBRANCH   7  10
ENDBRANCH   2   3
TORSDOF 11
ENDMDL
MODEL      226
REMARK 921   NORMALIZED FREE ENERGY PREDICTED BY IDOCK:   -4.20 KCAL/MOL
REMARK 922        TOTAL FREE ENERGY PREDICTED BY IDOCK:   -9.22 KCAL/MOL
REMARK 923 INTER-LIGAND FREE ENERGY PREDICTED BY IDOCK:   -8.31 KCAL/MOL
REMARK 924 INTRA-LIGAND FREE ENERGY PREDICTED BY IDOCK:   -0.91 KCAL/MOL
REMARK 927      BINDING AFFINITY PREDICTED BY RF-SCORE:    0.00 PKD
ROOT
HETATM    1  C   UNL     1      -9.987  14.592  65.571  1.00  0.00    -0.384 C  
HETATM    2  C   UNL     1     -11.413  14.717  66.085  1.00  0.00    -0.339 C  
ENDROOT
BRANCH   2   3
HETATM    3  C   UNL     1     -11.458  14.807  67.569  1.00  0.00    -0.369 C  
HETATM    4  C   UNL     1     -11.181  15.818  68.405  1.00  0.00    -0.362 C  
HETATM    5  C   UNL     1     -11.365  15.435  69.838  1.00  0.00    -0.304 C  
HETATM    6  C   UNL     1     -10.783  17.207  68.049  1.00  0.00    -0.372 C  
HETATM    7  N   UNL     1     -11.872  14.095  69.731  1.00  0.00    -0.302 N  
HETATM    8  O   UNL     1     -12.144  12.553  67.983  1.00  0.00    -0.351 OA 
HETATM    9  C   UNL     1     -11.871  13.664  68.410  1.00  0.00    -0.372 C  
BRANCH   7  10
HETATM   10  C   UNL     1     -12.470  13.481  70.817  1.00  0.00    -0.353 C  
HETATM   11  O   UNL     1     -12.684  14.073  71.873  1.00  0.00    -0.326 OA 
BRANCH  10  12
HETATM   12  N   UNL     1     -12.843  12.177  70.612  1.00  0.00    -0.037 N  
HETATM   13  H   UNL     1     -13.130  11.896  69.674  1.00  0.00     0.000 HD 
BRANCH  12  14
HETATM   14  C   UNL     1     -12.850  11.181  71.665  1.00  0.00    -0.419 C  
BRANCH  14  15
HETATM   15  C   UNL     1     -13.258   9.783  71.170  1.00  0.00    -0.404 C  
BRANCH  15  16
HETATM   16  C   UNL     1     -12.319   8.666  71.593  1.00  0.00    -0.384 A  
HETATM   17  C   UNL     1     -10.980   8.920  71.926  1.00  0.00    -0.439 A  
HETATM   18  C   UNL     1     -10.112   7.878  72.258  1.00  0.00    -0.297 A  
HETATM   19  C   UNL     1     -10.582   6.567  72.329  1.00  0.00    -0.212 A  
HETATM   20  C   UNL     1     -11.923   6.296  72.046  1.00  0.00    -0.353 A  
HETATM   21  C   UNL     1     -12.786   7.343  71.687  1.00  0.00    -0.399 A  
BRANCH  19  22
HETATM   22  S   UNL     1      -9.428   5.238  72.615  1.00  0.00    -0.147 S  
HETATM   23  O   UNL     1      -8.140   5.674  72.114  1.00  0.00    -0.106 OA 
HETATM   24  O   UNL     1      -9.563   4.791  73.984  1.00  0.00    -0.122 OA 
BRANCH  22  25
HETATM   25  N   UNL     1      -9.905   4.016  71.578  1.00  0.00    -0.185 N  
HETATM   26  H   UNL     1     -10.877   3.705  71.612  1.00  0.00     0.000 HD 
BRANCH  25  27
HETATM   27  C   UNL     1      -9.054   3.405  70.678  1.00  0.00    -0.115 C  
HETATM   28  O   UNL     1      -8.070   2.771  71.027  1.00  0.00    -0.052 OA 
BRANCH  27  29
HETATM   29  N   UNL     1      -9.400   3.560  69.356  1.00  0.00    -0.163 N  
HETATM   30  H   UNL     1     -10.218   4.107  69.092  1.00  0.00     0.000 HD 
BRANCH  29  31
HETATM   31  C   UNL     1      -8.565   2.923  68.340  1.00  0.00    -0.087 C  
HETATM   32  C   UNL     1      -9.338   2.567  67.064  1.00  0.00    -0.064 C  
HETATM   33  C   UNL     1      -9.462   3.702  66.049  1.00  0.00    -0.167 C  
HETATM   34  C   UNL     1      -8.138   4.425  65.776  1.00  0.00    -0.102 C  
HETATM   35  C   UNL     1      -7.522   4.895  67.097  1.00  0.00    -0.086 C  
HETATM   36  C   UNL     1      -7.162   3.564  64.965  1.00  0.00    -0.067 C  
HETATM   37  C   UNL     1      -7.294   3.744  68.075  1.00  0.00    -0.062 C  
ENDBRANCH  29  31
ENDBRANCH  27  29
ENDBRANCH  25  27
ENDBRANCH  22  25
ENDBRANCH  19  22
ENDBRANCH  15  16
ENDBRANCH  14  15
ENDBRANCH  12  14
ENDBRANCH  10  12
ENDBRANCH   7  10
ENDBRANCH   2   3
TORSDOF 11
ENDMDL
MODEL      227
REMARK 921   NORMALIZED FREE ENERGY PREDICTED BY IDOCK:   -4.20 KCAL/MOL
REMARK 922        TOTAL FREE ENERGY PREDICTED BY IDOCK:   -9.20 KCAL/MOL
REMARK 923 INTER-LIGAND FREE ENERGY PREDICTED BY IDOCK:   -6.92 KCAL/MOL
REMARK 924 INTRA-LIGAND FREE ENERGY PREDICTED BY IDOCK:   -2.28 KCAL/MOL
REMARK 927      BINDING AFFINITY PREDICTED BY RF-SCORE:    0.00 PKD
ROOT
HETATM    1  C   UNL     1      -9.082   7.505  73.464  1.00  0.00    -0.286 C  
HETATM    2  C   UNL     1      -8.264   6.236  73.649  1.00  0.00    -0.113 C  
ENDROOT
BRANCH   2   3
HETATM    3  C   UNL     1      -8.657   5.181  72.678  1.00  0.00    -0.117 C  
HETATM    4  C   UNL     1      -9.700   4.338  72.658  1.00  0.00    -0.193 C  
HETATM    5  C   UNL     1      -9.678   3.436  71.466  1.00  0.00    -0.163 C  
HETATM    6  C   UNL     1     -10.827   4.265  73.627  1.00  0.00    -0.358 C  
HETATM    7  N   UNL     1      -8.534   3.919  70.742  1.00  0.00    -0.070 N  
HETATM    8  O   UNL     1      -6.808   5.446  71.184  1.00  0.00    -0.048 OA 
HETATM    9  C   UNL     1      -7.864   4.900  71.463  1.00  0.00    -0.105 C  
BRANCH   7  10
HETATM   10  C   UNL     1      -8.338   3.563  69.420  1.00  0.00    -0.059 C  
HETATM   11  O   UNL     1      -8.556   2.427  69.005  1.00  0.00    -0.063 OA 
BRANCH  10  12
HETATM   12  N   UNL     1      -7.921   4.582  68.602  1.00  0.00    -0.078 N  
HETATM   13  H   UNL     1      -7.157   5.179  68.920  1.00  0.00     0.000 HD 
BRANCH  12  14
HETATM   14  C   UNL     1      -8.514   4.850  67.308  1.00  0.00    -0.105 C  
BRANCH  14  15
HETATM   15  C   UNL     1     -10.033   5.089  67.377  1.00  0.00    -0.214 C  
BRANCH  15  16
HETATM   16  C   UNL     1     -10.452   6.210  68.313  1.00  0.00    -0.284 A  
HETATM   17  C   UNL     1     -10.114   7.547  68.056  1.00  0.00    -0.221 A  
HETATM   18  C   UNL     1     -10.456   8.561  68.953  1.00  0.00    -0.207 A  
HETATM   19  C   UNL     1     -11.203   8.267  70.093  1.00  0.00    -0.132 A  
HETATM   20  C   UNL     1     -11.591   6.949  70.347  1.00  0.00    -0.385 A  
HETATM   21  C   UNL     1     -11.221   5.929  69.456  1.00  0.00    -0.299 A  
BRANCH  19  22
HETATM   22  S   UNL     1     -11.507   9.550  71.294  1.00  0.00    -0.398 S  
HETATM   23  O   UNL     1     -12.341   8.977  72.331  1.00  0.00    -0.349 OA 
HETATM   24  O   UNL     1     -10.249  10.177  71.635  1.00  0.00     0.925 OA 
BRANCH  22  25
HETATM   25  N   UNL     1     -12.489  10.655  70.511  1.00  0.00    -0.338 N  
HETATM   26  H   UNL     1     -13.079  10.322  69.748  1.00  0.00     0.000 HD 
BRANCH  25  27
HETATM   27  C   UNL     1     -12.545  11.994  70.844  1.00  0.00    -0.253 C  
HETATM   28  O   UNL     1     -13.368  12.446  71.625  1.00  0.00    -0.351 OA 
BRANCH  27  29
HETATM   29  N   UNL     1     -11.600  12.784  70.231  1.00  0.00    -0.535 N  
HETATM   30  H   UNL     1     -10.609  12.553  70.292  1.00  0.00     0.000 HD 
BRANCH  29  31
HETATM   31  C   UNL     1     -12.050  13.960  69.492  1.00  0.00    -0.342 C  
HETATM   32  C   UNL     1     -12.016  15.246  70.328  1.00  0.00    -0.367 C  
HETATM   33  C   UNL     1     -10.665  15.957  70.360  1.00  0.00    -0.266 C  
HETATM   34  C   UNL     1     -10.025  16.116  68.976  1.00  0.00    -0.242 C  
HETATM   35  C   UNL     1      -9.945  14.752  68.282  1.00  0.00    -0.222 C  
HETATM   36  C   UNL     1     -10.755  17.153  68.113  1.00  0.00    -0.366 C  
HETATM   37  C   UNL     1     -11.313  14.086  68.150  1.00  0.00    -0.320 C  
ENDBRANCH  29  31
ENDBRANCH  27  29
ENDBRANCH  25  27
ENDBRANCH  22  25
ENDBRANCH  19  22
ENDBRANCH  15  16
ENDBRANCH  14  15
ENDBRANCH  12  14
ENDBRANCH  10  12
ENDBRANCH   7  10
ENDBRANCH   2   3
TORSDOF 11
ENDMDL
MODEL      228
REMARK 921   NORMALIZED FREE ENERGY PREDICTED BY IDOCK:   -4.19 KCAL/MOL
REMARK 922        TOTAL FREE ENERGY PREDICTED BY IDOCK:   -9.20 KCAL/MOL
REMARK 923 INTER-LIGAND FREE ENERGY PREDICTED BY IDOCK:   -7.82 KCAL/MOL
REMARK 924 INTRA-LIGAND FREE ENERGY PREDICTED BY IDOCK:   -1.38 KCAL/MOL
REMARK 927      BINDING AFFINITY PREDICTED BY RF-SCORE:    0.00 PKD
ROOT
HETATM    1  C   UNL     1     -12.387  13.440  63.838  1.00  0.00    -0.410 C  
HETATM    2  C   UNL     1     -12.280  14.391  65.020  1.00  0.00    -0.418 C  
ENDROOT
BRANCH   2   3
HETATM    3  C   UNL     1     -11.206  13.979  65.963  1.00  0.00    -0.310 C  
HETATM    4  C   UNL     1     -10.068  14.586  66.331  1.00  0.00    -0.293 C  
HETATM    5  C   UNL     1      -9.287  13.777  67.316  1.00  0.00    -0.239 C  
HETATM    6  C   UNL     1      -9.577  15.926  65.912  1.00  0.00    -0.378 C  
HETATM    7  N   UNL     1     -10.157  12.656  67.546  1.00  0.00    -0.210 N  
HETATM    8  O   UNL     1     -12.143  11.866  66.577  1.00  0.00    -0.568 OA 
HETATM    9  C   UNL     1     -11.266  12.704  66.709  1.00  0.00    -0.300 C  
BRANCH   7  10
HETATM   10  C   UNL     1      -9.955  11.820  68.629  1.00  0.00    -0.172 C  
HETATM   11  O   UNL     1      -8.905  11.203  68.797  1.00  0.00    -0.162 OA 
BRANCH  10  12
HETATM   12  N   UNL     1     -10.996  11.763  69.519  1.00  0.00    -0.454 N  
HETATM   13  H   UNL     1     -11.220  12.600  70.058  1.00  0.00     0.000 HD 
BRANCH  12  14
HETATM   14  C   UNL     1     -11.793  10.572  69.730  1.00  0.00    -0.257 C  
BRANCH  14  15
HETATM   15  C   UNL     1     -11.740  10.058  71.180  1.00  0.00    -0.472 C  
BRANCH  15  16
HETATM   16  C   UNL     1     -10.990   8.748  71.356  1.00  0.00    -0.360 A  
HETATM   17  C   UNL     1      -9.800   8.677  72.096  1.00  0.00    -0.387 A  
HETATM   18  C   UNL     1      -9.091   7.479  72.203  1.00  0.00    -0.165 A  
HETATM   19  C   UNL     1      -9.594   6.311  71.630  1.00  0.00    -0.154 A  
HETATM   20  C   UNL     1     -10.802   6.348  70.928  1.00  0.00    -0.316 A  
HETATM   21  C   UNL     1     -11.497   7.560  70.800  1.00  0.00    -0.305 A  
BRANCH  19  22
HETATM   22  S   UNL     1      -8.606   4.827  71.659  1.00  0.00    -0.123 S  
HETATM   23  O   UNL     1      -8.156   4.638  73.023  1.00  0.00    -0.098 OA 
HETATM   24  O   UNL     1      -9.326   3.774  70.978  1.00  0.00    -0.122 OA 
BRANCH  22  25
HETATM   25  N   UNL     1      -7.223   5.208  70.797  1.00  0.00    -0.062 N  
HETATM   26  H   UNL     1      -6.319   5.066  71.247  1.00  0.00     0.000 HD 
BRANCH  25  27
HETATM   27  C   UNL     1      -7.242   5.703  69.508  1.00  0.00    -0.066 C  
HETATM   28  O   UNL     1      -7.133   6.894  69.258  1.00  0.00    -0.078 OA 
BRANCH  27  29
HETATM   29  N   UNL     1      -7.388   4.754  68.524  1.00  0.00    -0.064 N  
HETATM   30  H   UNL     1      -6.574   4.283  68.128  1.00  0.00     0.000 HD 
BRANCH  29  31
HETATM   31  C   UNL     1      -8.736   4.436  68.059  1.00  0.00    -0.105 C  
HETATM   32  C   UNL     1      -9.437   5.624  67.389  1.00  0.00    -0.116 C  
HETATM   33  C   UNL     1      -9.120   5.805  65.906  1.00  0.00    -0.148 C  
HETATM   34  C   UNL     1      -9.219   4.507  65.097  1.00  0.00    -0.157 C  
HETATM   35  C   UNL     1      -8.351   3.424  65.746  1.00  0.00    -0.103 C  
HETATM   36  C   UNL     1     -10.670   4.043  64.916  1.00  0.00    -0.108 C  
HETATM   37  C   UNL     1      -8.738   3.162  67.200  1.00  0.00    -0.137 C  
ENDBRANCH  29  31
ENDBRANCH  27  29
ENDBRANCH  25  27
ENDBRANCH  22  25
ENDBRANCH  19  22
ENDBRANCH  15  16
ENDBRANCH  14  15
ENDBRANCH  12  14
ENDBRANCH  10  12
ENDBRANCH   7  10
ENDBRANCH   2   3
TORSDOF 11
ENDMDL
MODEL      229
REMARK 921   NORMALIZED FREE ENERGY PREDICTED BY IDOCK:   -4.19 KCAL/MOL
REMARK 922        TOTAL FREE ENERGY PREDICTED BY IDOCK:   -9.19 KCAL/MOL
REMARK 923 INTER-LIGAND FREE ENERGY PREDICTED BY IDOCK:   -6.91 KCAL/MOL
REMARK 924 INTRA-LIGAND FREE ENERGY PREDICTED BY IDOCK:   -2.29 KCAL/MOL
REMARK 927      BINDING AFFINITY PREDICTED BY RF-SCORE:    0.00 PKD
ROOT
HETATM    1  C   UNL     1      -8.783   6.419  68.100  1.00  0.00    -0.116 C  
HETATM    2  C   UNL     1      -7.458   6.850  67.490  1.00  0.00    -0.097 C  
ENDROOT
BRANCH   2   3
HETATM    3  C   UNL     1      -7.624   7.314  66.087  1.00  0.00    -0.088 C  
HETATM    4  C   UNL     1      -7.985   6.660  64.973  1.00  0.00    -0.124 C  
HETATM    5  C   UNL     1      -8.010   7.552  63.774  1.00  0.00    -0.082 C  
HETATM    6  C   UNL     1      -8.386   5.233  64.848  1.00  0.00    -0.144 C  
HETATM    7  N   UNL     1      -7.702   8.835  64.344  1.00  0.00    -0.116 N  
HETATM    8  O   UNL     1      -6.999   9.594  66.451  1.00  0.00    -0.085 OA 
HETATM    9  C   UNL     1      -7.396   8.721  65.695  1.00  0.00    -0.085 C  
BRANCH   7  10
HETATM   10  C   UNL     1      -7.929   9.996  63.627  1.00  0.00    -0.155 C  
HETATM   11  O   UNL     1      -7.507  10.157  62.484  1.00  0.00    -0.124 OA 
BRANCH  10  12
HETATM   12  N   UNL     1      -8.694  10.934  64.271  1.00  0.00    -0.359 N  
HETATM   13  H   UNL     1      -8.222  11.646  64.830  1.00  0.00     0.000 HD 
BRANCH  12  14
HETATM   14  C   UNL     1     -10.141  10.962  64.197  1.00  0.00    -0.355 C  
BRANCH  14  15
HETATM   15  C   UNL     1     -10.783  11.870  65.260  1.00  0.00    -0.331 C  
BRANCH  15  16
HETATM   16  C   UNL     1     -10.961  11.217  66.621  1.00  0.00    -0.326 A  
HETATM   17  C   UNL     1     -11.605  11.881  67.675  1.00  0.00    -0.382 A  
HETATM   18  C   UNL     1     -11.711  11.293  68.937  1.00  0.00    -0.409 A  
HETATM   19  C   UNL     1     -11.236  10.000  69.152  1.00  0.00    -0.149 A  
HETATM   20  C   UNL     1     -10.631   9.301  68.103  1.00  0.00    -0.248 A  
HETATM   21  C   UNL     1     -10.502   9.907  66.844  1.00  0.00    -0.284 A  
BRANCH  19  22
HETATM   22  S   UNL     1     -11.255   9.324  70.802  1.00  0.00    -0.311 S  
HETATM   23  O   UNL     1     -11.874  10.311  71.662  1.00  0.00    -0.300 OA 
HETATM   24  O   UNL     1     -11.777   7.976  70.747  1.00  0.00    -0.278 OA 
BRANCH  22  25
HETATM   25  N   UNL     1      -9.651   9.283  71.274  1.00  0.00    -0.251 N  
HETATM   26  H   UNL     1      -9.003   9.944  70.844  1.00  0.00     0.000 HD 
BRANCH  25  27
HETATM   27  C   UNL     1      -9.156   8.403  72.217  1.00  0.00    -0.243 C  
HETATM   28  O   UNL     1      -9.034   8.699  73.395  1.00  0.00    -0.252 OA 
BRANCH  27  29
HETATM   29  N   UNL     1      -8.813   7.164  71.729  1.00  0.00    -0.125 N  
HETATM   30  H   UNL     1      -8.259   7.073  70.878  1.00  0.00     0.000 HD 
BRANCH  29  31
HETATM   31  C   UNL     1      -9.261   5.981  72.460  1.00  0.00    -0.141 C  
HETATM   32  C   UNL     1     -10.296   5.153  71.689  1.00  0.00    -0.274 C  
HETATM   33  C   UNL     1      -9.709   4.147  70.700  1.00  0.00    -0.273 C  
HETATM   34  C   UNL     1      -8.575   3.302  71.290  1.00  0.00    -0.105 C  
HETATM   35  C   UNL     1      -7.503   4.220  71.888  1.00  0.00    -0.070 C  
HETATM   36  C   UNL     1      -9.082   2.277  72.311  1.00  0.00    -0.120 C  
HETATM   37  C   UNL     1      -8.066   5.153  72.957  1.00  0.00    -0.105 C  
ENDBRANCH  29  31
ENDBRANCH  27  29
ENDBRANCH  25  27
ENDBRANCH  22  25
ENDBRANCH  19  22
ENDBRANCH  15  16
ENDBRANCH  14  15
ENDBRANCH  12  14
ENDBRANCH  10  12
ENDBRANCH   7  10
ENDBRANCH   2   3
TORSDOF 11
ENDMDL
MODEL      230
REMARK 921   NORMALIZED FREE ENERGY PREDICTED BY IDOCK:   -4.19 KCAL/MOL
REMARK 922        TOTAL FREE ENERGY PREDICTED BY IDOCK:   -9.19 KCAL/MOL
REMARK 923 INTER-LIGAND FREE ENERGY PREDICTED BY IDOCK:   -7.73 KCAL/MOL
REMARK 924 INTRA-LIGAND FREE ENERGY PREDICTED BY IDOCK:   -1.46 KCAL/MOL
REMARK 927      BINDING AFFINITY PREDICTED BY RF-SCORE:    0.00 PKD
ROOT
HETATM    1  C   UNL     1      -9.616   7.308  73.981  1.00  0.00    -0.288 C  
HETATM    2  C   UNL     1     -10.910   6.831  73.337  1.00  0.00    -0.282 C  
ENDROOT
BRANCH   2   3
HETATM    3  C   UNL     1     -10.706   6.440  71.917  1.00  0.00    -0.262 C  
HETATM    4  C   UNL     1     -10.745   7.157  70.784  1.00  0.00    -0.251 C  
HETATM    5  C   UNL     1     -10.479   6.322  69.574  1.00  0.00    -0.237 C  
HETATM    6  C   UNL     1     -10.967   8.622  70.645  1.00  0.00    -0.274 C  
HETATM    7  N   UNL     1     -10.188   5.037  70.150  1.00  0.00    -0.265 N  
HETATM    8  O   UNL     1     -10.323   4.110  72.302  1.00  0.00    -0.178 OA 
HETATM    9  C   UNL     1     -10.385   5.051  71.526  1.00  0.00    -0.182 C  
BRANCH   7  10
HETATM   10  C   UNL     1      -9.583   4.049  69.395  1.00  0.00    -0.187 C  
HETATM   11  O   UNL     1      -9.433   2.902  69.811  1.00  0.00    -0.149 OA 
BRANCH  10  12
HETATM   12  N   UNL     1      -9.203   4.434  68.135  1.00  0.00    -0.128 N  
HETATM   13  H   UNL     1      -8.369   5.014  68.036  1.00  0.00     0.000 HD 
BRANCH  12  14
HETATM   14  C   UNL     1      -9.929   4.058  66.939  1.00  0.00    -0.017 C  
BRANCH  14  15
HETATM   15  C   UNL     1     -10.557   5.259  66.211  1.00  0.00    -0.308 C  
BRANCH  15  16
HETATM   16  C   UNL     1      -9.586   6.386  65.902  1.00  0.00     0.129 A  
HETATM   17  C   UNL     1      -9.695   7.639  66.522  1.00  0.00    -0.251 A  
HETATM   18  C   UNL     1      -8.831   8.684  66.188  1.00  0.00    -0.204 A  
HETATM   19  C   UNL     1      -7.797   8.477  65.275  1.00  0.00    -0.106 A  
HETATM   20  C   UNL     1      -7.641   7.223  64.679  1.00  0.00    -0.106 A  
HETATM   21  C   UNL     1      -8.528   6.183  64.998  1.00  0.00    -0.071 A  
BRANCH  19  22
HETATM   22  S   UNL     1      -6.797   9.859  64.758  1.00  0.00    -0.133 S  
HETATM   23  O   UNL     1      -7.079  10.955  65.663  1.00  0.00    -0.067 OA 
HETATM   24  O   UNL     1      -5.436   9.405  64.568  1.00  0.00    -0.057 OA 
BRANCH  22  25
HETATM   25  N   UNL     1      -7.437  10.335  63.288  1.00  0.00    -0.208 N  
HETATM   26  H   UNL     1      -6.795  10.518  62.517  1.00  0.00     0.000 HD 
BRANCH  25  27
HETATM   27  C   UNL     1      -8.790  10.493  63.062  1.00  0.00    -0.225 C  
HETATM   28  O   UNL     1      -9.486   9.611  62.583  1.00  0.00    -0.182 OA 
BRANCH  27  29
HETATM   29  N   UNL     1      -9.299  11.719  63.421  1.00  0.00    -0.560 N  
HETATM   30  H   UNL     1      -8.944  12.576  62.996  1.00  0.00     0.000 HD 
BRANCH  29  31
HETATM   31  C   UNL     1     -10.359  11.766  64.426  1.00  0.00    -0.307 C  
HETATM   32  C   UNL     1     -10.053  12.729  65.579  1.00  0.00    -0.278 C  
HETATM   33  C   UNL     1     -10.429  14.186  65.318  1.00  0.00    -0.402 C  
HETATM   34  C   UNL     1     -11.839  14.359  64.741  1.00  0.00    -0.439 C  
HETATM   35  C   UNL     1     -11.997  13.487  63.491  1.00  0.00    -0.388 C  
HETATM   36  C   UNL     1     -12.932  14.074  65.778  1.00  0.00    -0.297 C  
HETATM   37  C   UNL     1     -11.728  12.011  63.773  1.00  0.00    -0.575 C  
ENDBRANCH  29  31
ENDBRANCH  27  29
ENDBRANCH  25  27
ENDBRANCH  22  25
ENDBRANCH  19  22
ENDBRANCH  15  16
ENDBRANCH  14  15
ENDBRANCH  12  14
ENDBRANCH  10  12
ENDBRANCH   7  10
ENDBRANCH   2   3
TORSDOF 11
ENDMDL
MODEL      231
REMARK 921   NORMALIZED FREE ENERGY PREDICTED BY IDOCK:   -4.16 KCAL/MOL
REMARK 922        TOTAL FREE ENERGY PREDICTED BY IDOCK:   -9.15 KCAL/MOL
REMARK 923 INTER-LIGAND FREE ENERGY PREDICTED BY IDOCK:   -7.32 KCAL/MOL
REMARK 924 INTRA-LIGAND FREE ENERGY PREDICTED BY IDOCK:   -1.83 KCAL/MOL
REMARK 927      BINDING AFFINITY PREDICTED BY RF-SCORE:    0.00 PKD
ROOT
HETATM    1  C   UNL     1      -7.839   6.778  65.752  1.00  0.00    -0.102 C  
HETATM    2  C   UNL     1      -8.953   7.811  65.674  1.00  0.00    -0.050 C  
ENDROOT
BRANCH   2   3
HETATM    3  C   UNL     1      -8.459   9.178  65.988  1.00  0.00    -0.139 C  
HETATM    4  C   UNL     1      -9.077  10.368  65.983  1.00  0.00    -0.187 C  
HETATM    5  C   UNL     1      -8.162  11.485  66.370  1.00  0.00    -0.092 C  
HETATM    6  C   UNL     1     -10.510  10.645  65.693  1.00  0.00    -0.235 C  
HETATM    7  N   UNL     1      -6.949  10.785  66.691  1.00  0.00    -0.120 N  
HETATM    8  O   UNL     1      -6.195   8.573  66.469  1.00  0.00    -0.055 OA 
HETATM    9  C   UNL     1      -7.063   9.429  66.407  1.00  0.00    -0.088 C  
BRANCH   7  10
HETATM   10  C   UNL     1      -5.939  11.415  67.394  1.00  0.00    -0.073 C  
HETATM   11  O   UNL     1      -5.635  12.590  67.200  1.00  0.00    -0.281 OA 
BRANCH  10  12
HETATM   12  N   UNL     1      -5.331  10.644  68.352  1.00  0.00    -0.037 N  
HETATM   13  H   UNL     1      -4.563  10.035  68.069  1.00  0.00     0.000 HD 
BRANCH  12  14
HETATM   14  C   UNL     1      -5.730  10.652  69.745  1.00  0.00    -0.050 C  
BRANCH  14  15
HETATM   15  C   UNL     1      -5.984   9.243  70.308  1.00  0.00    -0.037 C  
BRANCH  15  16
HETATM   16  C   UNL     1      -7.448   8.921  70.563  1.00  0.00    -0.089 A  
HETATM   17  C   UNL     1      -8.360   8.770  69.508  1.00  0.00    -0.119 A  
HETATM   18  C   UNL     1      -9.713   8.532  69.757  1.00  0.00    -0.179 A  
HETATM   19  C   UNL     1     -10.170   8.370  71.065  1.00  0.00    -0.199 A  
HETATM   20  C   UNL     1      -9.270   8.470  72.130  1.00  0.00    -0.336 A  
HETATM   21  C   UNL     1      -7.916   8.738  71.876  1.00  0.00    -0.079 A  
BRANCH  19  22
HETATM   22  S   UNL     1     -11.919   8.206  71.367  1.00  0.00    -0.303 S  
HETATM   23  O   UNL     1     -12.382   7.069  70.598  1.00  0.00    -0.319 OA 
HETATM   24  O   UNL     1     -12.153   8.264  72.793  1.00  0.00    -0.353 OA 
BRANCH  22  25
HETATM   25  N   UNL     1     -12.615   9.538  70.632  1.00  0.00    -0.507 N  
HETATM   26  H   UNL     1     -13.054   9.412  69.720  1.00  0.00     0.000 HD 
BRANCH  25  27
HETATM   27  C   UNL     1     -12.626  10.799  71.194  1.00  0.00    -0.428 C  
HETATM   28  O   UNL     1     -13.362  11.101  72.121  1.00  0.00    -0.452 OA 
BRANCH  27  29
HETATM   29  N   UNL     1     -11.743  11.692  70.634  1.00  0.00    -0.434 N  
HETATM   30  H   UNL     1     -10.742  11.614  70.808  1.00  0.00     0.000 HD 
BRANCH  29  31
HETATM   31  C   UNL     1     -12.274  12.754  69.783  1.00  0.00    -0.147 C  
HETATM   32  C   UNL     1     -12.453  14.085  70.523  1.00  0.00    -0.429 C  
HETATM   33  C   UNL     1     -11.201  14.958  70.592  1.00  0.00    -0.229 C  
HETATM   34  C   UNL     1     -10.485  15.105  69.244  1.00  0.00    -0.261 C  
HETATM   35  C   UNL     1     -10.194  13.719  68.659  1.00  0.00    -0.209 C  
HETATM   36  C   UNL     1     -11.267  15.987  68.262  1.00  0.00    -0.350 C  
HETATM   37  C   UNL     1     -11.460  12.883  68.486  1.00  0.00    -0.345 C  
ENDBRANCH  29  31
ENDBRANCH  27  29
ENDBRANCH  25  27
ENDBRANCH  22  25
ENDBRANCH  19  22
ENDBRANCH  15  16
ENDBRANCH  14  15
ENDBRANCH  12  14
ENDBRANCH  10  12
ENDBRANCH   7  10
ENDBRANCH   2   3
TORSDOF 11
ENDMDL
MODEL      232
REMARK 921   NORMALIZED FREE ENERGY PREDICTED BY IDOCK:   -4.16 KCAL/MOL
REMARK 922        TOTAL FREE ENERGY PREDICTED BY IDOCK:   -9.14 KCAL/MOL
REMARK 923 INTER-LIGAND FREE ENERGY PREDICTED BY IDOCK:   -6.99 KCAL/MOL
REMARK 924 INTRA-LIGAND FREE ENERGY PREDICTED BY IDOCK:   -2.15 KCAL/MOL
REMARK 927      BINDING AFFINITY PREDICTED BY RF-SCORE:    0.00 PKD
ROOT
HETATM    1  C   UNL     1     -10.300   8.754  71.334  1.00  0.00    -0.348 C  
HETATM    2  C   UNL     1      -9.097   8.163  72.055  1.00  0.00    -0.241 C  
ENDROOT
BRANCH   2   3
HETATM    3  C   UNL     1      -9.148   6.677  72.083  1.00  0.00    -0.138 C  
HETATM    4  C   UNL     1      -9.639   5.824  72.993  1.00  0.00    -0.157 C  
HETATM    5  C   UNL     1      -9.458   4.396  72.588  1.00  0.00    -0.134 C  
HETATM    6  C   UNL     1     -10.347   6.154  74.259  1.00  0.00    -0.291 C  
HETATM    7  N   UNL     1      -8.875   4.524  71.280  1.00  0.00    -0.118 N  
HETATM    8  O   UNL     1      -8.032   6.302  70.000  1.00  0.00    -0.107 OA 
HETATM    9  C   UNL     1      -8.610   5.855  70.979  1.00  0.00    -0.131 C  
BRANCH   7  10
HETATM   10  C   UNL     1      -8.834   3.442  70.420  1.00  0.00    -0.083 C  
HETATM   11  O   UNL     1      -9.697   2.567  70.420  1.00  0.00    -0.092 OA 
BRANCH  10  12
HETATM   12  N   UNL     1      -7.780   3.440  69.542  1.00  0.00    -0.051 N  
HETATM   13  H   UNL     1      -6.833   3.457  69.919  1.00  0.00     0.000 HD 
BRANCH  12  14
HETATM   14  C   UNL     1      -7.950   3.417  68.103  1.00  0.00    -0.074 C  
BRANCH  14  15
HETATM   15  C   UNL     1      -9.376   3.784  67.656  1.00  0.00    -0.240 C  
BRANCH  15  16
HETATM   16  C   UNL     1      -9.579   5.257  67.346  1.00  0.00    -0.146 A  
HETATM   17  C   UNL     1      -8.676   5.971  66.545  1.00  0.00    -0.128 A  
HETATM   18  C   UNL     1      -8.844   7.337  66.314  1.00  0.00    -0.179 A  
HETATM   19  C   UNL     1      -9.957   8.005  66.825  1.00  0.00    -0.274 A  
HETATM   20  C   UNL     1     -10.895   7.304  67.588  1.00  0.00    -0.251 A  
HETATM   21  C   UNL     1     -10.708   5.936  67.840  1.00  0.00    -0.336 A  
BRANCH  19  22
HETATM   22  S   UNL     1     -10.078   9.774  66.638  1.00  0.00    -0.234 S  
HETATM   23  O   UNL     1      -9.934  10.066  65.226  1.00  0.00    -0.315 OA 
HETATM   24  O   UNL     1     -11.239  10.241  67.363  1.00  0.00    -0.274 OA 
BRANCH  22  25
HETATM   25  N   UNL     1      -8.692  10.383  67.349  1.00  0.00    -0.125 N  
HETATM   26  H   UNL     1      -7.811  10.301  66.840  1.00  0.00     0.000 HD 
BRANCH  25  27
HETATM   27  C   UNL     1      -8.676  10.992  68.589  1.00  0.00    -0.161 C  
HETATM   28  O   UNL     1      -8.025  10.559  69.527  1.00  0.00    -0.154 OA 
BRANCH  27  29
HETATM   29  N   UNL     1      -9.447  12.126  68.687  1.00  0.00    -0.389 N  
HETATM   30  H   UNL     1     -10.273  12.145  69.285  1.00  0.00     0.000 HD 
BRANCH  29  31
HETATM   31  C   UNL     1      -9.055  13.303  67.916  1.00  0.00    -0.203 C  
HETATM   32  C   UNL     1      -9.974  13.570  66.717  1.00  0.00    -0.269 C  
HETATM   33  C   UNL     1     -11.233  14.374  67.038  1.00  0.00    -0.336 C  
HETATM   34  C   UNL     1     -10.961  15.622  67.885  1.00  0.00    -0.319 C  
HETATM   35  C   UNL     1     -10.186  15.233  69.147  1.00  0.00    -0.242 C  
HETATM   36  C   UNL     1     -10.244  16.720  67.090  1.00  0.00    -0.295 C  
HETATM   37  C   UNL     1      -8.871  14.525  68.827  1.00  0.00    -0.153 C  
ENDBRANCH  29  31
ENDBRANCH  27  29
ENDBRANCH  25  27
ENDBRANCH  22  25
ENDBRANCH  19  22
ENDBRANCH  15  16
ENDBRANCH  14  15
ENDBRANCH  12  14
ENDBRANCH  10  12
ENDBRANCH   7  10
ENDBRANCH   2   3
TORSDOF 11
ENDMDL
MODEL      233
REMARK 921   NORMALIZED FREE ENERGY PREDICTED BY IDOCK:   -4.14 KCAL/MOL
REMARK 922        TOTAL FREE ENERGY PREDICTED BY IDOCK:   -9.11 KCAL/MOL
REMARK 923 INTER-LIGAND FREE ENERGY PREDICTED BY IDOCK:   -7.41 KCAL/MOL
REMARK 924 INTRA-LIGAND FREE ENERGY PREDICTED BY IDOCK:   -1.70 KCAL/MOL
REMARK 927      BINDING AFFINITY PREDICTED BY RF-SCORE:    0.00 PKD
ROOT
HETATM    1  C   UNL     1     -13.024   8.731  72.216  1.00  0.00    -0.462 C  
HETATM    2  C   UNL     1     -11.538   8.459  72.403  1.00  0.00    -0.450 C  
ENDROOT
BRANCH   2   3
HETATM    3  C   UNL     1     -11.046   7.422  71.458  1.00  0.00    -0.266 C  
HETATM    4  C   UNL     1     -10.625   7.507  70.188  1.00  0.00    -0.241 C  
HETATM    5  C   UNL     1     -10.224   6.178  69.633  1.00  0.00    -0.201 C  
HETATM    6  C   UNL     1     -10.484   8.734  69.359  1.00  0.00    -0.228 C  
HETATM    7  N   UNL     1     -10.380   5.314  70.771  1.00  0.00    -0.243 N  
HETATM    8  O   UNL     1     -11.285   5.546  72.924  1.00  0.00    -0.278 OA 
HETATM    9  C   UNL     1     -10.934   5.999  71.846  1.00  0.00    -0.264 C  
BRANCH   7  10
HETATM   10  C   UNL     1      -9.818   4.051  70.777  1.00  0.00    -0.163 C  
HETATM   11  O   UNL     1     -10.228   3.151  71.506  1.00  0.00    -0.051 OA 
BRANCH  10  12
HETATM   12  N   UNL     1      -8.797   3.868  69.879  1.00  0.00    -0.079 N  
HETATM   13  H   UNL     1      -7.904   4.328  70.059  1.00  0.00     0.000 HD 
BRANCH  12  14
HETATM   14  C   UNL     1      -8.927   3.052  68.689  1.00  0.00    -0.137 C  
BRANCH  14  15
HETATM   15  C   UNL     1      -7.896   3.402  67.601  1.00  0.00    -0.077 C  
BRANCH  15  16
HETATM   16  C   UNL     1      -7.992   4.824  67.077  1.00  0.00    -0.103 A  
HETATM   17  C   UNL     1      -9.104   5.264  66.344  1.00  0.00    -0.137 A  
HETATM   18  C   UNL     1      -9.155   6.556  65.819  1.00  0.00    -0.009 A  
HETATM   19  C   UNL     1      -8.123   7.460  66.074  1.00  0.00    -0.124 A  
HETATM   20  C   UNL     1      -7.025   7.058  66.840  1.00  0.00    -0.070 A  
HETATM   21  C   UNL     1      -6.967   5.750  67.343  1.00  0.00    -0.065 A  
BRANCH  19  22
HETATM   22  S   UNL     1      -8.141   9.055  65.278  1.00  0.00    -0.134 S  
HETATM   23  O   UNL     1      -7.505   9.992  66.183  1.00  0.00    -0.101 OA 
HETATM   24  O   UNL     1      -7.653   8.906  63.924  1.00  0.00    -0.111 OA 
BRANCH  22  25
HETATM   25  N   UNL     1      -9.750   9.508  65.247  1.00  0.00    -0.436 N  
HETATM   26  H   UNL     1     -10.444   8.855  65.611  1.00  0.00     0.000 HD 
BRANCH  25  27
HETATM   27  C   UNL     1     -10.191  10.721  64.754  1.00  0.00    -0.334 C  
HETATM   28  O   UNL     1      -9.835  11.161  63.672  1.00  0.00    -0.277 OA 
BRANCH  27  29
HETATM   29  N   UNL     1     -11.064  11.397  65.573  1.00  0.00    -0.194 N  
HETATM   30  H   UNL     1     -12.030  11.554  65.289  1.00  0.00     0.000 HD 
BRANCH  29  31
HETATM   31  C   UNL     1     -10.574  11.885  66.860  1.00  0.00    -0.230 C  
HETATM   32  C   UNL     1      -9.340  12.786  66.732  1.00  0.00    -0.241 C  
HETATM   33  C   UNL     1      -9.643  14.256  66.449  1.00  0.00    -0.317 C  
HETATM   34  C   UNL     1     -10.730  14.841  67.358  1.00  0.00    -0.281 C  
HETATM   35  C   UNL     1     -11.987  13.968  67.291  1.00  0.00    -0.448 C  
HETATM   36  C   UNL     1     -10.243  15.032  68.800  1.00  0.00    -0.235 C  
HETATM   37  C   UNL     1     -11.708  12.517  67.680  1.00  0.00    -0.423 C  
ENDBRANCH  29  31
ENDBRANCH  27  29
ENDBRANCH  25  27
ENDBRANCH  22  25
ENDBRANCH  19  22
ENDBRANCH  15  16
ENDBRANCH  14  15
ENDBRANCH  12  14
ENDBRANCH  10  12
ENDBRANCH   7  10
ENDBRANCH   2   3
TORSDOF 11
ENDMDL
MODEL      234
REMARK 921   NORMALIZED FREE ENERGY PREDICTED BY IDOCK:   -4.12 KCAL/MOL
REMARK 922        TOTAL FREE ENERGY PREDICTED BY IDOCK:   -9.08 KCAL/MOL
REMARK 923 INTER-LIGAND FREE ENERGY PREDICTED BY IDOCK:   -7.76 KCAL/MOL
REMARK 924 INTRA-LIGAND FREE ENERGY PREDICTED BY IDOCK:   -1.32 KCAL/MOL
REMARK 927      BINDING AFFINITY PREDICTED BY RF-SCORE:    0.00 PKD
ROOT
HETATM    1  C   UNL     1     -11.501   7.129  72.536  1.00  0.00    -0.297 C  
HETATM    2  C   UNL     1     -10.921   5.725  72.624  1.00  0.00    -0.311 C  
ENDROOT
BRANCH   2   3
HETATM    3  C   UNL     1      -9.597   5.634  71.953  1.00  0.00    -0.176 C  
HETATM    4  C   UNL     1      -8.349   5.737  72.434  1.00  0.00    -0.118 C  
HETATM    5  C   UNL     1      -7.315   5.579  71.367  1.00  0.00    -0.081 C  
HETATM    6  C   UNL     1      -7.935   5.932  73.850  1.00  0.00    -0.102 C  
HETATM    7  N   UNL     1      -8.115   5.280  70.211  1.00  0.00    -0.090 N  
HETATM    8  O   UNL     1     -10.412   5.282  69.732  1.00  0.00    -0.291 OA 
HETATM    9  C   UNL     1      -9.470   5.376  70.503  1.00  0.00    -0.165 C  
BRANCH   7  10
HETATM   10  C   UNL     1      -7.534   4.756  69.071  1.00  0.00    -0.057 C  
HETATM   11  O   UNL     1      -7.445   3.546  68.874  1.00  0.00    -0.052 OA 
BRANCH  10  12
HETATM   12  N   UNL     1      -7.104   5.687  68.160  1.00  0.00    -0.069 N  
HETATM   13  H   UNL     1      -6.179   5.569  67.745  1.00  0.00     0.000 HD 
BRANCH  12  14
HETATM   14  C   UNL     1      -7.900   6.829  67.760  1.00  0.00    -0.113 C  
BRANCH  14  15
HETATM   15  C   UNL     1      -7.050   8.029  67.305  1.00  0.00    -0.083 C  
BRANCH  15  16
HETATM   16  C   UNL     1      -7.838   9.306  67.069  1.00  0.00    -0.098 A  
HETATM   17  C   UNL     1      -7.305  10.566  67.380  1.00  0.00    -0.093 A  
HETATM   18  C   UNL     1      -8.060  11.727  67.211  1.00  0.00    -0.164 A  
HETATM   19  C   UNL     1      -9.342  11.660  66.664  1.00  0.00    -0.194 A  
HETATM   20  C   UNL     1      -9.876  10.419  66.303  1.00  0.00    -0.272 A  
HETATM   21  C   UNL     1      -9.122   9.252  66.500  1.00  0.00    -0.191 A  
BRANCH  19  22
HETATM   22  S   UNL     1     -10.340  13.135  66.588  1.00  0.00    -0.269 S  
HETATM   23  O   UNL     1      -9.749  14.099  67.493  1.00  0.00    -0.227 OA 
HETATM   24  O   UNL     1     -10.559  13.479  65.200  1.00  0.00    -0.319 OA 
BRANCH  22  25
HETATM   25  N   UNL     1     -11.795  12.712  67.296  1.00  0.00    -0.364 N  
HETATM   26  H   UNL     1     -12.625  12.665  66.704  1.00  0.00     0.000 HD 
BRANCH  25  27
HETATM   27  C   UNL     1     -11.934  12.423  68.639  1.00  0.00    -0.225 C  
HETATM   28  O   UNL     1     -12.394  11.366  69.042  1.00  0.00    -0.407 OA 
BRANCH  27  29
HETATM   29  N   UNL     1     -11.511  13.415  69.492  1.00  0.00    -0.391 N  
HETATM   30  H   UNL     1     -10.530  13.489  69.762  1.00  0.00     0.000 HD 
BRANCH  29  31
HETATM   31  C   UNL     1     -12.500  14.361  70.003  1.00  0.00    -0.301 C  
HETATM   32  C   UNL     1     -13.540  13.707  70.921  1.00  0.00     0.186 C  
HETATM   33  C   UNL     1     -13.117  13.576  72.383  1.00  0.00    -0.494 C  
HETATM   34  C   UNL     1     -12.520  14.863  72.964  1.00  0.00    -0.488 C  
HETATM   35  C   UNL     1     -11.374  15.350  72.071  1.00  0.00    -0.466 C  
HETATM   36  C   UNL     1     -13.578  15.951  73.179  1.00  0.00    -0.580 C  
HETATM   37  C   UNL     1     -11.820  15.588  70.630  1.00  0.00    -0.400 C  
ENDBRANCH  29  31
ENDBRANCH  27  29
ENDBRANCH  25  27
ENDBRANCH  22  25
ENDBRANCH  19  22
ENDBRANCH  15  16
ENDBRANCH  14  15
ENDBRANCH  12  14
ENDBRANCH  10  12
ENDBRANCH   7  10
ENDBRANCH   2   3
TORSDOF 11
ENDMDL
MODEL      235
REMARK 921   NORMALIZED FREE ENERGY PREDICTED BY IDOCK:   -4.11 KCAL/MOL
REMARK 922        TOTAL FREE ENERGY PREDICTED BY IDOCK:   -9.06 KCAL/MOL
REMARK 923 INTER-LIGAND FREE ENERGY PREDICTED BY IDOCK:   -7.96 KCAL/MOL
REMARK 924 INTRA-LIGAND FREE ENERGY PREDICTED BY IDOCK:   -1.10 KCAL/MOL
REMARK 927      BINDING AFFINITY PREDICTED BY RF-SCORE:    0.00 PKD
ROOT
HETATM    1  C   UNL     1     -11.628  15.217  71.513  1.00  0.00    -0.456 C  
HETATM    2  C   UNL     1     -12.148  15.768  70.194  1.00  0.00    -0.355 C  
ENDROOT
BRANCH   2   3
HETATM    3  C   UNL     1     -11.125  15.677  69.118  1.00  0.00    -0.284 C  
HETATM    4  C   UNL     1     -10.390  16.620  68.511  1.00  0.00    -0.303 C  
HETATM    5  C   UNL     1      -9.484  16.049  67.469  1.00  0.00    -0.223 C  
HETATM    6  C   UNL     1     -10.365  18.079  68.802  1.00  0.00    -0.294 C  
HETATM    7  N   UNL     1      -9.717  14.637  67.604  1.00  0.00    -0.212 N  
HETATM    8  O   UNL     1     -11.245  13.310  68.793  1.00  0.00    -0.248 OA 
HETATM    9  C   UNL     1     -10.734  14.384  68.517  1.00  0.00    -0.253 C  
BRANCH   7  10
HETATM   10  C   UNL     1      -8.847  13.723  67.038  1.00  0.00    -0.218 C  
HETATM   11  O   UNL     1      -7.634  13.762  67.231  1.00  0.00    -0.155 OA 
BRANCH  10  12
HETATM   12  N   UNL     1      -9.444  12.748  66.280  1.00  0.00    -0.346 N  
HETATM   13  H   UNL     1      -9.191  11.775  66.454  1.00  0.00     0.000 HD 
BRANCH  12  14
HETATM   14  C   UNL     1     -10.417  13.035  65.245  1.00  0.00    -0.304 C  
BRANCH  14  15
HETATM   15  C   UNL     1     -10.433  11.983  64.123  1.00  0.00    -0.393 C  
BRANCH  15  16
HETATM   16  C   UNL     1      -9.770  10.664  64.486  1.00  0.00    -0.367 A  
HETATM   17  C   UNL     1      -8.627  10.207  63.815  1.00  0.00    -0.203 A  
HETATM   18  C   UNL     1      -8.061   8.968  64.119  1.00  0.00    -0.157 A  
HETATM   19  C   UNL     1      -8.588   8.189  65.150  1.00  0.00    -0.071 A  
HETATM   20  C   UNL     1      -9.699   8.645  65.864  1.00  0.00    -0.154 A  
HETATM   21  C   UNL     1     -10.281   9.879  65.536  1.00  0.00    -0.194 A  
BRANCH  19  22
HETATM   22  S   UNL     1      -7.939   6.552  65.428  1.00  0.00    -0.125 S  
HETATM   23  O   UNL     1      -8.442   5.706  64.364  1.00  0.00    -0.129 OA 
HETATM   24  O   UNL     1      -6.517   6.648  65.669  1.00  0.00    -0.046 OA 
BRANCH  22  25
HETATM   25  N   UNL     1      -8.706   6.009  66.812  1.00  0.00    -0.117 N  
HETATM   26  H   UNL     1      -9.643   5.615  66.722  1.00  0.00     0.000 HD 
BRANCH  25  27
HETATM   27  C   UNL     1      -8.138   6.065  68.069  1.00  0.00    -0.110 C  
HETATM   28  O   UNL     1      -7.269   5.288  68.435  1.00  0.00    -0.064 OA 
BRANCH  27  29
HETATM   29  N   UNL     1      -8.622   7.064  68.880  1.00  0.00    -0.128 N  
HETATM   30  H   UNL     1      -7.987   7.686  69.378  1.00  0.00     0.000 HD 
BRANCH  29  31
HETATM   31  C   UNL     1     -10.070   7.213  69.011  1.00  0.00    -0.183 C  
HETATM   32  C   UNL     1     -10.787   5.889  69.303  1.00  0.00    -0.414 C  
HETATM   33  C   UNL     1     -10.835   5.495  70.778  1.00  0.00    -0.249 C  
HETATM   34  C   UNL     1     -11.272   6.639  71.702  1.00  0.00    -0.306 C  
HETATM   35  C   UNL     1     -10.388   7.866  71.459  1.00  0.00    -0.243 C  
HETATM   36  C   UNL     1     -12.762   6.970  71.554  1.00  0.00    -0.425 C  
HETATM   37  C   UNL     1     -10.423   8.330  70.004  1.00  0.00    -0.231 C  
ENDBRANCH  29  31
ENDBRANCH  27  29
ENDBRANCH  25  27
ENDBRANCH  22  25
ENDBRANCH  19  22
ENDBRANCH  15  16
ENDBRANCH  14  15
ENDBRANCH  12  14
ENDBRANCH  10  12
ENDBRANCH   7  10
ENDBRANCH   2   3
TORSDOF 11
ENDMDL
MODEL      236
REMARK 921   NORMALIZED FREE ENERGY PREDICTED BY IDOCK:   -4.11 KCAL/MOL
REMARK 922        TOTAL FREE ENERGY PREDICTED BY IDOCK:   -9.05 KCAL/MOL
REMARK 923 INTER-LIGAND FREE ENERGY PREDICTED BY IDOCK:   -8.04 KCAL/MOL
REMARK 924 INTRA-LIGAND FREE ENERGY PREDICTED BY IDOCK:   -1.01 KCAL/MOL
REMARK 927      BINDING AFFINITY PREDICTED BY RF-SCORE:    0.00 PKD
ROOT
HETATM    1  C   UNL     1     -12.657  15.398  70.257  1.00  0.00    -0.377 C  
HETATM    2  C   UNL     1     -12.029  14.437  71.256  1.00  0.00    -0.359 C  
ENDROOT
BRANCH   2   3
HETATM    3  C   UNL     1     -12.269  13.018  70.880  1.00  0.00    -0.310 C  
HETATM    4  C   UNL     1     -11.881  12.306  69.812  1.00  0.00    -0.388 C  
HETATM    5  C   UNL     1     -12.372  10.895  69.863  1.00  0.00    -0.285 C  
HETATM    6  C   UNL     1     -11.021  12.755  68.685  1.00  0.00    -0.295 C  
HETATM    7  N   UNL     1     -13.024  10.846  71.143  1.00  0.00    -0.378 N  
HETATM    8  O   UNL     1     -13.603  12.429  72.776  1.00  0.00    -0.202 OA 
HETATM    9  C   UNL     1     -13.047  12.101  71.740  1.00  0.00    -0.352 C  
BRANCH   7  10
HETATM   10  C   UNL     1     -13.347   9.632  71.722  1.00  0.00    -0.419 C  
HETATM   11  O   UNL     1     -14.205   9.527  72.595  1.00  0.00    -0.344 OA 
BRANCH  10  12
HETATM   12  N   UNL     1     -12.668   8.552  71.218  1.00  0.00    -0.455 N  
HETATM   13  H   UNL     1     -11.901   8.721  70.567  1.00  0.00     0.000 HD 
BRANCH  12  14
HETATM   14  C   UNL     1     -12.990   7.183  71.566  1.00  0.00    -0.383 C  
BRANCH  14  15
HETATM   15  C   UNL     1     -11.744   6.309  71.793  1.00  0.00    -0.355 C  
BRANCH  15  16
HETATM   16  C   UNL     1     -11.036   5.878  70.519  1.00  0.00    -0.347 A  
HETATM   17  C   UNL     1     -11.379   6.417  69.270  1.00  0.00    -0.405 A  
HETATM   18  C   UNL     1     -10.761   5.972  68.101  1.00  0.00    -0.353 A  
HETATM   19  C   UNL     1      -9.736   5.027  68.163  1.00  0.00    -0.148 A  
HETATM   20  C   UNL     1      -9.346   4.510  69.401  1.00  0.00    -0.217 A  
HETATM   21  C   UNL     1      -9.989   4.941  70.572  1.00  0.00    -0.311 A  
BRANCH  19  22
HETATM   22  S   UNL     1      -9.059   4.370  66.650  1.00  0.00    -0.137 S  
HETATM   23  O   UNL     1      -9.169   2.927  66.722  1.00  0.00    -0.162 OA 
HETATM   24  O   UNL     1      -9.631   5.089  65.533  1.00  0.00    -0.154 OA 
BRANCH  22  25
HETATM   25  N   UNL     1      -7.418   4.684  66.736  1.00  0.00    -0.085 N  
HETATM   26  H   UNL     1      -6.769   3.924  66.531  1.00  0.00     0.000 HD 
BRANCH  25  27
HETATM   27  C   UNL     1      -6.895   5.918  67.068  1.00  0.00    -0.063 C  
HETATM   28  O   UNL     1      -6.130   6.079  68.007  1.00  0.00    -0.019 OA 
BRANCH  27  29
HETATM   29  N   UNL     1      -7.296   6.955  66.259  1.00  0.00    -0.075 N  
HETATM   30  H   UNL     1      -8.222   7.368  66.362  1.00  0.00     0.000 HD 
BRANCH  29  31
HETATM   31  C   UNL     1      -6.364   7.450  65.249  1.00  0.00    -0.038 C  
HETATM   32  C   UNL     1      -6.866   7.243  63.814  1.00  0.00    -0.053 C  
HETATM   33  C   UNL     1      -7.794   8.338  63.292  1.00  0.00    -0.149 C  
HETATM   34  C   UNL     1      -7.273   9.756  63.554  1.00  0.00    -0.117 C  
HETATM   35  C   UNL     1      -6.958   9.925  65.044  1.00  0.00    -0.130 C  
HETATM   36  C   UNL     1      -6.067  10.106  62.673  1.00  0.00    -0.127 C  
HETATM   37  C   UNL     1      -5.945   8.898  65.545  1.00  0.00    -0.051 C  
ENDBRANCH  29  31
ENDBRANCH  27  29
ENDBRANCH  25  27
ENDBRANCH  22  25
ENDBRANCH  19  22
ENDBRANCH  15  16
ENDBRANCH  14  15
ENDBRANCH  12  14
ENDBRANCH  10  12
ENDBRANCH   7  10
ENDBRANCH   2   3
TORSDOF 11
ENDMDL
MODEL      237
REMARK 921   NORMALIZED FREE ENERGY PREDICTED BY IDOCK:   -4.10 KCAL/MOL
REMARK 922        TOTAL FREE ENERGY PREDICTED BY IDOCK:   -9.04 KCAL/MOL
REMARK 923 INTER-LIGAND FREE ENERGY PREDICTED BY IDOCK:   -8.62 KCAL/MOL
REMARK 924 INTRA-LIGAND FREE ENERGY PREDICTED BY IDOCK:   -0.42 KCAL/MOL
REMARK 927      BINDING AFFINITY PREDICTED BY RF-SCORE:    0.00 PKD
ROOT
HETATM    1  C   UNL     1     -10.582   5.167  74.220  1.00  0.00    -0.290 C  
HETATM    2  C   UNL     1     -11.181   5.193  72.822  1.00  0.00    -0.323 C  
ENDROOT
BRANCH   2   3
HETATM    3  C   UNL     1     -10.517   6.204  71.957  1.00  0.00    -0.249 C  
HETATM    4  C   UNL     1      -9.649   6.072  70.943  1.00  0.00    -0.196 C  
HETATM    5  C   UNL     1      -9.244   7.390  70.368  1.00  0.00    -0.158 C  
HETATM    6  C   UNL     1      -9.131   4.809  70.351  1.00  0.00    -0.170 C  
HETATM    7  N   UNL     1     -10.055   8.310  71.117  1.00  0.00    -0.186 N  
HETATM    8  O   UNL     1     -11.467   8.145  72.984  1.00  0.00    -0.328 OA 
HETATM    9  C   UNL     1     -10.766   7.653  72.114  1.00  0.00    -0.241 C  
BRANCH   7  10
HETATM   10  C   UNL     1     -10.219   9.614  70.686  1.00  0.00    -0.278 C  
HETATM   11  O   UNL     1      -9.562  10.091  69.763  1.00  0.00    -0.222 OA 
BRANCH  10  12
HETATM   12  N   UNL     1     -11.198  10.321  71.337  1.00  0.00    -0.090 N  
HETATM   13  H   UNL     1     -11.152  10.390  72.354  1.00  0.00     0.000 HD 
BRANCH  12  14
HETATM   14  C   UNL     1     -12.294  10.973  70.649  1.00  0.00    -0.386 C  
BRANCH  14  15
HETATM   15  C   UNL     1     -12.635  12.356  71.231  1.00  0.00    -0.332 C  
BRANCH  15  16
HETATM   16  C   UNL     1     -12.024  13.524  70.477  1.00  0.00    -0.344 A  
HETATM   17  C   UNL     1     -11.092  13.328  69.447  1.00  0.00    -0.148 A  
HETATM   18  C   UNL     1     -10.496  14.411  68.800  1.00  0.00    -0.244 A  
HETATM   19  C   UNL     1     -10.870  15.716  69.123  1.00  0.00    -0.246 A  
HETATM   20  C   UNL     1     -11.831  15.935  70.114  1.00  0.00    -0.327 A  
HETATM   21  C   UNL     1     -12.408  14.843  70.780  1.00  0.00    -0.392 A  
BRANCH  19  22
HETATM   22  S   UNL     1      -9.996  17.084  68.387  1.00  0.00    -0.308 S  
HETATM   23  O   UNL     1     -10.929  18.190  68.298  1.00  0.00    -0.138 OA 
HETATM   24  O   UNL     1      -8.732  17.252  69.070  1.00  0.00    -0.206 OA 
BRANCH  22  25
HETATM   25  N   UNL     1      -9.719  16.623  66.803  1.00  0.00    -0.250 N  
HETATM   26  H   UNL     1     -10.021  17.250  66.057  1.00  0.00     0.000 HD 
BRANCH  25  27
HETATM   27  C   UNL     1      -9.102  15.438  66.452  1.00  0.00    -0.314 C  
HETATM   28  O   UNL     1      -8.122  15.007  67.038  1.00  0.00    -0.204 OA 
BRANCH  27  29
HETATM   29  N   UNL     1      -9.678  14.777  65.392  1.00  0.00    -0.483 N  
HETATM   30  H   UNL     1      -9.301  14.875  64.450  1.00  0.00     0.000 HD 
BRANCH  29  31
HETATM   31  C   UNL     1     -10.842  13.932  65.649  1.00  0.00    -0.292 C  
HETATM   32  C   UNL     1     -12.143  14.513  65.082  1.00  0.00    -0.363 C  
HETATM   33  C   UNL     1     -12.407  14.188  63.613  1.00  0.00     0.006 C  
HETATM   34  C   UNL     1     -12.202  12.709  63.268  1.00  0.00    -0.512 C  
HETATM   35  C   UNL     1     -10.808  12.261  63.719  1.00  0.00    -0.495 C  
HETATM   36  C   UNL     1     -13.305  11.816  63.851  1.00  0.00     0.412 C  
HETATM   37  C   UNL     1     -10.580  12.483  65.212  1.00  0.00    -0.319 C  
ENDBRANCH  29  31
ENDBRANCH  27  29
ENDBRANCH  25  27
ENDBRANCH  22  25
ENDBRANCH  19  22
ENDBRANCH  15  16
ENDBRANCH  14  15
ENDBRANCH  12  14
ENDBRANCH  10  12
ENDBRANCH   7  10
ENDBRANCH   2   3
TORSDOF 11
ENDMDL
MODEL      238
REMARK 921   NORMALIZED FREE ENERGY PREDICTED BY IDOCK:   -4.03 KCAL/MOL
REMARK 922        TOTAL FREE ENERGY PREDICTED BY IDOCK:   -8.94 KCAL/MOL
REMARK 923 INTER-LIGAND FREE ENERGY PREDICTED BY IDOCK:   -7.52 KCAL/MOL
REMARK 924 INTRA-LIGAND FREE ENERGY PREDICTED BY IDOCK:   -1.42 KCAL/MOL
REMARK 927      BINDING AFFINITY PREDICTED BY RF-SCORE:    0.00 PKD
ROOT
HETATM    1  C   UNL     1     -11.663  12.238  67.262  1.00  0.00    -0.394 C  
HETATM    2  C   UNL     1     -12.252  13.569  66.819  1.00  0.00    -0.392 C  
ENDROOT
BRANCH   2   3
HETATM    3  C   UNL     1     -11.356  14.707  67.157  1.00  0.00    -0.365 C  
HETATM    4  C   UNL     1     -11.262  15.465  68.260  1.00  0.00    -0.325 C  
HETATM    5  C   UNL     1     -10.201  16.510  68.140  1.00  0.00    -0.271 C  
HETATM    6  C   UNL     1     -12.036  15.329  69.523  1.00  0.00    -0.356 C  
HETATM    7  N   UNL     1      -9.623  16.211  66.859  1.00  0.00    -0.225 N  
HETATM    8  O   UNL     1     -10.165  14.774  65.084  1.00  0.00    -0.381 OA 
HETATM    9  C   UNL     1     -10.327  15.200  66.217  1.00  0.00    -0.294 C  
BRANCH   7  10
HETATM   10  C   UNL     1      -8.400  16.747  66.497  1.00  0.00    -0.285 C  
HETATM   11  O   UNL     1      -8.301  17.814  65.894  1.00  0.00    -0.524 OA 
BRANCH  10  12
HETATM   12  N   UNL     1      -7.309  16.019  66.896  1.00  0.00    -0.221 N  
HETATM   13  H   UNL     1      -6.384  16.320  66.586  1.00  0.00     0.000 HD 
BRANCH  12  14
HETATM   14  C   UNL     1      -7.406  14.845  67.739  1.00  0.00    -0.166 C  
BRANCH  14  15
HETATM   15  C   UNL     1      -6.126  13.991  67.735  1.00  0.00    -0.134 C  
BRANCH  15  16
HETATM   16  C   UNL     1      -6.363  12.499  67.898  1.00  0.00    -0.103 A  
HETATM   17  C   UNL     1      -6.422  11.899  69.165  1.00  0.00    -0.098 A  
HETATM   18  C   UNL     1      -6.584  10.519  69.300  1.00  0.00    -0.060 A  
HETATM   19  C   UNL     1      -6.760   9.718  68.171  1.00  0.00    -0.061 A  
HETATM   20  C   UNL     1      -6.751  10.300  66.901  1.00  0.00    -0.081 A  
HETATM   21  C   UNL     1      -6.561  11.684  66.769  1.00  0.00    -0.094 A  
BRANCH  19  22
HETATM   22  S   UNL     1      -6.823   7.946  68.358  1.00  0.00    -0.073 S  
HETATM   23  O   UNL     1      -6.027   7.374  67.291  1.00  0.00    -0.041 OA 
HETATM   24  O   UNL     1      -6.540   7.612  69.736  1.00  0.00    -0.037 OA 
BRANCH  22  25
HETATM   25  N   UNL     1      -8.401   7.526  67.993  1.00  0.00    -0.123 N  
HETATM   26  H   UNL     1      -8.557   6.773  67.322  1.00  0.00     0.000 HD 
BRANCH  25  27
HETATM   27  C   UNL     1      -9.502   8.143  68.552  1.00  0.00    -0.143 C  
HETATM   28  O   UNL     1     -10.259   8.851  67.907  1.00  0.00    -0.198 OA 
BRANCH  27  29
HETATM   29  N   UNL     1      -9.686   7.897  69.893  1.00  0.00    -0.175 N  
HETATM   30  H   UNL     1      -9.590   8.646  70.578  1.00  0.00     0.000 HD 
BRANCH  29  31
HETATM   31  C   UNL     1     -10.023   6.538  70.311  1.00  0.00    -0.174 C  
HETATM   32  C   UNL     1      -9.105   6.004  71.417  1.00  0.00    -0.149 C  
HETATM   33  C   UNL     1      -9.514   6.392  72.836  1.00  0.00    -0.150 C  
HETATM   34  C   UNL     1     -11.003   6.171  73.125  1.00  0.00    -0.258 C  
HETATM   35  C   UNL     1     -11.847   6.884  72.064  1.00  0.00    -0.345 C  
HETATM   36  C   UNL     1     -11.360   4.683  73.234  1.00  0.00    -0.393 C  
HETATM   37  C   UNL     1     -11.517   6.418  70.647  1.00  0.00    -0.426 C  
ENDBRANCH  29  31
ENDBRANCH  27  29
ENDBRANCH  25  27
ENDBRANCH  22  25
ENDBRANCH  19  22
ENDBRANCH  15  16
ENDBRANCH  14  15
ENDBRANCH  12  14
ENDBRANCH  10  12
ENDBRANCH   7  10
ENDBRANCH   2   3
TORSDOF 11
ENDMDL
MODEL      239
REMARK 921   NORMALIZED FREE ENERGY PREDICTED BY IDOCK:   -3.98 KCAL/MOL
REMARK 922        TOTAL FREE ENERGY PREDICTED BY IDOCK:   -8.85 KCAL/MOL
REMARK 923 INTER-LIGAND FREE ENERGY PREDICTED BY IDOCK:   -6.96 KCAL/MOL
REMARK 924 INTRA-LIGAND FREE ENERGY PREDICTED BY IDOCK:   -1.89 KCAL/MOL
REMARK 927      BINDING AFFINITY PREDICTED BY RF-SCORE:    0.00 PKD
ROOT
HETATM    1  C   UNL     1      -7.765   8.208  68.030  1.00  0.00    -0.114 C  
HETATM    2  C   UNL     1      -8.242   6.765  67.951  1.00  0.00    -0.117 C  
ENDROOT
BRANCH   2   3
HETATM    3  C   UNL     1      -8.212   6.102  69.281  1.00  0.00    -0.116 C  
HETATM    4  C   UNL     1      -7.192   5.796  70.097  1.00  0.00    -0.072 C  
HETATM    5  C   UNL     1      -7.651   5.118  71.348  1.00  0.00    -0.096 C  
HETATM    6  C   UNL     1      -5.749   6.098  69.899  1.00  0.00    -0.014 C  
HETATM    7  N   UNL     1      -9.080   5.146  71.202  1.00  0.00    -0.140 N  
HETATM    8  O   UNL     1     -10.566   5.724  69.479  1.00  0.00    -0.260 OA 
HETATM    9  C   UNL     1      -9.446   5.654  69.960  1.00  0.00    -0.158 C  
BRANCH   7  10
HETATM   10  C   UNL     1      -9.903   4.898  72.286  1.00  0.00    -0.169 C  
HETATM   11  O   UNL     1      -9.837   3.859  72.938  1.00  0.00    -0.129 OA 
BRANCH  10  12
HETATM   12  N   UNL     1     -10.767   5.916  72.601  1.00  0.00    -0.220 N  
HETATM   13  H   UNL     1     -11.739   5.838  72.301  1.00  0.00     0.000 HD 
BRANCH  12  14
HETATM   14  C   UNL     1     -10.364   7.095  73.340  1.00  0.00    -0.349 C  
BRANCH  14  15
HETATM   15  C   UNL     1     -11.356   8.263  73.201  1.00  0.00     0.267 C  
BRANCH  15  16
HETATM   16  C   UNL     1     -11.304   8.978  71.861  1.00  0.00    -0.438 A  
HETATM   17  C   UNL     1     -12.425   9.638  71.337  1.00  0.00    -0.465 A  
HETATM   18  C   UNL     1     -12.380  10.242  70.079  1.00  0.00    -0.158 A  
HETATM   19  C   UNL     1     -11.192  10.258  69.348  1.00  0.00    -0.239 A  
HETATM   20  C   UNL     1     -10.050   9.646  69.871  1.00  0.00    -0.279 A  
HETATM   21  C   UNL     1     -10.107   9.016  71.124  1.00  0.00    -0.365 A  
BRANCH  19  22
HETATM   22  S   UNL     1     -11.195  10.909  67.688  1.00  0.00    -0.269 S  
HETATM   23  O   UNL     1     -11.176   9.777  66.784  1.00  0.00     0.142 OA 
HETATM   24  O   UNL     1     -12.235  11.908  67.581  1.00  0.00    -0.510 OA 
BRANCH  22  25
HETATM   25  N   UNL     1      -9.700  11.636  67.503  1.00  0.00    -0.176 N  
HETATM   26  H   UNL     1      -8.978  11.439  68.197  1.00  0.00     0.000 HD 
BRANCH  25  27
HETATM   27  C   UNL     1      -9.390  12.487  66.461  1.00  0.00    -0.233 C  
HETATM   28  O   UNL     1      -9.752  12.283  65.313  1.00  0.00    -0.218 OA 
BRANCH  27  29
HETATM   29  N   UNL     1      -8.644  13.587  66.814  1.00  0.00    -0.432 N  
HETATM   30  H   UNL     1      -7.673  13.487  67.108  1.00  0.00     0.000 HD 
BRANCH  29  31
HETATM   31  C   UNL     1      -9.277  14.903  66.756  1.00  0.00    -0.259 C  
HETATM   32  C   UNL     1     -10.737  14.890  67.226  1.00  0.00    -0.294 C  
HETATM   33  C   UNL     1     -10.928  15.019  68.736  1.00  0.00    -0.259 C  
HETATM   34  C   UNL     1     -10.100  16.145  69.363  1.00  0.00    -0.256 C  
HETATM   35  C   UNL     1      -8.626  15.980  68.979  1.00  0.00    -0.244 C  
HETATM   36  C   UNL     1     -10.633  17.536  68.994  1.00  0.00    -0.146 C  
HETATM   37  C   UNL     1      -8.418  15.961  67.466  1.00  0.00    -0.181 C  
ENDBRANCH  29  31
ENDBRANCH  27  29
ENDBRANCH  25  27
ENDBRANCH  22  25
ENDBRANCH  19  22
ENDBRANCH  15  16
ENDBRANCH  14  15
ENDBRANCH  12  14
ENDBRANCH  10  12
ENDBRANCH   7  10
ENDBRANCH   2   3
TORSDOF 11
ENDMDL
MODEL      240
REMARK 921   NORMALIZED FREE ENERGY PREDICTED BY IDOCK:   -3.98 KCAL/MOL
REMARK 922        TOTAL FREE ENERGY PREDICTED BY IDOCK:   -8.85 KCAL/MOL
REMARK 923 INTER-LIGAND FREE ENERGY PREDICTED BY IDOCK:   -7.27 KCAL/MOL
REMARK 924 INTRA-LIGAND FREE ENERGY PREDICTED BY IDOCK:   -1.58 KCAL/MOL
REMARK 927      BINDING AFFINITY PREDICTED BY RF-SCORE:    0.00 PKD
ROOT
HETATM    1  C   UNL     1     -12.267   6.742  71.680  1.00  0.00    -0.410 C  
HETATM    2  C   UNL     1     -10.851   6.313  71.327  1.00  0.00    -0.317 C  
ENDROOT
BRANCH   2   3
HETATM    3  C   UNL     1     -10.313   7.086  70.177  1.00  0.00    -0.213 C  
HETATM    4  C   UNL     1      -9.526   8.171  70.127  1.00  0.00    -0.167 C  
HETATM    5  C   UNL     1      -9.246   8.605  68.725  1.00  0.00    -0.142 C  
HETATM    6  C   UNL     1      -8.909   8.898  71.270  1.00  0.00    -0.298 C  
HETATM    7  N   UNL     1      -9.897   7.581  67.954  1.00  0.00    -0.149 N  
HETATM    8  O   UNL     1     -11.336   5.793  68.444  1.00  0.00     0.051 OA 
HETATM    9  C   UNL     1     -10.600   6.708  68.776  1.00  0.00    -0.236 C  
BRANCH   7  10
HETATM   10  C   UNL     1      -9.619   7.431  66.608  1.00  0.00    -0.190 C  
HETATM   11  O   UNL     1      -9.634   6.335  66.051  1.00  0.00    -0.078 OA 
BRANCH  10  12
HETATM   12  N   UNL     1      -9.367   8.598  65.935  1.00  0.00    -0.339 N  
HETATM   13  H   UNL     1      -8.607   8.612  65.254  1.00  0.00     0.000 HD 
BRANCH  12  14
HETATM   14  C   UNL     1     -10.128   9.813  66.145  1.00  0.00    -0.245 C  
BRANCH  14  15
HETATM   15  C   UNL     1      -9.503  11.043  65.464  1.00  0.00    -0.250 C  
BRANCH  15  16
HETATM   16  C   UNL     1      -9.652  12.339  66.245  1.00  0.00    -0.248 A  
HETATM   17  C   UNL     1      -8.685  12.752  67.173  1.00  0.00    -0.202 A  
HETATM   18  C   UNL     1      -8.861  13.915  67.924  1.00  0.00    -0.184 A  
HETATM   19  C   UNL     1      -9.976  14.726  67.714  1.00  0.00    -0.223 A  
HETATM   20  C   UNL     1     -10.930  14.358  66.762  1.00  0.00    -0.314 A  
HETATM   21  C   UNL     1     -10.762  13.174  66.028  1.00  0.00    -0.288 A  
BRANCH  19  22
HETATM   22  S   UNL     1     -10.252  16.128  68.781  1.00  0.00    -0.253 S  
HETATM   23  O   UNL     1      -9.681  15.803  70.072  1.00  0.00    -0.192 OA 
HETATM   24  O   UNL     1      -9.843  17.329  68.086  1.00  0.00    -0.266 OA 
BRANCH  22  25
HETATM   25  N   UNL     1     -11.905  16.164  69.034  1.00  0.00    -0.298 N  
HETATM   26  H   UNL     1     -12.483  16.694  68.381  1.00  0.00     0.000 HD 
BRANCH  25  27
HETATM   27  C   UNL     1     -12.529  15.514  70.080  1.00  0.00    -0.318 C  
HETATM   28  O   UNL     1     -12.891  16.092  71.094  1.00  0.00    -0.398 OA 
BRANCH  27  29
HETATM   29  N   UNL     1     -12.718  14.165  69.894  1.00  0.00    -0.424 N  
HETATM   30  H   UNL     1     -13.368  13.821  69.188  1.00  0.00     0.000 HD 
BRANCH  29  31
HETATM   31  C   UNL     1     -11.964  13.235  70.733  1.00  0.00    -0.103 C  
HETATM   32  C   UNL     1     -12.537  13.103  72.149  1.00  0.00     0.008 C  
HETATM   33  C   UNL     1     -13.673  12.091  72.292  1.00  0.00    -0.035 C  
HETATM   34  C   UNL     1     -13.375  10.741  71.629  1.00  0.00    -0.390 C  
HETATM   35  C   UNL     1     -12.975  10.960  70.166  1.00  0.00    -0.032 C  
HETATM   36  C   UNL     1     -12.319   9.936  72.396  1.00  0.00     0.237 C  
HETATM   37  C   UNL     1     -11.769  11.886  70.025  1.00  0.00    -0.366 C  
ENDBRANCH  29  31
ENDBRANCH  27  29
ENDBRANCH  25  27
ENDBRANCH  22  25
ENDBRANCH  19  22
ENDBRANCH  15  16
ENDBRANCH  14  15
ENDBRANCH  12  14
ENDBRANCH  10  12
ENDBRANCH   7  10
ENDBRANCH   2   3
TORSDOF 11
ENDMDL
MODEL      241
REMARK 921   NORMALIZED FREE ENERGY PREDICTED BY IDOCK:   -3.98 KCAL/MOL
REMARK 922        TOTAL FREE ENERGY PREDICTED BY IDOCK:   -8.84 KCAL/MOL
REMARK 923 INTER-LIGAND FREE ENERGY PREDICTED BY IDOCK:   -7.97 KCAL/MOL
REMARK 924 INTRA-LIGAND FREE ENERGY PREDICTED BY IDOCK:   -0.87 KCAL/MOL
REMARK 927      BINDING AFFINITY PREDICTED BY RF-SCORE:    0.00 PKD
ROOT
HETATM    1  C   UNL     1      -8.526   5.828  65.971  1.00  0.00    -0.135 C  
HETATM    2  C   UNL     1      -8.746   7.244  66.480  1.00  0.00    -0.141 C  
ENDROOT
BRANCH   2   3
HETATM    3  C   UNL     1      -8.719   8.237  65.373  1.00  0.00    -0.147 C  
HETATM    4  C   UNL     1      -7.993   8.289  64.246  1.00  0.00    -0.148 C  
HETATM    5  C   UNL     1      -8.309   9.497  63.424  1.00  0.00    -0.179 C  
HETATM    6  C   UNL     1      -7.007   7.290  63.754  1.00  0.00    -0.058 C  
HETATM    7  N   UNL     1      -9.378  10.101  64.171  1.00  0.00    -0.270 N  
HETATM    8  O   UNL     1     -10.358   9.730  66.270  1.00  0.00    -0.235 OA 
HETATM    9  C   UNL     1      -9.598   9.426  65.365  1.00  0.00    -0.226 C  
BRANCH   7  10
HETATM   10  C   UNL     1     -10.173  11.077  63.596  1.00  0.00    -0.372 C  
HETATM   11  O   UNL     1      -9.763  11.823  62.710  1.00  0.00    -0.273 OA 
BRANCH  10  12
HETATM   12  N   UNL     1     -11.462  11.120  64.061  1.00  0.00    -0.256 N  
HETATM   13  H   UNL     1     -11.818  10.319  64.584  1.00  0.00     0.000 HD 
BRANCH  12  14
HETATM   14  C   UNL     1     -12.344  12.250  63.844  1.00  0.00    -0.509 C  
BRANCH  14  15
HETATM   15  C   UNL     1     -12.476  13.159  65.078  1.00  0.00    -0.516 C  
BRANCH  15  16
HETATM   16  C   UNL     1     -11.169  13.432  65.802  1.00  0.00    -0.305 A  
HETATM   17  C   UNL     1     -10.821  12.747  66.976  1.00  0.00    -0.282 A  
HETATM   18  C   UNL     1      -9.644  13.048  67.662  1.00  0.00    -0.206 A  
HETATM   19  C   UNL     1      -8.755  13.994  67.152  1.00  0.00    -0.221 A  
HETATM   20  C   UNL     1      -9.058  14.656  65.959  1.00  0.00    -0.022 A  
HETATM   21  C   UNL     1     -10.256  14.370  65.287  1.00  0.00    -0.416 A  
BRANCH  19  22
HETATM   22  S   UNL     1      -7.329  14.463  68.115  1.00  0.00    -0.148 S  
HETATM   23  O   UNL     1      -7.347  13.665  69.324  1.00  0.00    -0.014 OA 
HETATM   24  O   UNL     1      -6.165  14.458  67.256  1.00  0.00    -0.301 OA 
BRANCH  22  25
HETATM   25  N   UNL     1      -7.642  16.026  68.623  1.00  0.00    -0.162 N  
HETATM   26  H   UNL     1      -6.910  16.727  68.509  1.00  0.00     0.000 HD 
BRANCH  25  27
HETATM   27  C   UNL     1      -8.840  16.418  69.188  1.00  0.00    -0.186 C  
HETATM   28  O   UNL     1      -9.650  15.621  69.635  1.00  0.00    -0.277 OA 
BRANCH  27  29
HETATM   29  N   UNL     1      -9.052  17.776  69.213  1.00  0.00     0.130 N  
HETATM   30  H   UNL     1      -8.425  18.393  69.729  1.00  0.00     0.000 HD 
BRANCH  29  31
HETATM   31  C   UNL     1     -10.197  18.314  68.482  1.00  0.00    -0.379 C  
HETATM   32  C   UNL     1     -10.211  19.847  68.429  1.00  0.00    -0.557 C  
HETATM   33  C   UNL     1      -9.382  20.459  67.301  1.00  0.00    -0.547 C  
HETATM   34  C   UNL     1      -9.626  19.802  65.938  1.00  0.00    -0.318 C  
HETATM   35  C   UNL     1      -9.424  18.287  66.049  1.00  0.00    -0.038 C  
HETATM   36  C   UNL     1     -11.004  20.153  65.360  1.00  0.00     0.089 C  
HETATM   37  C   UNL     1     -10.332  17.655  67.101  1.00  0.00    -0.343 C  
ENDBRANCH  29  31
ENDBRANCH  27  29
ENDBRANCH  25  27
ENDBRANCH  22  25
ENDBRANCH  19  22
ENDBRANCH  15  16
ENDBRANCH  14  15
ENDBRANCH  12  14
ENDBRANCH  10  12
ENDBRANCH   7  10
ENDBRANCH   2   3
TORSDOF 11
ENDMDL
MODEL      242
REMARK 921   NORMALIZED FREE ENERGY PREDICTED BY IDOCK:   -3.97 KCAL/MOL
REMARK 922        TOTAL FREE ENERGY PREDICTED BY IDOCK:   -8.83 KCAL/MOL
REMARK 923 INTER-LIGAND FREE ENERGY PREDICTED BY IDOCK:   -7.41 KCAL/MOL
REMARK 924 INTRA-LIGAND FREE ENERGY PREDICTED BY IDOCK:   -1.42 KCAL/MOL
REMARK 927      BINDING AFFINITY PREDICTED BY RF-SCORE:    0.00 PKD
ROOT
HETATM    1  C   UNL     1      -5.487   7.355  69.037  1.00  0.00    -0.018 C  
HETATM    2  C   UNL     1      -5.857   8.073  70.326  1.00  0.00    -0.026 C  
ENDROOT
BRANCH   2   3
HETATM    3  C   UNL     1      -6.835   7.291  71.129  1.00  0.00    -0.055 C  
HETATM    4  C   UNL     1      -6.866   6.983  72.434  1.00  0.00    -0.061 C  
HETATM    5  C   UNL     1      -8.060   6.160  72.794  1.00  0.00    -0.106 C  
HETATM    6  C   UNL     1      -5.906   7.405  73.490  1.00  0.00    -0.052 C  
HETATM    7  N   UNL     1      -8.773   6.099  71.548  1.00  0.00    -0.135 N  
HETATM    8  O   UNL     1      -8.313   6.728  69.335  1.00  0.00    -0.129 OA 
HETATM    9  C   UNL     1      -8.044   6.694  70.525  1.00  0.00    -0.117 C  
BRANCH   7  10
HETATM   10  C   UNL     1     -10.095   5.692  71.514  1.00  0.00    -0.201 C  
HETATM   11  O   UNL     1     -10.446   4.565  71.857  1.00  0.00    -0.166 OA 
BRANCH  10  12
HETATM   12  N   UNL     1     -10.986   6.653  71.109  1.00  0.00    -0.247 N  
HETATM   13  H   UNL     1     -11.358   6.601  70.160  1.00  0.00     0.000 HD 
BRANCH  12  14
HETATM   14  C   UNL     1     -11.424   7.737  71.964  1.00  0.00    -0.289 C  
BRANCH  14  15
HETATM   15  C   UNL     1     -10.496   8.963  71.909  1.00  0.00    -0.415 C  
BRANCH  15  16
HETATM   16  C   UNL     1     -10.389   9.611  70.539  1.00  0.00    -0.359 A  
HETATM   17  C   UNL     1      -9.145   9.892  69.954  1.00  0.00    -0.241 A  
HETATM   18  C   UNL     1      -9.060  10.539  68.720  1.00  0.00    -0.166 A  
HETATM   19  C   UNL     1     -10.219  10.858  68.012  1.00  0.00    -0.178 A  
HETATM   20  C   UNL     1     -11.469  10.546  68.554  1.00  0.00    -0.284 A  
HETATM   21  C   UNL     1     -11.549   9.920  69.808  1.00  0.00    -0.138 A  
BRANCH  19  22
HETATM   22  S   UNL     1     -10.093  11.807  66.509  1.00  0.00    -0.208 S  
HETATM   23  O   UNL     1      -8.794  11.524  65.931  1.00  0.00    -0.187 OA 
HETATM   24  O   UNL     1     -11.295  11.608  65.729  1.00  0.00    -0.284 OA 
BRANCH  22  25
HETATM   25  N   UNL     1     -10.006  13.402  67.007  1.00  0.00    -0.242 N  
HETATM   26  H   UNL     1     -10.113  13.604  68.001  1.00  0.00     0.000 HD 
BRANCH  25  27
HETATM   27  C   UNL     1      -9.797  14.459  66.143  1.00  0.00    -0.320 C  
HETATM   28  O   UNL     1     -10.565  14.728  65.233  1.00  0.00    -0.338 OA 
BRANCH  27  29
HETATM   29  N   UNL     1      -8.658  15.190  66.387  1.00  0.00    -0.446 N  
HETATM   30  H   UNL     1      -7.788  14.729  66.651  1.00  0.00     0.000 HD 
BRANCH  29  31
HETATM   31  C   UNL     1      -8.725  16.644  66.260  1.00  0.00    -0.324 C  
HETATM   32  C   UNL     1      -9.640  17.298  67.302  1.00  0.00    -0.254 C  
HETATM   33  C   UNL     1      -8.979  17.587  68.649  1.00  0.00    -0.260 C  
HETATM   34  C   UNL     1      -7.614  18.273  68.524  1.00  0.00    -0.313 C  
HETATM   35  C   UNL     1      -6.707  17.458  67.597  1.00  0.00    -0.168 C  
HETATM   36  C   UNL     1      -7.735  19.732  68.066  1.00  0.00    -0.339 C  
HETATM   37  C   UNL     1      -7.319  17.260  66.212  1.00  0.00    -0.342 C  
ENDBRANCH  29  31
ENDBRANCH  27  29
ENDBRANCH  25  27
ENDBRANCH  22  25
ENDBRANCH  19  22
ENDBRANCH  15  16
ENDBRANCH  14  15
ENDBRANCH  12  14
ENDBRANCH  10  12
ENDBRANCH   7  10
ENDBRANCH   2   3
TORSDOF 11
ENDMDL
MODEL      243
REMARK 921   NORMALIZED FREE ENERGY PREDICTED BY IDOCK:   -3.96 KCAL/MOL
REMARK 922        TOTAL FREE ENERGY PREDICTED BY IDOCK:   -8.81 KCAL/MOL
REMARK 923 INTER-LIGAND FREE ENERGY PREDICTED BY IDOCK:   -7.23 KCAL/MOL
REMARK 924 INTRA-LIGAND FREE ENERGY PREDICTED BY IDOCK:   -1.57 KCAL/MOL
REMARK 927      BINDING AFFINITY PREDICTED BY RF-SCORE:    0.00 PKD
ROOT
HETATM    1  C   UNL     1      -8.983   7.355  74.180  1.00  0.00    -0.270 C  
HETATM    2  C   UNL     1     -10.330   6.708  73.892  1.00  0.00    -0.385 C  
ENDROOT
BRANCH   2   3
HETATM    3  C   UNL     1     -10.326   5.986  72.592  1.00  0.00    -0.222 C  
HETATM    4  C   UNL     1     -10.745   6.354  71.372  1.00  0.00    -0.290 C  
HETATM    5  C   UNL     1     -10.542   5.278  70.355  1.00  0.00    -0.208 C  
HETATM    6  C   UNL     1     -11.307   7.670  70.963  1.00  0.00    -0.289 C  
HETATM    7  N   UNL     1      -9.868   4.263  71.117  1.00  0.00    -0.185 N  
HETATM    8  O   UNL     1      -9.370   3.943  73.388  1.00  0.00    -0.107 OA 
HETATM    9  C   UNL     1      -9.789   4.616  72.459  1.00  0.00    -0.159 C  
BRANCH   7  10
HETATM   10  C   UNL     1      -9.219   3.221  70.480  1.00  0.00    -0.143 C  
HETATM   11  O   UNL     1      -9.598   2.055  70.571  1.00  0.00    -0.119 OA 
BRANCH  10  12
HETATM   12  N   UNL     1      -8.147   3.591  69.708  1.00  0.00    -0.052 N  
HETATM   13  H   UNL     1      -7.488   4.272  70.087  1.00  0.00     0.000 HD 
BRANCH  12  14
HETATM   14  C   UNL     1      -7.908   3.062  68.381  1.00  0.00    -0.058 C  
BRANCH  14  15
HETATM   15  C   UNL     1      -8.926   3.557  67.340  1.00  0.00    -0.168 C  
BRANCH  15  16
HETATM   16  C   UNL     1      -9.221   5.046  67.406  1.00  0.00    -0.127 A  
HETATM   17  C   UNL     1     -10.475   5.563  67.047  1.00  0.00    -0.336 A  
HETATM   18  C   UNL     1     -10.715   6.939  67.058  1.00  0.00    -0.432 A  
HETATM   19  C   UNL     1      -9.727   7.822  67.494  1.00  0.00    -0.158 A  
HETATM   20  C   UNL     1      -8.485   7.325  67.900  1.00  0.00    -0.118 A  
HETATM   21  C   UNL     1      -8.239   5.944  67.862  1.00  0.00    -0.108 A  
BRANCH  19  22
HETATM   22  S   UNL     1     -10.005   9.578  67.366  1.00  0.00    -0.203 S  
HETATM   23  O   UNL     1     -10.522   9.834  66.037  1.00  0.00    -0.157 OA 
HETATM   24  O   UNL     1     -10.741  10.019  68.530  1.00  0.00    -0.211 OA 
BRANCH  22  25
HETATM   25  N   UNL     1      -8.479  10.263  67.376  1.00  0.00    -0.125 N  
HETATM   26  H   UNL     1      -7.681   9.662  67.585  1.00  0.00     0.000 HD 
BRANCH  25  27
HETATM   27  C   UNL     1      -8.241  11.598  67.117  1.00  0.00    -0.165 C  
HETATM   28  O   UNL     1      -7.132  12.029  66.843  1.00  0.00    -0.121 OA 
BRANCH  27  29
HETATM   29  N   UNL     1      -9.350  12.408  67.187  1.00  0.00    -0.193 N  
HETATM   30  H   UNL     1     -10.044  12.280  67.922  1.00  0.00     0.000 HD 
BRANCH  29  31
HETATM   31  C   UNL     1      -9.508  13.458  66.183  1.00  0.00    -0.140 C  
HETATM   32  C   UNL     1     -10.049  12.935  64.846  1.00  0.00    -0.229 C  
HETATM   33  C   UNL     1     -11.570  12.823  64.766  1.00  0.00    -0.368 C  
HETATM   34  C   UNL     1     -12.301  14.073  65.269  1.00  0.00    -0.480 C  
HETATM   35  C   UNL     1     -11.820  14.422  66.681  1.00  0.00    -0.417 C  
HETATM   36  C   UNL     1     -12.157  15.259  64.308  1.00  0.00    -0.222 C  
HETATM   37  C   UNL     1     -10.310  14.642  66.743  1.00  0.00    -0.268 C  
ENDBRANCH  29  31
ENDBRANCH  27  29
ENDBRANCH  25  27
ENDBRANCH  22  25
ENDBRANCH  19  22
ENDBRANCH  15  16
ENDBRANCH  14  15
ENDBRANCH  12  14
ENDBRANCH  10  12
ENDBRANCH   7  10
ENDBRANCH   2   3
TORSDOF 11
ENDMDL
MODEL      244
REMARK 921   NORMALIZED FREE ENERGY PREDICTED BY IDOCK:   -3.95 KCAL/MOL
REMARK 922        TOTAL FREE ENERGY PREDICTED BY IDOCK:   -8.80 KCAL/MOL
REMARK 923 INTER-LIGAND FREE ENERGY PREDICTED BY IDOCK:   -6.16 KCAL/MOL
REMARK 924 INTRA-LIGAND FREE ENERGY PREDICTED BY IDOCK:   -2.64 KCAL/MOL
REMARK 927      BINDING AFFINITY PREDICTED BY RF-SCORE:    0.00 PKD
ROOT
HETATM    1  C   UNL     1      -9.206   7.816  72.572  1.00  0.00    -0.227 C  
HETATM    2  C   UNL     1      -8.364   6.605  72.945  1.00  0.00    -0.121 C  
ENDROOT
BRANCH   2   3
HETATM    3  C   UNL     1      -8.861   5.367  72.287  1.00  0.00    -0.131 C  
HETATM    4  C   UNL     1      -9.946   4.613  72.519  1.00  0.00    -0.220 C  
HETATM    5  C   UNL     1     -10.031   3.442  71.594  1.00  0.00    -0.107 C  
HETATM    6  C   UNL     1     -11.024   4.856  73.515  1.00  0.00    -0.397 C  
HETATM    7  N   UNL     1      -8.902   3.655  70.730  1.00  0.00    -0.074 N  
HETATM    8  O   UNL     1      -7.078   5.132  70.709  1.00  0.00    -0.055 OA 
HETATM    9  C   UNL     1      -8.146   4.741  71.155  1.00  0.00    -0.092 C  
BRANCH   7  10
HETATM   10  C   UNL     1      -8.792   2.967  69.535  1.00  0.00    -0.089 C  
HETATM   11  O   UNL     1      -9.311   1.867  69.358  1.00  0.00    -0.112 OA 
BRANCH  10  12
HETATM   12  N   UNL     1      -8.096   3.623  68.552  1.00  0.00    -0.069 N  
HETATM   13  H   UNL     1      -7.086   3.724  68.656  1.00  0.00     0.000 HD 
BRANCH  12  14
HETATM   14  C   UNL     1      -8.727   4.180  67.373  1.00  0.00    -0.107 C  
BRANCH  14  15
HETATM   15  C   UNL     1     -10.217   4.505  67.581  1.00  0.00    -0.001 C  
BRANCH  15  16
HETATM   16  C   UNL     1     -10.490   5.909  68.094  1.00  0.00    -0.291 A  
HETATM   17  C   UNL     1     -10.180   7.043  67.328  1.00  0.00    -0.301 A  
HETATM   18  C   UNL     1     -10.383   8.328  67.834  1.00  0.00    -0.278 A  
HETATM   19  C   UNL     1     -10.964   8.507  69.089  1.00  0.00     0.076 A  
HETATM   20  C   UNL     1     -11.323   7.392  69.851  1.00  0.00    -0.098 A  
HETATM   21  C   UNL     1     -11.092   6.101  69.350  1.00  0.00    -0.479 A  
BRANCH  19  22
HETATM   22  S   UNL     1     -11.084  10.150  69.772  1.00  0.00    -0.294 S  
HETATM   23  O   UNL     1     -11.759  10.034  71.049  1.00  0.00    -0.334 OA 
HETATM   24  O   UNL     1      -9.787  10.784  69.690  1.00  0.00    -0.105 OA 
BRANCH  22  25
HETATM   25  N   UNL     1     -12.164  10.955  68.782  1.00  0.00    -0.398 N  
HETATM   26  H   UNL     1     -13.162  10.855  68.972  1.00  0.00     0.000 HD 
BRANCH  25  27
HETATM   27  C   UNL     1     -11.778  11.750  67.721  1.00  0.00    -0.267 C  
HETATM   28  O   UNL     1     -11.866  12.968  67.743  1.00  0.00    -0.349 OA 
BRANCH  27  29
HETATM   29  N   UNL     1     -11.284  11.067  66.634  1.00  0.00    -0.150 N  
HETATM   30  H   UNL     1     -11.683  10.171  66.356  1.00  0.00     0.000 HD 
BRANCH  29  31
HETATM   31  C   UNL     1     -10.174  11.656  65.889  1.00  0.00    -0.238 C  
HETATM   32  C   UNL     1      -8.846  11.616  66.656  1.00  0.00    -0.187 C  
HETATM   33  C   UNL     1      -8.062  10.313  66.519  1.00  0.00    -0.121 C  
HETATM   34  C   UNL     1      -7.942   9.821  65.072  1.00  0.00    -0.131 C  
HETATM   35  C   UNL     1      -9.334   9.728  64.439  1.00  0.00    -0.278 C  
HETATM   36  C   UNL     1      -6.993  10.690  64.238  1.00  0.00     0.242 C  
HETATM   37  C   UNL     1     -10.080  11.061  64.476  1.00  0.00    -0.380 C  
ENDBRANCH  29  31
ENDBRANCH  27  29
ENDBRANCH  25  27
ENDBRANCH  22  25
ENDBRANCH  19  22
ENDBRANCH  15  16
ENDBRANCH  14  15
ENDBRANCH  12  14
ENDBRANCH  10  12
ENDBRANCH   7  10
ENDBRANCH   2   3
TORSDOF 11
ENDMDL
MODEL      245
REMARK 921   NORMALIZED FREE ENERGY PREDICTED BY IDOCK:   -3.94 KCAL/MOL
REMARK 922        TOTAL FREE ENERGY PREDICTED BY IDOCK:   -8.77 KCAL/MOL
REMARK 923 INTER-LIGAND FREE ENERGY PREDICTED BY IDOCK:   -7.05 KCAL/MOL
REMARK 924 INTRA-LIGAND FREE ENERGY PREDICTED BY IDOCK:   -1.73 KCAL/MOL
REMARK 927      BINDING AFFINITY PREDICTED BY RF-SCORE:    0.00 PKD
ROOT
HETATM    1  C   UNL     1      -6.548   8.369  70.337  1.00  0.00    -0.036 C  
HETATM    2  C   UNL     1      -7.981   8.530  70.823  1.00  0.00    -0.111 C  
ENDROOT
BRANCH   2   3
HETATM    3  C   UNL     1      -8.963   8.093  69.796  1.00  0.00    -0.144 C  
HETATM    4  C   UNL     1     -10.096   8.659  69.354  1.00  0.00    -0.204 C  
HETATM    5  C   UNL     1     -10.766   7.839  68.299  1.00  0.00    -0.036 C  
HETATM    6  C   UNL     1     -10.674   9.969  69.759  1.00  0.00    -0.304 C  
HETATM    7  N   UNL     1      -9.833   6.761  68.115  1.00  0.00    -0.135 N  
HETATM    8  O   UNL     1      -7.891   6.035  69.215  1.00  0.00    -0.099 OA 
HETATM    9  C   UNL     1      -8.792   6.838  69.033  1.00  0.00    -0.129 C  
BRANCH   7  10
HETATM   10  C   UNL     1      -9.918   5.940  67.005  1.00  0.00    -0.166 C  
HETATM   11  O   UNL     1     -10.348   4.790  67.068  1.00  0.00    -0.195 OA 
BRANCH  10  12
HETATM   12  N   UNL     1      -9.526   6.519  65.825  1.00  0.00    -0.379 N  
HETATM   13  H   UNL     1     -10.172   7.156  65.359  1.00  0.00     0.000 HD 
BRANCH  12  14
HETATM   14  C   UNL     1      -8.238   6.268  65.210  1.00  0.00    -0.138 C  
BRANCH  14  15
HETATM   15  C   UNL     1      -7.182   7.329  65.564  1.00  0.00    -0.066 C  
BRANCH  15  16
HETATM   16  C   UNL     1      -7.755   8.679  65.963  1.00  0.00    -0.100 A  
HETATM   17  C   UNL     1      -7.161   9.463  66.963  1.00  0.00    -0.086 A  
HETATM   18  C   UNL     1      -7.729  10.674  67.360  1.00  0.00    -0.106 A  
HETATM   19  C   UNL     1      -8.866  11.162  66.717  1.00  0.00    -0.161 A  
HETATM   20  C   UNL     1      -9.450  10.420  65.685  1.00  0.00    -0.262 A  
HETATM   21  C   UNL     1      -8.890   9.189  65.309  1.00  0.00    -0.240 A  
BRANCH  19  22
HETATM   22  S   UNL     1      -9.655  12.638  67.332  1.00  0.00    -0.199 S  
HETATM   23  O   UNL     1     -11.000  12.660  66.794  1.00  0.00    -0.249 OA 
HETATM   24  O   UNL     1      -9.440  12.720  68.760  1.00  0.00    -0.047 OA 
BRANCH  22  25
HETATM   25  N   UNL     1      -8.865  13.902  66.573  1.00  0.00    -0.458 N  
HETATM   26  H   UNL     1      -9.007  14.029  65.571  1.00  0.00     0.000 HD 
BRANCH  25  27
HETATM   27  C   UNL     1      -8.030  14.783  67.232  1.00  0.00    -0.205 C  
HETATM   28  O   UNL     1      -6.828  14.833  67.024  1.00  0.00    -0.157 OA 
BRANCH  27  29
HETATM   29  N   UNL     1      -8.655  15.605  68.140  1.00  0.00    -0.158 N  
HETATM   30  H   UNL     1      -8.384  15.599  69.122  1.00  0.00     0.000 HD 
BRANCH  29  31
HETATM   31  C   UNL     1      -9.718  16.488  67.662  1.00  0.00    -0.239 C  
HETATM   32  C   UNL     1     -10.111  17.563  68.683  1.00  0.00    -0.361 C  
HETATM   33  C   UNL     1      -9.246  18.821  68.658  1.00  0.00    -0.386 C  
HETATM   34  C   UNL     1      -9.019  19.378  67.248  1.00  0.00    -0.351 C  
HETATM   35  C   UNL     1      -8.464  18.276  66.340  1.00  0.00    -0.266 C  
HETATM   36  C   UNL     1     -10.284  20.017  66.663  1.00  0.00    -0.597 C  
HETATM   37  C   UNL     1      -9.381  17.058  66.276  1.00  0.00    -0.276 C  
ENDBRANCH  29  31
ENDBRANCH  27  29
ENDBRANCH  25  27
ENDBRANCH  22  25
ENDBRANCH  19  22
ENDBRANCH  15  16
ENDBRANCH  14  15
ENDBRANCH  12  14
ENDBRANCH  10  12
ENDBRANCH   7  10
ENDBRANCH   2   3
TORSDOF 11
ENDMDL
MODEL      246
REMARK 921   NORMALIZED FREE ENERGY PREDICTED BY IDOCK:   -3.93 KCAL/MOL
REMARK 922        TOTAL FREE ENERGY PREDICTED BY IDOCK:   -8.76 KCAL/MOL
REMARK 923 INTER-LIGAND FREE ENERGY PREDICTED BY IDOCK:   -6.47 KCAL/MOL
REMARK 924 INTRA-LIGAND FREE ENERGY PREDICTED BY IDOCK:   -2.29 KCAL/MOL
REMARK 927      BINDING AFFINITY PREDICTED BY RF-SCORE:    0.00 PKD
ROOT
HETATM    1  C   UNL     1      -8.148   6.166  66.075  1.00  0.00    -0.118 C  
HETATM    2  C   UNL     1      -8.308   7.536  66.718  1.00  0.00    -0.126 C  
ENDROOT
BRANCH   2   3
HETATM    3  C   UNL     1      -8.360   8.619  65.701  1.00  0.00    -0.151 C  
HETATM    4  C   UNL     1      -7.421   9.108  64.878  1.00  0.00    -0.105 C  
HETATM    5  C   UNL     1      -7.940  10.217  64.020  1.00  0.00    -0.154 C  
HETATM    6  C   UNL     1      -6.017   8.640  64.721  1.00  0.00    -0.064 C  
HETATM    7  N   UNL     1      -9.331  10.255  64.383  1.00  0.00    -0.253 N  
HETATM    8  O   UNL     1     -10.648   9.231  66.033  1.00  0.00     0.028 OA 
HETATM    9  C   UNL     1      -9.600   9.375  65.425  1.00  0.00    -0.226 C  
BRANCH   7  10
HETATM   10  C   UNL     1     -10.244  10.933  63.596  1.00  0.00    -0.332 C  
HETATM   11  O   UNL     1     -10.147  10.987  62.372  1.00  0.00     0.045 OA 
BRANCH  10  12
HETATM   12  N   UNL     1     -11.286  11.504  64.280  1.00  0.00    -0.291 N  
HETATM   13  H   UNL     1     -11.321  11.392  65.294  1.00  0.00     0.000 HD 
BRANCH  12  14
HETATM   14  C   UNL     1     -12.340  12.258  63.632  1.00  0.00    -0.562 C  
BRANCH  14  15
HETATM   15  C   UNL     1     -12.709  13.549  64.383  1.00  0.00    -0.126 C  
BRANCH  15  16
HETATM   16  C   UNL     1     -11.670  14.009  65.393  1.00  0.00    -0.344 A  
HETATM   17  C   UNL     1     -10.353  14.301  65.010  1.00  0.00    -0.448 A  
HETATM   18  C   UNL     1      -9.394  14.668  65.955  1.00  0.00    -0.216 A  
HETATM   19  C   UNL     1      -9.749  14.817  67.296  1.00  0.00    -0.230 A  
HETATM   20  C   UNL     1     -11.067  14.576  67.694  1.00  0.00    -0.314 A  
HETATM   21  C   UNL     1     -12.021  14.181  66.743  1.00  0.00    -0.475 A  
BRANCH  19  22
HETATM   22  S   UNL     1      -8.481  15.148  68.505  1.00  0.00    -0.169 S  
HETATM   23  O   UNL     1      -8.080  16.530  68.338  1.00  0.00    -0.179 OA 
HETATM   24  O   UNL     1      -8.932  14.672  69.795  1.00  0.00     0.219 OA 
BRANCH  22  25
HETATM   25  N   UNL     1      -7.160  14.250  68.009  1.00  0.00    -0.122 N  
HETATM   26  H   UNL     1      -6.658  14.552  67.173  1.00  0.00     0.000 HD 
BRANCH  25  27
HETATM   27  C   UNL     1      -6.713  13.123  68.669  1.00  0.00    -0.096 C  
HETATM   28  O   UNL     1      -5.532  12.820  68.731  1.00  0.00    -0.064 OA 
BRANCH  27  29
HETATM   29  N   UNL     1      -7.699  12.366  69.256  1.00  0.00    -0.289 N  
HETATM   30  H   UNL     1      -8.150  12.673  70.118  1.00  0.00     0.000 HD 
BRANCH  29  31
HETATM   31  C   UNL     1      -8.086  11.111  68.616  1.00  0.00    -0.150 C  
HETATM   32  C   UNL     1      -7.467   9.878  69.286  1.00  0.00    -0.096 C  
HETATM   33  C   UNL     1      -8.240   9.341  70.488  1.00  0.00    -0.219 C  
HETATM   34  C   UNL     1      -9.745   9.200  70.233  1.00  0.00    -0.248 C  
HETATM   35  C   UNL     1     -10.311  10.531  69.727  1.00  0.00    -0.211 C  
HETATM   36  C   UNL     1     -10.069   8.043  69.279  1.00  0.00    -0.198 C  
HETATM   37  C   UNL     1      -9.612  11.017  68.460  1.00  0.00    -0.187 C  
ENDBRANCH  29  31
ENDBRANCH  27  29
ENDBRANCH  25  27
ENDBRANCH  22  25
ENDBRANCH  19  22
ENDBRANCH  15  16
ENDBRANCH  14  15
ENDBRANCH  12  14
ENDBRANCH  10  12
ENDBRANCH   7  10
ENDBRANCH   2   3
TORSDOF 11
ENDMDL
MODEL      247
REMARK 921   NORMALIZED FREE ENERGY PREDICTED BY IDOCK:   -3.92 KCAL/MOL
REMARK 922        TOTAL FREE ENERGY PREDICTED BY IDOCK:   -8.74 KCAL/MOL
REMARK 923 INTER-LIGAND FREE ENERGY PREDICTED BY IDOCK:   -6.87 KCAL/MOL
REMARK 924 INTRA-LIGAND FREE ENERGY PREDICTED BY IDOCK:   -1.87 KCAL/MOL
REMARK 927      BINDING AFFINITY PREDICTED BY RF-SCORE:    0.00 PKD
ROOT
HETATM    1  C   UNL     1     -11.835  12.986  69.180  1.00  0.00    -0.360 C  
HETATM    2  C   UNL     1     -11.030  13.648  68.071  1.00  0.00    -0.270 C  
ENDROOT
BRANCH   2   3
HETATM    3  C   UNL     1     -11.066  12.853  66.815  1.00  0.00    -0.315 C  
HETATM    4  C   UNL     1     -11.830  12.961  65.719  1.00  0.00    -0.469 C  
HETATM    5  C   UNL     1     -11.507  11.919  64.697  1.00  0.00    -0.279 C  
HETATM    6  C   UNL     1     -12.866  13.990  65.432  1.00  0.00    -0.442 C  
HETATM    7  N   UNL     1     -10.392  11.240  65.298  1.00  0.00    -0.268 N  
HETATM    8  O   UNL     1      -9.347  11.295  67.399  1.00  0.00    -0.160 OA 
HETATM    9  C   UNL     1     -10.150  11.716  66.582  1.00  0.00    -0.208 C  
BRANCH   7  10
HETATM   10  C   UNL     1      -9.588  10.404  64.544  1.00  0.00    -0.309 C  
HETATM   11  O   UNL     1      -9.625  10.387  63.316  1.00  0.00    -0.302 OA 
BRANCH  10  12
HETATM   12  N   UNL     1      -8.719   9.629  65.269  1.00  0.00    -0.149 N  
HETATM   13  H   UNL     1      -7.817  10.026  65.531  1.00  0.00     0.000 HD 
BRANCH  12  14
HETATM   14  C   UNL     1      -9.022   8.273  65.679  1.00  0.00    -0.109 C  
BRANCH  14  15
HETATM   15  C   UNL     1      -7.910   7.271  65.322  1.00  0.00    -0.121 C  
BRANCH  15  16
HETATM   16  C   UNL     1      -7.619   6.243  66.402  1.00  0.00    -0.094 A  
HETATM   17  C   UNL     1      -6.977   6.595  67.598  1.00  0.00    -0.083 A  
HETATM   18  C   UNL     1      -6.664   5.630  68.558  1.00  0.00    -0.057 A  
HETATM   19  C   UNL     1      -7.049   4.303  68.371  1.00  0.00    -0.055 A  
HETATM   20  C   UNL     1      -7.731   3.936  67.208  1.00  0.00    -0.080 A  
HETATM   21  C   UNL     1      -8.019   4.905  66.234  1.00  0.00    -0.107 A  
BRANCH  19  22
HETATM   22  S   UNL     1      -6.517   3.065  69.540  1.00  0.00    -0.029 S  
HETATM   23  O   UNL     1      -6.640   1.778  68.886  1.00  0.00    -0.029 OA 
HETATM   24  O   UNL     1      -5.252   3.475  70.109  1.00  0.00    -0.004 OA 
BRANCH  22  25
HETATM   25  N   UNL     1      -7.691   3.058  70.731  1.00  0.00    -0.039 N  
HETATM   26  H   UNL     1      -7.395   3.157  71.703  1.00  0.00     0.000 HD 
BRANCH  25  27
HETATM   27  C   UNL     1      -9.041   2.926  70.470  1.00  0.00    -0.120 C  
HETATM   28  O   UNL     1      -9.482   2.109  69.678  1.00  0.00    -0.110 OA 
BRANCH  27  29
HETATM   29  N   UNL     1      -9.854   3.785  71.173  1.00  0.00    -0.172 N  
HETATM   30  H   UNL     1     -10.622   3.428  71.741  1.00  0.00     0.000 HD 
BRANCH  29  31
HETATM   31  C   UNL     1      -9.590   5.219  71.087  1.00  0.00    -0.163 C  
HETATM   32  C   UNL     1     -10.042   5.835  69.757  1.00  0.00    -0.273 C  
HETATM   33  C   UNL     1     -11.513   6.244  69.703  1.00  0.00    -0.425 C  
HETATM   34  C   UNL     1     -11.968   7.045  70.928  1.00  0.00    -0.409 C  
HETATM   35  C   UNL     1     -11.629   6.273  72.207  1.00  0.00    -0.355 C  
HETATM   36  C   UNL     1     -11.387   8.464  70.946  1.00  0.00    -0.298 C  
HETATM   37  C   UNL     1     -10.139   5.957  72.317  1.00  0.00    -0.210 C  
ENDBRANCH  29  31
ENDBRANCH  27  29
ENDBRANCH  25  27
ENDBRANCH  22  25
ENDBRANCH  19  22
ENDBRANCH  15  16
ENDBRANCH  14  15
ENDBRANCH  12  14
ENDBRANCH  10  12
ENDBRANCH   7  10
ENDBRANCH   2   3
TORSDOF 11
ENDMDL
MODEL      248
REMARK 921   NORMALIZED FREE ENERGY PREDICTED BY IDOCK:   -3.91 KCAL/MOL
REMARK 922        TOTAL FREE ENERGY PREDICTED BY IDOCK:   -8.73 KCAL/MOL
REMARK 923 INTER-LIGAND FREE ENERGY PREDICTED BY IDOCK:   -7.21 KCAL/MOL
REMARK 924 INTRA-LIGAND FREE ENERGY PREDICTED BY IDOCK:   -1.51 KCAL/MOL
REMARK 927      BINDING AFFINITY PREDICTED BY RF-SCORE:    0.00 PKD
ROOT
HETATM    1  C   UNL     1     -10.861   3.780  63.419  1.00  0.00    -0.148 C  
HETATM    2  C   UNL     1      -9.811   3.719  64.519  1.00  0.00    -0.190 C  
ENDROOT
BRANCH   2   3
HETATM    3  C   UNL     1      -8.620   4.544  64.188  1.00  0.00    -0.132 C  
HETATM    4  C   UNL     1      -7.599   4.331  63.344  1.00  0.00    -0.059 C  
HETATM    5  C   UNL     1      -6.615   5.456  63.348  1.00  0.00    -0.026 C  
HETATM    6  C   UNL     1      -7.404   3.173  62.430  1.00  0.00    -0.044 C  
HETATM    7  N   UNL     1      -7.236   6.399  64.237  1.00  0.00    -0.060 N  
HETATM    8  O   UNL     1      -9.091   6.358  65.675  1.00  0.00    -0.077 OA 
HETATM    9  C   UNL     1      -8.385   5.865  64.810  1.00  0.00    -0.103 C  
BRANCH   7  10
HETATM   10  C   UNL     1      -6.807   7.713  64.280  1.00  0.00    -0.056 C  
HETATM   11  O   UNL     1      -6.184   8.172  65.234  1.00  0.00    -0.045 OA 
BRANCH  10  12
HETATM   12  N   UNL     1      -7.094   8.452  63.160  1.00  0.00    -0.090 N  
HETATM   13  H   UNL     1      -6.319   8.850  62.630  1.00  0.00     0.000 HD 
BRANCH  12  14
HETATM   14  C   UNL     1      -8.445   8.693  62.695  1.00  0.00    -0.163 C  
BRANCH  14  15
HETATM   15  C   UNL     1      -8.785  10.189  62.578  1.00  0.00    -0.230 C  
BRANCH  15  16
HETATM   16  C   UNL     1      -9.417  10.791  63.822  1.00  0.00    -0.320 A  
HETATM   17  C   UNL     1      -9.671  12.166  63.924  1.00  0.00    -0.143 A  
HETATM   18  C   UNL     1     -10.198  12.715  65.095  1.00  0.00    -0.300 A  
HETATM   19  C   UNL     1     -10.547  11.889  66.163  1.00  0.00    -0.258 A  
HETATM   20  C   UNL     1     -10.346  10.509  66.066  1.00  0.00    -0.279 A  
HETATM   21  C   UNL     1      -9.790   9.966  64.898  1.00  0.00    -0.282 A  
BRANCH  19  22
HETATM   22  S   UNL     1     -11.086  12.622  67.696  1.00  0.00    -0.279 S  
HETATM   23  O   UNL     1     -10.287  13.813  67.906  1.00  0.00    -0.236 OA 
HETATM   24  O   UNL     1     -12.530  12.707  67.690  1.00  0.00    -0.114 OA 
BRANCH  22  25
HETATM   25  N   UNL     1     -10.593  11.555  68.887  1.00  0.00    -0.235 N  
HETATM   26  H   UNL     1      -9.632  11.214  68.861  1.00  0.00     0.000 HD 
BRANCH  25  27
HETATM   27  C   UNL     1     -11.418  11.113  69.902  1.00  0.00    -0.306 C  
HETATM   28  O   UNL     1     -11.927  11.869  70.715  1.00  0.00    -0.305 OA 
BRANCH  27  29
HETATM   29  N   UNL     1     -11.627   9.754  69.928  1.00  0.00    -0.424 N  
HETATM   30  H   UNL     1     -12.505   9.355  69.598  1.00  0.00     0.000 HD 
BRANCH  29  31
HETATM   31  C   UNL     1     -10.561   8.896  70.441  1.00  0.00    -0.217 C  
HETATM   32  C   UNL     1     -10.611   8.720  71.964  1.00  0.00    -0.414 C  
HETATM   33  C   UNL     1     -11.545   7.615  72.453  1.00  0.00    -0.386 C  
HETATM   34  C   UNL     1     -11.377   6.293  71.695  1.00  0.00    -0.347 C  
HETATM   35  C   UNL     1     -11.512   6.540  70.189  1.00  0.00    -0.477 C  
HETATM   36  C   UNL     1     -10.061   5.585  72.041  1.00  0.00    -0.233 C  
HETATM   37  C   UNL     1     -10.505   7.566  69.675  1.00  0.00    -0.235 C  
ENDBRANCH  29  31
ENDBRANCH  27  29
ENDBRANCH  25  27
ENDBRANCH  22  25
ENDBRANCH  19  22
ENDBRANCH  15  16
ENDBRANCH  14  15
ENDBRANCH  12  14
ENDBRANCH  10  12
ENDBRANCH   7  10
ENDBRANCH   2   3
TORSDOF 11
ENDMDL
MODEL      249
REMARK 921   NORMALIZED FREE ENERGY PREDICTED BY IDOCK:   -3.90 KCAL/MOL
REMARK 922        TOTAL FREE ENERGY PREDICTED BY IDOCK:   -8.71 KCAL/MOL
REMARK 923 INTER-LIGAND FREE ENERGY PREDICTED BY IDOCK:   -7.30 KCAL/MOL
REMARK 924 INTRA-LIGAND FREE ENERGY PREDICTED BY IDOCK:   -1.41 KCAL/MOL
REMARK 927      BINDING AFFINITY PREDICTED BY RF-SCORE:    0.00 PKD
ROOT
HETATM    1  C   UNL     1     -10.477  12.038  66.178  1.00  0.00    -0.271 C  
HETATM    2  C   UNL     1     -10.798  11.145  64.988  1.00  0.00    -0.244 C  
ENDROOT
BRANCH   2   3
HETATM    3  C   UNL     1      -9.758  10.100  64.788  1.00  0.00    -0.389 C  
HETATM    4  C   UNL     1      -8.982   9.812  63.733  1.00  0.00    -0.272 C  
HETATM    5  C   UNL     1      -8.075   8.654  63.997  1.00  0.00    -0.163 C  
HETATM    6  C   UNL     1      -8.917  10.529  62.431  1.00  0.00    -0.308 C  
HETATM    7  N   UNL     1      -8.355   8.356  65.375  1.00  0.00    -0.150 N  
HETATM    8  O   UNL     1      -9.945   9.077  66.943  1.00  0.00    -0.202 OA 
HETATM    9  C   UNL     1      -9.396   9.142  65.854  1.00  0.00    -0.243 C  
BRANCH   7  10
HETATM   10  C   UNL     1      -7.503   7.548  66.106  1.00  0.00    -0.083 C  
HETATM   11  O   UNL     1      -6.699   8.003  66.917  1.00  0.00    -0.062 OA 
BRANCH  10  12
HETATM   12  N   UNL     1      -7.653   6.203  65.889  1.00  0.00    -0.085 N  
HETATM   13  H   UNL     1      -7.809   5.879  64.934  1.00  0.00     0.000 HD 
BRANCH  12  14
HETATM   14  C   UNL     1      -7.600   5.219  66.952  1.00  0.00    -0.088 C  
BRANCH  14  15
HETATM   15  C   UNL     1      -8.991   4.810  67.466  1.00  0.00    -0.118 C  
BRANCH  15  16
HETATM   16  C   UNL     1      -9.534   5.688  68.580  1.00  0.00    -0.152 A  
HETATM   17  C   UNL     1     -10.905   5.742  68.872  1.00  0.00    -0.305 A  
HETATM   18  C   UNL     1     -11.397   6.595  69.860  1.00  0.00    -0.422 A  
HETATM   19  C   UNL     1     -10.520   7.363  70.627  1.00  0.00    -0.215 A  
HETATM   20  C   UNL     1      -9.145   7.291  70.386  1.00  0.00    -0.155 A  
HETATM   21  C   UNL     1      -8.658   6.452  69.372  1.00  0.00    -0.130 A  
BRANCH  19  22
HETATM   22  S   UNL     1     -11.178   8.548  71.785  1.00  0.00    -0.334 S  
HETATM   23  O   UNL     1     -12.572   8.212  71.996  1.00  0.00    -0.315 OA 
HETATM   24  O   UNL     1     -10.276   8.649  72.911  1.00  0.00    -0.101 OA 
BRANCH  22  25
HETATM   25  N   UNL     1     -11.203  10.000  70.956  1.00  0.00    -0.346 N  
HETATM   26  H   UNL     1     -10.352  10.300  70.480  1.00  0.00     0.000 HD 
BRANCH  25  27
HETATM   27  C   UNL     1     -12.315  10.815  70.880  1.00  0.00    -0.396 C  
HETATM   28  O   UNL     1     -13.362  10.456  70.363  1.00  0.00    -0.178 OA 
BRANCH  27  29
HETATM   29  N   UNL     1     -12.158  12.064  71.435  1.00  0.00    -0.016 N  
HETATM   30  H   UNL     1     -11.788  12.173  72.379  1.00  0.00     0.000 HD 
BRANCH  29  31
HETATM   31  C   UNL     1     -12.532  13.231  70.638  1.00  0.00    -0.298 C  
HETATM   32  C   UNL     1     -12.464  14.544  71.427  1.00  0.00    -0.423 C  
HETATM   33  C   UNL     1     -11.084  15.195  71.476  1.00  0.00    -0.218 C  
HETATM   34  C   UNL     1     -10.397  15.273  70.108  1.00  0.00    -0.210 C  
HETATM   35  C   UNL     1     -10.358  13.882  69.468  1.00  0.00     0.287 C  
HETATM   36  C   UNL     1     -11.052  16.308  69.184  1.00  0.00    -0.322 C  
HETATM   37  C   UNL     1     -11.750  13.272  69.317  1.00  0.00    -0.380 C  
ENDBRANCH  29  31
ENDBRANCH  27  29
ENDBRANCH  25  27
ENDBRANCH  22  25
ENDBRANCH  19  22
ENDBRANCH  15  16
ENDBRANCH  14  15
ENDBRANCH  12  14
ENDBRANCH  10  12
ENDBRANCH   7  10
ENDBRANCH   2   3
TORSDOF 11
ENDMDL
MODEL      250
REMARK 921   NORMALIZED FREE ENERGY PREDICTED BY IDOCK:   -3.87 KCAL/MOL
REMARK 922        TOTAL FREE ENERGY PREDICTED BY IDOCK:   -8.67 KCAL/MOL
REMARK 923 INTER-LIGAND FREE ENERGY PREDICTED BY IDOCK:   -6.78 KCAL/MOL
REMARK 924 INTRA-LIGAND FREE ENERGY PREDICTED BY IDOCK:   -1.89 KCAL/MOL
REMARK 927      BINDING AFFINITY PREDICTED BY RF-SCORE:    0.00 PKD
ROOT
HETATM    1  C   UNL     1     -11.626  15.214  71.512  1.00  0.00    -0.443 C  
HETATM    2  C   UNL     1     -12.141  15.756  70.187  1.00  0.00    -0.355 C  
ENDROOT
BRANCH   2   3
HETATM    3  C   UNL     1     -11.110  15.667  69.119  1.00  0.00    -0.284 C  
HETATM    4  C   UNL     1     -10.381  16.614  68.509  1.00  0.00    -0.303 C  
HETATM    5  C   UNL     1      -9.462  16.044  67.477  1.00  0.00    -0.223 C  
HETATM    6  C   UNL     1     -10.374  18.075  68.788  1.00  0.00    -0.294 C  
HETATM    7  N   UNL     1      -9.680  14.631  67.623  1.00  0.00    -0.212 N  
HETATM    8  O   UNL     1     -11.200  13.296  68.813  1.00  0.00    -0.248 OA 
HETATM    9  C   UNL     1     -10.700  14.374  68.532  1.00  0.00    -0.253 C  
BRANCH   7  10
HETATM   10  C   UNL     1      -8.796  13.722  67.070  1.00  0.00    -0.218 C  
HETATM   11  O   UNL     1      -7.585  13.776  67.271  1.00  0.00    -0.155 OA 
BRANCH  10  12
HETATM   12  N   UNL     1      -9.377  12.734  66.317  1.00  0.00    -0.391 N  
HETATM   13  H   UNL     1      -9.104  11.767  66.491  1.00  0.00     0.000 HD 
BRANCH  12  14
HETATM   14  C   UNL     1     -10.359  13.000  65.285  1.00  0.00    -0.304 C  
BRANCH  14  15
HETATM   15  C   UNL     1     -10.339  11.962  64.150  1.00  0.00    -0.377 C  
BRANCH  15  16
HETATM   16  C   UNL     1      -9.620  10.668  64.492  1.00  0.00    -0.341 A  
HETATM   17  C   UNL     1      -8.457  10.273  63.815  1.00  0.00    -0.179 A  
HETATM   18  C   UNL     1      -7.838   9.055  64.100  1.00  0.00    -0.132 A  
HETATM   19  C   UNL     1      -8.330   8.237  65.117  1.00  0.00    -0.157 A  
HETATM   20  C   UNL     1      -9.461   8.632  65.837  1.00  0.00    -0.243 A  
HETATM   21  C   UNL     1     -10.096   9.845  65.528  1.00  0.00    -0.297 A  
BRANCH  19  22
HETATM   22  S   UNL     1      -7.611   6.625  65.369  1.00  0.00    -0.092 S  
HETATM   23  O   UNL     1      -8.068   5.778  64.286  1.00  0.00    -0.124 OA 
HETATM   24  O   UNL     1      -6.196   6.780  65.623  1.00  0.00    -0.037 OA 
BRANCH  22  25
HETATM   25  N   UNL     1      -8.362   6.022  66.737  1.00  0.00    -0.106 N  
HETATM   26  H   UNL     1      -9.278   5.585  66.632  1.00  0.00     0.000 HD 
BRANCH  25  27
HETATM   27  C   UNL     1      -7.807   6.084  68.000  1.00  0.00    -0.106 C  
HETATM   28  O   UNL     1      -6.897   5.352  68.357  1.00  0.00    -0.053 OA 
BRANCH  27  29
HETATM   29  N   UNL     1      -8.355   7.036  68.827  1.00  0.00    -0.121 N  
HETATM   30  H   UNL     1      -9.363   7.185  68.855  1.00  0.00     0.000 HD 
BRANCH  29  31
HETATM   31  C   UNL     1      -7.457   7.828  69.665  1.00  0.00    -0.090 C  
HETATM   32  C   UNL     1      -6.261   8.398  68.894  1.00  0.00    -0.044 C  
HETATM   33  C   UNL     1      -6.529   9.720  68.176  1.00  0.00    -0.056 C  
HETATM   34  C   UNL     1      -7.236  10.759  69.052  1.00  0.00    -0.096 C  
HETATM   35  C   UNL     1      -8.513  10.153  69.645  1.00  0.00    -0.172 C  
HETATM   36  C   UNL     1      -6.316  11.328  70.140  1.00  0.00    -0.120 C  
HETATM   37  C   UNL     1      -8.234   8.890  70.457  1.00  0.00    -0.160 C  
ENDBRANCH  29  31
ENDBRANCH  27  29
ENDBRANCH  25  27
ENDBRANCH  22  25
ENDBRANCH  19  22
ENDBRANCH  15  16
ENDBRANCH  14  15
ENDBRANCH  12  14
ENDBRANCH  10  12
ENDBRANCH   7  10
ENDBRANCH   2   3
TORSDOF 11
ENDMDL
MODEL      251
REMARK 921   NORMALIZED FREE ENERGY PREDICTED BY IDOCK:   -3.85 KCAL/MOL
REMARK 922        TOTAL FREE ENERGY PREDICTED BY IDOCK:   -8.64 KCAL/MOL
REMARK 923 INTER-LIGAND FREE ENERGY PREDICTED BY IDOCK:   -6.47 KCAL/MOL
REMARK 924 INTRA-LIGAND FREE ENERGY PREDICTED BY IDOCK:   -2.17 KCAL/MOL
REMARK 927      BINDING AFFINITY PREDICTED BY RF-SCORE:    0.00 PKD
ROOT
HETATM    1  C   UNL     1     -11.805  12.481  67.288  1.00  0.00    -0.381 C  
HETATM    2  C   UNL     1     -12.182  13.881  66.826  1.00  0.00    -0.438 C  
ENDROOT
BRANCH   2   3
HETATM    3  C   UNL     1     -11.224  14.902  67.328  1.00  0.00    -0.348 C  
HETATM    4  C   UNL     1     -11.187  15.596  68.475  1.00  0.00    -0.342 C  
HETATM    5  C   UNL     1     -10.020  16.528  68.536  1.00  0.00    -0.251 C  
HETATM    6  C   UNL     1     -12.115  15.487  69.632  1.00  0.00    -0.352 C  
HETATM    7  N   UNL     1      -9.326  16.226  67.314  1.00  0.00    -0.222 N  
HETATM    8  O   UNL     1      -9.793  14.934  65.411  1.00  0.00    -0.342 OA 
HETATM    9  C   UNL     1     -10.046  15.324  66.540  1.00  0.00    -0.270 C  
BRANCH   7  10
HETATM   10  C   UNL     1      -8.022  16.645  67.124  1.00  0.00    -0.182 C  
HETATM   11  O   UNL     1      -7.703  17.832  67.137  1.00  0.00    -0.196 OA 
BRANCH  10  12
HETATM   12  N   UNL     1      -7.107  15.636  66.963  1.00  0.00    -0.163 N  
HETATM   13  H   UNL     1      -6.633  15.549  66.064  1.00  0.00     0.000 HD 
BRANCH  12  14
HETATM   14  C   UNL     1      -6.783  14.688  68.010  1.00  0.00    -0.143 C  
BRANCH  14  15
HETATM   15  C   UNL     1      -6.335  13.319  67.467  1.00  0.00    -0.130 C  
BRANCH  15  16
HETATM   16  C   UNL     1      -7.250  12.164  67.840  1.00  0.00    -0.102 A  
HETATM   17  C   UNL     1      -8.121  11.586  66.905  1.00  0.00    -0.164 A  
HETATM   18  C   UNL     1      -8.996  10.564  67.274  1.00  0.00    -0.145 A  
HETATM   19  C   UNL     1      -8.971  10.050  68.571  1.00  0.00    -0.124 A  
HETATM   20  C   UNL     1      -8.079  10.580  69.508  1.00  0.00    -0.105 A  
HETATM   21  C   UNL     1      -7.220  11.626  69.139  1.00  0.00    -0.064 A  
BRANCH  19  22
HETATM   22  S   UNL     1     -10.191   8.845  69.059  1.00  0.00    -0.208 S  
HETATM   23  O   UNL     1     -11.200   9.545  69.829  1.00  0.00    -0.223 OA 
HETATM   24  O   UNL     1     -10.570   8.069  67.899  1.00  0.00    -0.209 OA 
BRANCH  22  25
HETATM   25  N   UNL     1      -9.412   7.859  70.162  1.00  0.00    -0.160 N  
HETATM   26  H   UNL     1      -9.641   7.964  71.151  1.00  0.00     0.000 HD 
BRANCH  25  27
HETATM   27  C   UNL     1      -8.476   6.908  69.806  1.00  0.00    -0.133 C  
HETATM   28  O   UNL     1      -7.311   6.962  70.168  1.00  0.00    -0.077 OA 
BRANCH  27  29
HETATM   29  N   UNL     1      -8.955   5.892  69.013  1.00  0.00    -0.122 N  
HETATM   30  H   UNL     1      -9.935   5.613  69.057  1.00  0.00     0.000 HD 
BRANCH  29  31
HETATM   31  C   UNL     1      -8.026   5.221  68.106  1.00  0.00    -0.091 C  
HETATM   32  C   UNL     1      -8.361   3.740  67.889  1.00  0.00    -0.100 C  
HETATM   33  C   UNL     1      -9.400   3.467  66.802  1.00  0.00    -0.203 C  
HETATM   34  C   UNL     1      -9.131   4.226  65.498  1.00  0.00    -0.138 C  
HETATM   35  C   UNL     1      -8.979   5.722  65.791  1.00  0.00    -0.144 C  
HETATM   36  C   UNL     1      -7.923   3.668  64.736  1.00  0.00    -0.090 C  
HETATM   37  C   UNL     1      -7.866   6.008  66.796  1.00  0.00    -0.101 C  
ENDBRANCH  29  31
ENDBRANCH  27  29
ENDBRANCH  25  27
ENDBRANCH  22  25
ENDBRANCH  19  22
ENDBRANCH  15  16
ENDBRANCH  14  15
ENDBRANCH  12  14
ENDBRANCH  10  12
ENDBRANCH   7  10
ENDBRANCH   2   3
TORSDOF 11
ENDMDL
MODEL      252
REMARK 921   NORMALIZED FREE ENERGY PREDICTED BY IDOCK:   -3.84 KCAL/MOL
REMARK 922        TOTAL FREE ENERGY PREDICTED BY IDOCK:   -8.62 KCAL/MOL
REMARK 923 INTER-LIGAND FREE ENERGY PREDICTED BY IDOCK:   -7.37 KCAL/MOL
REMARK 924 INTRA-LIGAND FREE ENERGY PREDICTED BY IDOCK:   -1.25 KCAL/MOL
REMARK 927      BINDING AFFINITY PREDICTED BY RF-SCORE:    0.00 PKD
ROOT
HETATM    1  C   UNL     1     -11.612  15.311  71.622  1.00  0.00    -0.473 C  
HETATM    2  C   UNL     1     -12.091  15.584  70.204  1.00  0.00    -0.404 C  
ENDROOT
BRANCH   2   3
HETATM    3  C   UNL     1     -10.990  15.443  69.214  1.00  0.00    -0.261 C  
HETATM    4  C   UNL     1     -10.204  16.356  68.625  1.00  0.00    -0.258 C  
HETATM    5  C   UNL     1      -9.225  15.738  67.681  1.00  0.00    -0.200 C  
HETATM    6  C   UNL     1     -10.192  17.826  68.854  1.00  0.00    -0.345 C  
HETATM    7  N   UNL     1      -9.477  14.334  67.858  1.00  0.00    -0.207 N  
HETATM    8  O   UNL     1     -11.099  13.064  68.983  1.00  0.00    -0.249 OA 
HETATM    9  C   UNL     1     -10.562  14.124  68.701  1.00  0.00    -0.249 C  
BRANCH   7  10
HETATM   10  C   UNL     1      -8.573  13.393  67.400  1.00  0.00    -0.204 C  
HETATM   11  O   UNL     1      -7.364  13.492  67.598  1.00  0.00    -0.146 OA 
BRANCH  10  12
HETATM   12  N   UNL     1      -9.130  12.325  66.746  1.00  0.00    -0.208 N  
HETATM   13  H   UNL     1      -9.012  11.394  67.147  1.00  0.00     0.000 HD 
BRANCH  12  14
HETATM   14  C   UNL     1      -9.879  12.455  65.512  1.00  0.00    -0.200 C  
BRANCH  14  15
HETATM   15  C   UNL     1      -9.920  11.155  64.690  1.00  0.00    -0.345 C  
BRANCH  15  16
HETATM   16  C   UNL     1      -9.791   9.885  65.514  1.00  0.00    -0.381 A  
HETATM   17  C   UNL     1      -8.797   8.932  65.245  1.00  0.00    -0.227 A  
HETATM   18  C   UNL     1      -8.725   7.743  65.972  1.00  0.00    -0.184 A  
HETATM   19  C   UNL     1      -9.604   7.511  67.030  1.00  0.00    -0.170 A  
HETATM   20  C   UNL     1     -10.574   8.467  67.346  1.00  0.00    -0.313 A  
HETATM   21  C   UNL     1     -10.660   9.649  66.594  1.00  0.00    -0.173 A  
BRANCH  19  22
HETATM   22  S   UNL     1      -9.586   5.930  67.853  1.00  0.00    -0.119 S  
HETATM   23  O   UNL     1     -10.144   4.961  66.931  1.00  0.00    -0.197 OA 
HETATM   24  O   UNL     1      -8.275   5.717  68.426  1.00  0.00    -0.106 OA 
BRANCH  22  25
HETATM   25  N   UNL     1     -10.717   6.063  69.078  1.00  0.00    -0.292 N  
HETATM   26  H   UNL     1     -11.698   5.898  68.850  1.00  0.00     0.000 HD 
BRANCH  25  27
HETATM   27  C   UNL     1     -10.394   6.383  70.381  1.00  0.00    -0.205 C  
HETATM   28  O   UNL     1      -9.950   7.474  70.702  1.00  0.00    -0.184 OA 
BRANCH  27  29
HETATM   29  N   UNL     1     -10.613   5.379  71.296  1.00  0.00    -0.228 N  
HETATM   30  H   UNL     1     -11.415   5.412  71.925  1.00  0.00     0.000 HD 
BRANCH  29  31
HETATM   31  C   UNL     1      -9.669   4.265  71.345  1.00  0.00    -0.181 C  
HETATM   32  C   UNL     1      -8.236   4.705  71.669  1.00  0.00    -0.104 C  
HETATM   33  C   UNL     1      -7.927   4.849  73.158  1.00  0.00    -0.101 C  
HETATM   34  C   UNL     1      -8.400   3.657  73.997  1.00  0.00    -0.086 C  
HETATM   35  C   UNL     1      -9.887   3.398  73.737  1.00  0.00    -0.154 C  
HETATM   36  C   UNL     1      -7.551   2.402  73.758  1.00  0.00    -0.045 C  
HETATM   37  C   UNL     1     -10.184   3.144  72.260  1.00  0.00    -0.173 C  
ENDBRANCH  29  31
ENDBRANCH  27  29
ENDBRANCH  25  27
ENDBRANCH  22  25
ENDBRANCH  19  22
ENDBRANCH  15  16
ENDBRANCH  14  15
ENDBRANCH  12  14
ENDBRANCH  10  12
ENDBRANCH   7  10
ENDBRANCH   2   3
TORSDOF 11
ENDMDL
MODEL      253
REMARK 921   NORMALIZED FREE ENERGY PREDICTED BY IDOCK:   -3.84 KCAL/MOL
REMARK 922        TOTAL FREE ENERGY PREDICTED BY IDOCK:   -8.61 KCAL/MOL
REMARK 923 INTER-LIGAND FREE ENERGY PREDICTED BY IDOCK:   -7.50 KCAL/MOL
REMARK 924 INTRA-LIGAND FREE ENERGY PREDICTED BY IDOCK:   -1.11 KCAL/MOL
REMARK 927      BINDING AFFINITY PREDICTED BY RF-SCORE:    0.00 PKD
ROOT
HETATM    1  C   UNL     1      -9.376  14.099  66.988  1.00  0.00    -0.253 C  
HETATM    2  C   UNL     1     -10.892  13.997  67.078  1.00  0.00    -0.291 C  
ENDROOT
BRANCH   2   3
HETATM    3  C   UNL     1     -11.369  14.114  68.482  1.00  0.00    -0.312 C  
HETATM    4  C   UNL     1     -11.450  15.169  69.306  1.00  0.00    -0.327 C  
HETATM    5  C   UNL     1     -11.996  14.800  70.648  1.00  0.00    -0.309 C  
HETATM    6  C   UNL     1     -11.113  16.586  69.003  1.00  0.00    -0.284 C  
HETATM    7  N   UNL     1     -12.310  13.408  70.475  1.00  0.00    -0.345 N  
HETATM    8  O   UNL     1     -11.907  11.806  68.808  1.00  0.00    -0.306 OA 
HETATM    9  C   UNL     1     -11.885  12.950  69.233  1.00  0.00    -0.309 C  
BRANCH   7  10
HETATM   10  C   UNL     1     -13.127  12.754  71.379  1.00  0.00    -0.227 C  
HETATM   11  O   UNL     1     -13.755  13.351  72.250  1.00  0.00    -0.536 OA 
BRANCH  10  12
HETATM   12  N   UNL     1     -13.214  11.396  71.204  1.00  0.00    -0.096 N  
HETATM   13  H   UNL     1     -13.927  11.033  70.572  1.00  0.00     0.000 HD 
BRANCH  12  14
HETATM   14  C   UNL     1     -12.341  10.454  71.876  1.00  0.00    -0.088 C  
BRANCH  14  15
HETATM   15  C   UNL     1     -12.852   9.005  71.809  1.00  0.00    -0.437 C  
BRANCH  15  16
HETATM   16  C   UNL     1     -11.791   7.978  71.453  1.00  0.00    -0.326 A  
HETATM   17  C   UNL     1     -10.623   8.337  70.763  1.00  0.00    -0.236 A  
HETATM   18  C   UNL     1      -9.683   7.376  70.392  1.00  0.00    -0.175 A  
HETATM   19  C   UNL     1      -9.856   6.042  70.763  1.00  0.00    -0.181 A  
HETATM   20  C   UNL     1     -10.989   5.668  71.491  1.00  0.00    -0.268 A  
HETATM   21  C   UNL     1     -11.945   6.634  71.839  1.00  0.00    -0.386 A  
BRANCH  19  22
HETATM   22  S   UNL     1      -8.717   4.810  70.159  1.00  0.00    -0.095 S  
HETATM   23  O   UNL     1      -7.901   5.443  69.143  1.00  0.00    -0.087 OA 
HETATM   24  O   UNL     1      -8.095   4.157  71.290  1.00  0.00    -0.073 OA 
BRANCH  22  25
HETATM   25  N   UNL     1      -9.665   3.710  69.329  1.00  0.00    -0.101 N  
HETATM   26  H   UNL     1     -10.677   3.839  69.341  1.00  0.00     0.000 HD 
BRANCH  25  27
HETATM   27  C   UNL     1      -9.150   2.637  68.629  1.00  0.00    -0.156 C  
HETATM   28  O   UNL     1      -8.286   1.905  69.085  1.00  0.00    -0.047 OA 
BRANCH  27  29
HETATM   29  N   UNL     1      -9.687   2.451  67.376  1.00  0.00    -0.350 N  
HETATM   30  H   UNL     1     -10.590   1.992  67.259  1.00  0.00     0.000 HD 
BRANCH  29  31
HETATM   31  C   UNL     1      -8.933   2.927  66.219  1.00  0.00    -0.148 C  
HETATM   32  C   UNL     1      -8.604   1.815  65.216  1.00  0.00    -0.109 C  
HETATM   33  C   UNL     1      -9.705   1.517  64.200  1.00  0.00    -0.117 C  
HETATM   34  C   UNL     1     -10.285   2.775  63.542  1.00  0.00    -0.171 C  
HETATM   35  C   UNL     1     -10.744   3.759  64.623  1.00  0.00    -0.078 C  
HETATM   36  C   UNL     1      -9.302   3.424  62.559  1.00  0.00    -0.092 C  
HETATM   37  C   UNL     1      -9.616   4.144  65.577  1.00  0.00    -0.188 C  
ENDBRANCH  29  31
ENDBRANCH  27  29
ENDBRANCH  25  27
ENDBRANCH  22  25
ENDBRANCH  19  22
ENDBRANCH  15  16
ENDBRANCH  14  15
ENDBRANCH  12  14
ENDBRANCH  10  12
ENDBRANCH   7  10
ENDBRANCH   2   3
TORSDOF 11
ENDMDL
MODEL      254
REMARK 921   NORMALIZED FREE ENERGY PREDICTED BY IDOCK:   -3.81 KCAL/MOL
REMARK 922        TOTAL FREE ENERGY PREDICTED BY IDOCK:   -8.57 KCAL/MOL
REMARK 923 INTER-LIGAND FREE ENERGY PREDICTED BY IDOCK:   -6.69 KCAL/MOL
REMARK 924 INTRA-LIGAND FREE ENERGY PREDICTED BY IDOCK:   -1.88 KCAL/MOL
REMARK 927      BINDING AFFINITY PREDICTED BY RF-SCORE:    0.00 PKD
ROOT
HETATM    1  C   UNL     1      -9.963  11.814  63.841  1.00  0.00    -0.356 C  
HETATM    2  C   UNL     1     -10.045  10.363  64.291  1.00  0.00    -0.306 C  
ENDROOT
BRANCH   2   3
HETATM    3  C   UNL     1      -8.860   9.970  65.098  1.00  0.00    -0.207 C  
HETATM    4  C   UNL     1      -7.601   9.675  64.739  1.00  0.00    -0.122 C  
HETATM    5  C   UNL     1      -6.745   9.325  65.913  1.00  0.00    -0.080 C  
HETATM    6  C   UNL     1      -7.014   9.715  63.373  1.00  0.00    -0.108 C  
HETATM    7  N   UNL     1      -7.640   9.538  67.016  1.00  0.00    -0.091 N  
HETATM    8  O   UNL     1      -9.932   9.992  67.236  1.00  0.00    -0.179 OA 
HETATM    9  C   UNL     1      -8.919   9.849  66.570  1.00  0.00    -0.146 C  
BRANCH   7  10
HETATM   10  C   UNL     1      -7.154   9.628  68.308  1.00  0.00    -0.078 C  
HETATM   11  O   UNL     1      -7.291   8.722  69.128  1.00  0.00    -0.069 OA 
BRANCH  10  12
HETATM   12  N   UNL     1      -6.474  10.785  68.592  1.00  0.00    -0.054 N  
HETATM   13  H   UNL     1      -5.464  10.734  68.727  1.00  0.00     0.000 HD 
BRANCH  12  14
HETATM   14  C   UNL     1      -7.123  12.075  68.711  1.00  0.00    -0.111 C  
BRANCH  14  15
HETATM   15  C   UNL     1      -6.135  13.225  68.974  1.00  0.00    -0.088 C  
BRANCH  15  16
HETATM   16  C   UNL     1      -6.567  14.568  68.408  1.00  0.00    -0.103 A  
HETATM   17  C   UNL     1      -6.208  15.775  69.026  1.00  0.00    -0.119 A  
HETATM   18  C   UNL     1      -6.658  16.999  68.528  1.00  0.00    -0.168 A  
HETATM   19  C   UNL     1      -7.421  17.046  67.361  1.00  0.00    -0.161 A  
HETATM   20  C   UNL     1      -7.752  15.858  66.702  1.00  0.00    -0.199 A  
HETATM   21  C   UNL     1      -7.319  14.628  67.222  1.00  0.00    -0.122 A  
BRANCH  19  22
HETATM   22  S   UNL     1      -8.102  18.603  66.823  1.00  0.00    -0.273 S  
HETATM   23  O   UNL     1      -7.511  19.637  67.647  1.00  0.00    -0.255 OA 
HETATM   24  O   UNL     1      -8.008  18.680  65.381  1.00  0.00    -0.170 OA 
BRANCH  22  25
HETATM   25  N   UNL     1      -9.711  18.555  67.276  1.00  0.00    -0.293 N  
HETATM   26  H   UNL     1     -10.418  18.780  66.575  1.00  0.00     0.000 HD 
BRANCH  25  27
HETATM   27  C   UNL     1     -10.135  18.225  68.548  1.00  0.00    -0.398 C  
HETATM   28  O   UNL     1      -9.794  18.852  69.539  1.00  0.00    -0.107 OA 
BRANCH  27  29
HETATM   29  N   UNL     1     -10.973  17.137  68.617  1.00  0.00    -0.246 N  
HETATM   30  H   UNL     1     -11.775  17.057  67.993  1.00  0.00     0.000 HD 
BRANCH  29  31
HETATM   31  C   UNL     1     -10.686  16.100  69.605  1.00  0.00    -0.325 C  
HETATM   32  C   UNL     1     -11.571  16.198  70.854  1.00  0.00    -0.406 C  
HETATM   33  C   UNL     1     -12.931  15.513  70.735  1.00  0.00    -0.490 C  
HETATM   34  C   UNL     1     -12.852  14.095  70.158  1.00  0.00    -0.107 C  
HETATM   35  C   UNL     1     -12.098  14.120  68.825  1.00  0.00    -0.326 C  
HETATM   36  C   UNL     1     -12.233  13.098  71.145  1.00  0.00    -0.171 C  
HETATM   37  C   UNL     1     -10.694  14.706  68.961  1.00  0.00    -0.253 C  
ENDBRANCH  29  31
ENDBRANCH  27  29
ENDBRANCH  25  27
ENDBRANCH  22  25
ENDBRANCH  19  22
ENDBRANCH  15  16
ENDBRANCH  14  15
ENDBRANCH  12  14
ENDBRANCH  10  12
ENDBRANCH   7  10
ENDBRANCH   2   3
TORSDOF 11
ENDMDL
MODEL      255
REMARK 921   NORMALIZED FREE ENERGY PREDICTED BY IDOCK:   -3.79 KCAL/MOL
REMARK 922        TOTAL FREE ENERGY PREDICTED BY IDOCK:   -8.53 KCAL/MOL
REMARK 923 INTER-LIGAND FREE ENERGY PREDICTED BY IDOCK:   -7.52 KCAL/MOL
REMARK 924 INTRA-LIGAND FREE ENERGY PREDICTED BY IDOCK:   -1.01 KCAL/MOL
REMARK 927      BINDING AFFINITY PREDICTED BY RF-SCORE:    0.00 PKD
ROOT
HETATM    1  C   UNL     1      -5.828  15.863  69.195  1.00  0.00    -0.118 C  
HETATM    2  C   UNL     1      -6.089  15.404  67.769  1.00  0.00    -0.173 C  
ENDROOT
BRANCH   2   3
HETATM    3  C   UNL     1      -7.433  15.827  67.292  1.00  0.00    -0.252 C  
HETATM    4  C   UNL     1      -7.834  16.918  66.622  1.00  0.00    -0.298 C  
HETATM    5  C   UNL     1      -9.305  16.914  66.362  1.00  0.00    -0.276 C  
HETATM    6  C   UNL     1      -6.988  18.028  66.107  1.00  0.00    -0.324 C  
HETATM    7  N   UNL     1      -9.703  15.637  66.887  1.00  0.00    -0.225 N  
HETATM    8  O   UNL     1      -8.654  13.953  68.141  1.00  0.00    -0.164 OA 
HETATM    9  C   UNL     1      -8.638  14.999  67.510  1.00  0.00    -0.180 C  
BRANCH   7  10
HETATM   10  C   UNL     1     -10.937  15.100  66.568  1.00  0.00    -0.318 C  
HETATM   11  O   UNL     1     -11.753  14.768  67.426  1.00  0.00    -0.373 OA 
BRANCH  10  12
HETATM   12  N   UNL     1     -11.197  15.003  65.225  1.00  0.00    -0.358 N  
HETATM   13  H   UNL     1     -10.477  15.304  64.568  1.00  0.00     0.000 HD 
BRANCH  12  14
HETATM   14  C   UNL     1     -12.447  14.496  64.695  1.00  0.00    -0.321 C  
BRANCH  14  15
HETATM   15  C   UNL     1     -12.253  13.379  63.656  1.00  0.00    -0.480 C  
BRANCH  15  16
HETATM   16  C   UNL     1     -11.361  12.238  64.116  1.00  0.00    -0.442 A  
HETATM   17  C   UNL     1     -11.399  11.762  65.435  1.00  0.00    -0.284 A  
HETATM   18  C   UNL     1     -10.533  10.752  65.860  1.00  0.00    -0.270 A  
HETATM   19  C   UNL     1      -9.658  10.150  64.956  1.00  0.00    -0.299 A  
HETATM   20  C   UNL     1      -9.635  10.577  63.626  1.00  0.00    -0.370 A  
HETATM   21  C   UNL     1     -10.488  11.611  63.210  1.00  0.00    -0.438 A  
BRANCH  19  22
HETATM   22  S   UNL     1      -8.467   8.964  65.550  1.00  0.00    -0.168 S  
HETATM   23  O   UNL     1      -7.650   8.574  64.419  1.00  0.00    -0.104 OA 
HETATM   24  O   UNL     1      -7.847   9.486  66.749  1.00  0.00    -0.100 OA 
BRANCH  22  25
HETATM   25  N   UNL     1      -9.360   7.602  65.930  1.00  0.00    -0.398 N  
HETATM   26  H   UNL     1     -10.270   7.482  65.486  1.00  0.00     0.000 HD 
BRANCH  25  27
HETATM   27  C   UNL     1      -8.930   6.631  66.814  1.00  0.00    -0.133 C  
HETATM   28  O   UNL     1      -8.716   6.862  67.994  1.00  0.00    -0.126 OA 
BRANCH  27  29
HETATM   29  N   UNL     1      -8.764   5.381  66.265  1.00  0.00    -0.121 N  
HETATM   30  H   UNL     1      -9.569   4.820  65.991  1.00  0.00     0.000 HD 
BRANCH  29  31
HETATM   31  C   UNL     1      -7.404   4.877  66.084  1.00  0.00    -0.078 C  
HETATM   32  C   UNL     1      -7.002   3.839  67.138  1.00  0.00    -0.058 C  
HETATM   33  C   UNL     1      -7.425   2.405  66.825  1.00  0.00    -0.066 C  
HETATM   34  C   UNL     1      -7.098   1.972  65.391  1.00  0.00    -0.052 C  
HETATM   35  C   UNL     1      -7.687   2.979  64.399  1.00  0.00    -0.077 C  
HETATM   36  C   UNL     1      -5.594   1.768  65.173  1.00  0.00    -0.012 C  
HETATM   37  C   UNL     1      -7.180   4.399  64.641  1.00  0.00    -0.066 C  
ENDBRANCH  29  31
ENDBRANCH  27  29
ENDBRANCH  25  27
ENDBRANCH  22  25
ENDBRANCH  19  22
ENDBRANCH  15  16
ENDBRANCH  14  15
ENDBRANCH  12  14
ENDBRANCH  10  12
ENDBRANCH   7  10
ENDBRANCH   2   3
TORSDOF 11
ENDMDL
MODEL      256
REMARK 921   NORMALIZED FREE ENERGY PREDICTED BY IDOCK:   -3.71 KCAL/MOL
REMARK 922        TOTAL FREE ENERGY PREDICTED BY IDOCK:   -8.40 KCAL/MOL
REMARK 923 INTER-LIGAND FREE ENERGY PREDICTED BY IDOCK:   -7.31 KCAL/MOL
REMARK 924 INTRA-LIGAND FREE ENERGY PREDICTED BY IDOCK:   -1.09 KCAL/MOL
REMARK 927      BINDING AFFINITY PREDICTED BY RF-SCORE:    0.00 PKD
ROOT
HETATM    1  C   UNL     1     -12.595  15.605  71.171  1.00  0.00    -0.511 C  
HETATM    2  C   UNL     1     -11.176  15.806  70.661  1.00  0.00    -0.395 C  
ENDROOT
BRANCH   2   3
HETATM    3  C   UNL     1     -11.119  15.793  69.175  1.00  0.00    -0.283 C  
HETATM    4  C   UNL     1     -10.529  16.624  68.303  1.00  0.00    -0.321 C  
HETATM    5  C   UNL     1     -10.750  16.207  66.884  1.00  0.00    -0.247 C  
HETATM    6  C   UNL     1      -9.689  17.814  68.608  1.00  0.00    -0.346 C  
HETATM    7  N   UNL     1     -11.470  14.973  67.039  1.00  0.00    -0.323 N  
HETATM    8  O   UNL     1     -12.451  13.835  68.842  1.00  0.00    -0.173 OA 
HETATM    9  C   UNL     1     -11.771  14.734  68.375  1.00  0.00    -0.314 C  
BRANCH   7  10
HETATM   10  C   UNL     1     -11.601  14.097  65.977  1.00  0.00    -0.361 C  
HETATM   11  O   UNL     1     -12.394  14.291  65.058  1.00  0.00    -0.418 OA 
BRANCH  10  12
HETATM   12  N   UNL     1     -10.752  13.021  66.007  1.00  0.00    -0.272 N  
HETATM   13  H   UNL     1     -11.155  12.086  66.086  1.00  0.00     0.000 HD 
BRANCH  12  14
HETATM   14  C   UNL     1      -9.311  13.147  65.930  1.00  0.00     0.081 C  
BRANCH  14  15
HETATM   15  C   UNL     1      -8.645  13.313  67.307  1.00  0.00    -0.211 C  
BRANCH  15  16
HETATM   16  C   UNL     1      -8.589  12.042  68.138  1.00  0.00    -0.173 A  
HETATM   17  C   UNL     1      -9.634  11.106  68.120  1.00  0.00    -0.181 A  
HETATM   18  C   UNL     1      -9.596   9.971  68.930  1.00  0.00    -0.181 A  
HETATM   19  C   UNL     1      -8.480   9.711  69.726  1.00  0.00    -0.190 A  
HETATM   20  C   UNL     1      -7.406  10.606  69.725  1.00  0.00    -0.115 A  
HETATM   21  C   UNL     1      -7.461  11.760  68.928  1.00  0.00    -0.080 A  
BRANCH  19  22
HETATM   22  S   UNL     1      -8.512   8.333  70.856  1.00  0.00    -0.143 S  
HETATM   23  O   UNL     1      -7.899   8.777  72.091  1.00  0.00    -0.325 OA 
HETATM   24  O   UNL     1      -9.844   7.770  70.867  1.00  0.00    -0.176 OA 
BRANCH  22  25
HETATM   25  N   UNL     1      -7.440   7.220  70.216  1.00  0.00    -0.082 N  
HETATM   26  H   UNL     1      -7.018   7.421  69.309  1.00  0.00     0.000 HD 
BRANCH  25  27
HETATM   27  C   UNL     1      -7.094   6.043  70.851  1.00  0.00    -0.069 C  
HETATM   28  O   UNL     1      -6.289   5.253  70.382  1.00  0.00    -0.025 OA 
BRANCH  27  29
HETATM   29  N   UNL     1      -7.722   5.828  72.055  1.00  0.00    -0.100 N  
HETATM   30  H   UNL     1      -7.844   6.588  72.723  1.00  0.00     0.000 HD 
BRANCH  29  31
HETATM   31  C   UNL     1      -8.210   4.484  72.354  1.00  0.00    -0.109 C  
HETATM   32  C   UNL     1      -8.437   4.245  73.852  1.00  0.00    -0.095 C  
HETATM   33  C   UNL     1      -9.795   4.704  74.379  1.00  0.00    -0.196 C  
HETATM   34  C   UNL     1     -10.972   4.252  73.508  1.00  0.00    -0.373 C  
HETATM   35  C   UNL     1     -10.739   4.683  72.057  1.00  0.00    -0.072 C  
HETATM   36  C   UNL     1     -11.235   2.745  73.620  1.00  0.00    -0.311 C  
HETATM   37  C   UNL     1      -9.431   4.134  71.490  1.00  0.00    -0.221 C  
ENDBRANCH  29  31
ENDBRANCH  27  29
ENDBRANCH  25  27
ENDBRANCH  22  25
ENDBRANCH  19  22
ENDBRANCH  15  16
ENDBRANCH  14  15
ENDBRANCH  12  14
ENDBRANCH  10  12
ENDBRANCH   7  10
ENDBRANCH   2   3
TORSDOF 11
ENDMDL
MODEL      257
REMARK 921   NORMALIZED FREE ENERGY PREDICTED BY IDOCK:   -3.69 KCAL/MOL
REMARK 922        TOTAL FREE ENERGY PREDICTED BY IDOCK:   -8.37 KCAL/MOL
REMARK 923 INTER-LIGAND FREE ENERGY PREDICTED BY IDOCK:   -6.87 KCAL/MOL
REMARK 924 INTRA-LIGAND FREE ENERGY PREDICTED BY IDOCK:   -1.50 KCAL/MOL
REMARK 927      BINDING AFFINITY PREDICTED BY RF-SCORE:    0.00 PKD
ROOT
HETATM    1  C   UNL     1     -11.598  12.340  67.450  1.00  0.00    -0.425 C  
HETATM    2  C   UNL     1     -12.239  13.624  66.945  1.00  0.00    -0.398 C  
ENDROOT
BRANCH   2   3
HETATM    3  C   UNL     1     -11.374  14.807  67.200  1.00  0.00    -0.363 C  
HETATM    4  C   UNL     1     -11.324  15.664  68.230  1.00  0.00    -0.357 C  
HETATM    5  C   UNL     1     -10.281  16.717  68.042  1.00  0.00    -0.300 C  
HETATM    6  C   UNL     1     -12.129  15.627  69.481  1.00  0.00    -0.307 C  
HETATM    7  N   UNL     1      -9.663  16.315  66.809  1.00  0.00    -0.232 N  
HETATM    8  O   UNL     1     -10.129  14.711  65.160  1.00  0.00    -0.377 OA 
HETATM    9  C   UNL     1     -10.330  15.234  66.244  1.00  0.00    -0.294 C  
BRANCH   7  10
HETATM   10  C   UNL     1      -8.441  16.842  66.430  1.00  0.00    -0.303 C  
HETATM   11  O   UNL     1      -8.337  17.941  65.891  1.00  0.00    -0.521 OA 
BRANCH  10  12
HETATM   12  N   UNL     1      -7.355  16.064  66.739  1.00  0.00    -0.195 N  
HETATM   13  H   UNL     1      -6.463  16.273  66.289  1.00  0.00     0.000 HD 
BRANCH  12  14
HETATM   14  C   UNL     1      -7.413  14.959  67.674  1.00  0.00    -0.185 C  
BRANCH  14  15
HETATM   15  C   UNL     1      -6.267  13.949  67.488  1.00  0.00    -0.016 C  
BRANCH  15  16
HETATM   16  C   UNL     1      -6.704  12.494  67.486  1.00  0.00    -0.151 A  
HETATM   17  C   UNL     1      -7.978  12.110  67.041  1.00  0.00    -0.138 A  
HETATM   18  C   UNL     1      -8.387  10.777  67.097  1.00  0.00    -0.126 A  
HETATM   19  C   UNL     1      -7.506   9.788  67.535  1.00  0.00    -0.091 A  
HETATM   20  C   UNL     1      -6.216  10.141  67.940  1.00  0.00    -0.057 A  
HETATM   21  C   UNL     1      -5.818  11.486  67.908  1.00  0.00    -0.045 A  
BRANCH  19  22
HETATM   22  S   UNL     1      -8.094   8.117  67.732  1.00  0.00    -0.129 S  
HETATM   23  O   UNL     1      -7.649   7.656  69.031  1.00  0.00    -0.099 OA 
HETATM   24  O   UNL     1      -9.498   8.073  67.386  1.00  0.00    -0.143 OA 
BRANCH  22  25
HETATM   25  N   UNL     1      -7.219   7.214  66.628  1.00  0.00    -0.077 N  
HETATM   26  H   UNL     1      -6.478   6.608  66.980  1.00  0.00     0.000 HD 
BRANCH  25  27
HETATM   27  C   UNL     1      -7.446   7.246  65.267  1.00  0.00    -0.089 C  
HETATM   28  O   UNL     1      -6.734   7.868  64.494  1.00  0.00    -0.055 OA 
BRANCH  27  29
HETATM   29  N   UNL     1      -8.535   6.522  64.844  1.00  0.00    -0.330 N  
HETATM   30  H   UNL     1      -9.366   6.990  64.483  1.00  0.00     0.000 HD 
BRANCH  29  31
HETATM   31  C   UNL     1      -8.474   5.064  64.924  1.00  0.00    -0.147 C  
HETATM   32  C   UNL     1      -9.661   4.452  65.678  1.00  0.00    -0.211 C  
HETATM   33  C   UNL     1     -10.909   4.214  64.830  1.00  0.00    -0.096 C  
HETATM   34  C   UNL     1     -10.616   3.520  63.495  1.00  0.00    -0.263 C  
HETATM   35  C   UNL     1      -9.538   4.297  62.733  1.00  0.00    -0.120 C  
HETATM   36  C   UNL     1     -10.236   2.045  63.676  1.00  0.00    -0.131 C  
HETATM   37  C   UNL     1      -8.248   4.443  63.537  1.00  0.00    -0.099 C  
ENDBRANCH  29  31
ENDBRANCH  27  29
ENDBRANCH  25  27
ENDBRANCH  22  25
ENDBRANCH  19  22
ENDBRANCH  15  16
ENDBRANCH  14  15
ENDBRANCH  12  14
ENDBRANCH  10  12
ENDBRANCH   7  10
ENDBRANCH   2   3
TORSDOF 11
ENDMDL
MODEL      258
REMARK 921   NORMALIZED FREE ENERGY PREDICTED BY IDOCK:   -3.67 KCAL/MOL
REMARK 922        TOTAL FREE ENERGY PREDICTED BY IDOCK:   -8.34 KCAL/MOL
REMARK 923 INTER-LIGAND FREE ENERGY PREDICTED BY IDOCK:   -6.95 KCAL/MOL
REMARK 924 INTRA-LIGAND FREE ENERGY PREDICTED BY IDOCK:   -1.39 KCAL/MOL
REMARK 927      BINDING AFFINITY PREDICTED BY RF-SCORE:    0.00 PKD
ROOT
HETATM    1  C   UNL     1     -10.405   9.388  67.624  1.00  0.00    -0.303 C  
HETATM    2  C   UNL     1     -10.590  10.777  67.032  1.00  0.00    -0.312 C  
ENDROOT
BRANCH   2   3
HETATM    3  C   UNL     1     -10.184  10.824  65.602  1.00  0.00    -0.320 C  
HETATM    4  C   UNL     1     -10.740  11.429  64.541  1.00  0.00    -0.391 C  
HETATM    5  C   UNL     1      -9.971  11.188  63.283  1.00  0.00    -0.379 C  
HETATM    6  C   UNL     1     -11.945  12.302  64.523  1.00  0.00    -0.459 C  
HETATM    7  N   UNL     1      -8.841  10.436  63.757  1.00  0.00    -0.197 N  
HETATM    8  O   UNL     1      -8.244   9.438  65.796  1.00  0.00    -0.112 OA 
HETATM    9  C   UNL     1      -8.971  10.139  65.109  1.00  0.00    -0.192 C  
BRANCH   7  10
HETATM   10  C   UNL     1      -7.721  10.274  62.963  1.00  0.00    -0.145 C  
HETATM   11  O   UNL     1      -7.199  11.211  62.362  1.00  0.00    -0.018 OA 
BRANCH  10  12
HETATM   12  N   UNL     1      -7.213   9.001  62.930  1.00  0.00    -0.095 N  
HETATM   13  H   UNL     1      -6.234   8.861  63.182  1.00  0.00     0.000 HD 
BRANCH  12  14
HETATM   14  C   UNL     1      -8.001   7.844  62.555  1.00  0.00    -0.149 C  
BRANCH  14  15
HETATM   15  C   UNL     1      -7.269   6.512  62.793  1.00  0.00    -0.053 C  
BRANCH  15  16
HETATM   16  C   UNL     1      -7.588   5.846  64.121  1.00  0.00    -0.085 A  
HETATM   17  C   UNL     1      -6.961   6.243  65.311  1.00  0.00    -0.056 A  
HETATM   18  C   UNL     1      -7.221   5.586  66.515  1.00  0.00    -0.077 A  
HETATM   19  C   UNL     1      -8.166   4.561  66.567  1.00  0.00    -0.103 A  
HETATM   20  C   UNL     1      -8.838   4.180  65.402  1.00  0.00    -0.124 A  
HETATM   21  C   UNL     1      -8.553   4.825  64.189  1.00  0.00    -0.137 A  
BRANCH  19  22
HETATM   22  S   UNL     1      -8.380   3.643  68.080  1.00  0.00    -0.085 S  
HETATM   23  O   UNL     1      -9.592   2.862  67.940  1.00  0.00    -0.195 OA 
HETATM   24  O   UNL     1      -7.131   2.995  68.412  1.00  0.00    -0.048 OA 
BRANCH  22  25
HETATM   25  N   UNL     1      -8.739   4.794  69.240  1.00  0.00    -0.082 N  
HETATM   26  H   UNL     1      -8.770   5.773  68.956  1.00  0.00     0.000 HD 
BRANCH  25  27
HETATM   27  C   UNL     1      -8.994   4.488  70.563  1.00  0.00    -0.105 C  
HETATM   28  O   UNL     1      -8.678   3.421  71.065  1.00  0.00    -0.070 OA 
BRANCH  27  29
HETATM   29  N   UNL     1      -9.630   5.478  71.274  1.00  0.00    -0.152 N  
HETATM   30  H   UNL     1      -9.781   5.385  72.278  1.00  0.00     0.000 HD 
BRANCH  29  31
HETATM   31  C   UNL     1     -10.084   6.668  70.556  1.00  0.00    -0.187 C  
HETATM   32  C   UNL     1     -11.595   6.672  70.296  1.00  0.00    -0.454 C  
HETATM   33  C   UNL     1     -12.445   7.212  71.444  1.00  0.00    -0.427 C  
HETATM   34  C   UNL     1     -11.925   8.534  72.020  1.00  0.00    -0.427 C  
HETATM   35  C   UNL     1     -10.451   8.384  72.411  1.00  0.00    -0.402 C  
HETATM   36  C   UNL     1     -12.145   9.713  71.063  1.00  0.00    -0.421 C  
HETATM   37  C   UNL     1      -9.579   7.949  71.235  1.00  0.00    -0.186 C  
ENDBRANCH  29  31
ENDBRANCH  27  29
ENDBRANCH  25  27
ENDBRANCH  22  25
ENDBRANCH  19  22
ENDBRANCH  15  16
ENDBRANCH  14  15
ENDBRANCH  12  14
ENDBRANCH  10  12
ENDBRANCH   7  10
ENDBRANCH   2   3
TORSDOF 11
ENDMDL
MODEL      259
REMARK 921   NORMALIZED FREE ENERGY PREDICTED BY IDOCK:   -3.66 KCAL/MOL
REMARK 922        TOTAL FREE ENERGY PREDICTED BY IDOCK:   -8.32 KCAL/MOL
REMARK 923 INTER-LIGAND FREE ENERGY PREDICTED BY IDOCK:   -7.47 KCAL/MOL
REMARK 924 INTRA-LIGAND FREE ENERGY PREDICTED BY IDOCK:   -0.85 KCAL/MOL
REMARK 927      BINDING AFFINITY PREDICTED BY RF-SCORE:    0.00 PKD
ROOT
HETATM    1  C   UNL     1     -11.926  15.954  69.118  1.00  0.00    -0.268 C  
HETATM    2  C   UNL     1     -10.599  15.660  68.434  1.00  0.00    -0.252 C  
ENDROOT
BRANCH   2   3
HETATM    3  C   UNL     1     -10.769  15.438  66.974  1.00  0.00    -0.321 C  
HETATM    4  C   UNL     1     -10.220  16.049  65.914  1.00  0.00    -0.386 C  
HETATM    5  C   UNL     1     -10.703  15.480  64.619  1.00  0.00    -0.165 C  
HETATM    6  C   UNL     1      -9.203  17.135  65.918  1.00  0.00    -0.039 C  
HETATM    7  N   UNL     1     -11.539  14.396  65.056  1.00  0.00    -0.357 N  
HETATM    8  O   UNL     1     -12.369  13.666  67.127  1.00  0.00    -0.336 OA 
HETATM    9  C   UNL     1     -11.661  14.386  66.441  1.00  0.00    -0.375 C  
BRANCH   7  10
HETATM   10  C   UNL     1     -11.937  13.412  64.169  1.00  0.00    -0.450 C  
HETATM   11  O   UNL     1     -12.557  13.667  63.139  1.00  0.00    -0.792 OA 
BRANCH  10  12
HETATM   12  N   UNL     1     -11.552  12.140  64.504  1.00  0.00    -0.338 N  
HETATM   13  H   UNL     1     -12.216  11.547  65.003  1.00  0.00     0.000 HD 
BRANCH  12  14
HETATM   14  C   UNL     1     -10.247  11.597  64.184  1.00  0.00    -0.326 C  
BRANCH  14  15
HETATM   15  C   UNL     1      -9.236  11.737  65.335  1.00  0.00    -0.023 C  
BRANCH  15  16
HETATM   16  C   UNL     1      -9.214  10.563  66.300  1.00  0.00    -0.192 A  
HETATM   17  C   UNL     1     -10.381   9.856  66.624  1.00  0.00    -0.275 A  
HETATM   18  C   UNL     1     -10.358   8.816  67.555  1.00  0.00    -0.334 A  
HETATM   19  C   UNL     1      -9.152   8.415  68.130  1.00  0.00    -0.138 A  
HETATM   20  C   UNL     1      -7.968   9.074  67.787  1.00  0.00    -0.101 A  
HETATM   21  C   UNL     1      -8.002  10.137  66.871  1.00  0.00    -0.114 A  
BRANCH  19  22
HETATM   22  S   UNL     1      -9.164   7.182  69.418  1.00  0.00    -0.147 S  
HETATM   23  O   UNL     1     -10.164   7.584  70.386  1.00  0.00    -0.199 OA 
HETATM   24  O   UNL     1      -9.227   5.872  68.808  1.00  0.00    -0.115 OA 
BRANCH  22  25
HETATM   25  N   UNL     1      -7.701   7.362  70.207  1.00  0.00    -0.092 N  
HETATM   26  H   UNL     1      -6.853   7.429  69.644  1.00  0.00     0.000 HD 
BRANCH  25  27
HETATM   27  C   UNL     1      -7.579   7.425  71.581  1.00  0.00    -0.085 C  
HETATM   28  O   UNL     1      -6.769   8.149  72.139  1.00  0.00    -0.063 OA 
BRANCH  27  29
HETATM   29  N   UNL     1      -8.442   6.611  72.278  1.00  0.00    -0.111 N  
HETATM   30  H   UNL     1      -9.335   6.967  72.616  1.00  0.00     0.000 HD 
BRANCH  29  31
HETATM   31  C   UNL     1      -8.047   5.226  72.521  1.00  0.00    -0.103 C  
HETATM   32  C   UNL     1      -8.538   4.688  73.870  1.00  0.00    -0.103 C  
HETATM   33  C   UNL     1      -9.962   4.135  73.864  1.00  0.00    -0.173 C  
HETATM   34  C   UNL     1     -10.241   3.184  72.694  1.00  0.00    -0.229 C  
HETATM   35  C   UNL     1      -9.880   3.869  71.372  1.00  0.00    -0.243 C  
HETATM   36  C   UNL     1      -9.525   1.837  72.853  1.00  0.00    -0.114 C  
HETATM   37  C   UNL     1      -8.424   4.327  71.333  1.00  0.00    -0.110 C  
ENDBRANCH  29  31
ENDBRANCH  27  29
ENDBRANCH  25  27
ENDBRANCH  22  25
ENDBRANCH  19  22
ENDBRANCH  15  16
ENDBRANCH  14  15
ENDBRANCH  12  14
ENDBRANCH  10  12
ENDBRANCH   7  10
ENDBRANCH   2   3
TORSDOF 11
ENDMDL
MODEL      260
REMARK 921   NORMALIZED FREE ENERGY PREDICTED BY IDOCK:   -3.65 KCAL/MOL
REMARK 922        TOTAL FREE ENERGY PREDICTED BY IDOCK:   -8.30 KCAL/MOL
REMARK 923 INTER-LIGAND FREE ENERGY PREDICTED BY IDOCK:   -5.85 KCAL/MOL
REMARK 924 INTRA-LIGAND FREE ENERGY PREDICTED BY IDOCK:   -2.45 KCAL/MOL
REMARK 927      BINDING AFFINITY PREDICTED BY RF-SCORE:    0.00 PKD
ROOT
HETATM    1  C   UNL     1      -9.298  15.649  66.010  1.00  0.00    -0.384 C  
HETATM    2  C   UNL     1     -10.060  14.500  66.652  1.00  0.00    -0.275 C  
ENDROOT
BRANCH   2   3
HETATM    3  C   UNL     1     -10.460  13.477  65.649  1.00  0.00    -0.296 C  
HETATM    4  C   UNL     1     -11.463  13.452  64.759  1.00  0.00    -0.359 C  
HETATM    5  C   UNL     1     -11.475  12.194  63.953  1.00  0.00    -0.440 C  
HETATM    6  C   UNL     1     -12.465  14.519  64.490  1.00  0.00    -0.346 C  
HETATM    7  N   UNL     1     -10.295  11.522  64.423  1.00  0.00    -0.287 N  
HETATM    8  O   UNL     1      -8.761  11.874  66.164  1.00  0.00    -0.133 OA 
HETATM    9  C   UNL     1      -9.711  12.215  65.477  1.00  0.00    -0.181 C  
BRANCH   7  10
HETATM   10  C   UNL     1      -9.761  10.460  63.715  1.00  0.00    -0.290 C  
HETATM   11  O   UNL     1      -9.522  10.525  62.511  1.00  0.00    -0.280 OA 
BRANCH  10  12
HETATM   12  N   UNL     1      -9.482   9.346  64.465  1.00  0.00    -0.413 N  
HETATM   13  H   UNL     1     -10.233   8.932  65.018  1.00  0.00     0.000 HD 
BRANCH  12  14
HETATM   14  C   UNL     1      -8.171   8.730  64.508  1.00  0.00    -0.167 C  
BRANCH  14  15
HETATM   15  C   UNL     1      -8.204   7.220  64.213  1.00  0.00     0.025 C  
BRANCH  15  16
HETATM   16  C   UNL     1      -8.306   6.339  65.446  1.00  0.00    -0.148 A  
HETATM   17  C   UNL     1      -9.490   6.257  66.195  1.00  0.00    -0.092 A  
HETATM   18  C   UNL     1      -9.554   5.489  67.358  1.00  0.00    -0.128 A  
HETATM   19  C   UNL     1      -8.454   4.730  67.761  1.00  0.00    -0.103 A  
HETATM   20  C   UNL     1      -7.279   4.759  67.005  1.00  0.00    -0.077 A  
HETATM   21  C   UNL     1      -7.211   5.555  65.851  1.00  0.00    -0.072 A  
BRANCH  19  22
HETATM   22  S   UNL     1      -8.510   3.869  69.321  1.00  0.00    -0.071 S  
HETATM   23  O   UNL     1      -9.310   2.677  69.124  1.00  0.00    -0.140 OA 
HETATM   24  O   UNL     1      -7.165   3.764  69.843  1.00  0.00    -0.041 OA 
BRANCH  22  25
HETATM   25  N   UNL     1      -9.426   4.844  70.325  1.00  0.00    -0.156 N  
HETATM   26  H   UNL     1     -10.440   4.736  70.309  1.00  0.00     0.000 HD 
BRANCH  25  27
HETATM   27  C   UNL     1      -8.882   5.787  71.174  1.00  0.00    -0.136 C  
HETATM   28  O   UNL     1      -9.270   5.942  72.321  1.00  0.00    -0.145 OA 
BRANCH  27  29
HETATM   29  N   UNL     1      -7.865   6.537  70.632  1.00  0.00    -0.104 N  
HETATM   30  H   UNL     1      -6.917   6.167  70.574  1.00  0.00     0.000 HD 
BRANCH  29  31
HETATM   31  C   UNL     1      -8.176   7.879  70.143  1.00  0.00    -0.125 C  
HETATM   32  C   UNL     1      -7.839   8.981  71.155  1.00  0.00    -0.154 C  
HETATM   33  C   UNL     1      -6.389   9.459  71.127  1.00  0.00    -0.074 C  
HETATM   34  C   UNL     1      -5.869   9.753  69.716  1.00  0.00    -0.041 C  
HETATM   35  C   UNL     1      -6.093   8.532  68.817  1.00  0.00    -0.045 C  
HETATM   36  C   UNL     1      -6.489  11.022  69.118  1.00  0.00    -0.066 C  
HETATM   37  C   UNL     1      -7.561   8.117  68.755  1.00  0.00    -0.105 C  
ENDBRANCH  29  31
ENDBRANCH  27  29
ENDBRANCH  25  27
ENDBRANCH  22  25
ENDBRANCH  19  22
ENDBRANCH  15  16
ENDBRANCH  14  15
ENDBRANCH  12  14
ENDBRANCH  10  12
ENDBRANCH   7  10
ENDBRANCH   2   3
TORSDOF 11
ENDMDL
MODEL      261
REMARK 921   NORMALIZED FREE ENERGY PREDICTED BY IDOCK:   -3.63 KCAL/MOL
REMARK 922        TOTAL FREE ENERGY PREDICTED BY IDOCK:   -8.26 KCAL/MOL
REMARK 923 INTER-LIGAND FREE ENERGY PREDICTED BY IDOCK:   -6.48 KCAL/MOL
REMARK 924 INTRA-LIGAND FREE ENERGY PREDICTED BY IDOCK:   -1.78 KCAL/MOL
REMARK 927      BINDING AFFINITY PREDICTED BY RF-SCORE:    0.00 PKD
ROOT
HETATM    1  C   UNL     1     -10.259   1.974  62.952  1.00  0.00    -0.110 C  
HETATM    2  C   UNL     1      -8.901   1.666  63.563  1.00  0.00    -0.087 C  
ENDROOT
BRANCH   2   3
HETATM    3  C   UNL     1      -8.468   2.730  64.507  1.00  0.00    -0.088 C  
HETATM    4  C   UNL     1      -8.175   2.691  65.815  1.00  0.00    -0.087 C  
HETATM    5  C   UNL     1      -7.786   4.031  66.350  1.00  0.00    -0.094 C  
HETATM    6  C   UNL     1      -8.157   1.499  66.705  1.00  0.00    -0.073 C  
HETATM    7  N   UNL     1      -7.802   4.846  65.166  1.00  0.00    -0.089 N  
HETATM    8  O   UNL     1      -8.501   4.543  62.946  1.00  0.00    -0.093 OA 
HETATM    9  C   UNL     1      -8.271   4.129  64.072  1.00  0.00    -0.093 C  
BRANCH   7  10
HETATM   10  C   UNL     1      -7.200   6.091  65.162  1.00  0.00    -0.070 C  
HETATM   11  O   UNL     1      -5.997   6.240  64.954  1.00  0.00    -0.025 OA 
BRANCH  10  12
HETATM   12  N   UNL     1      -8.051   7.147  65.366  1.00  0.00    -0.132 N  
HETATM   13  H   UNL     1      -8.683   7.114  66.167  1.00  0.00     0.000 HD 
BRANCH  12  14
HETATM   14  C   UNL     1      -8.096   8.307  64.499  1.00  0.00    -0.146 C  
BRANCH  14  15
HETATM   15  C   UNL     1      -7.433   9.550  65.118  1.00  0.00    -0.109 C  
BRANCH  15  16
HETATM   16  C   UNL     1      -8.361  10.400  65.968  1.00  0.00    -0.149 A  
HETATM   17  C   UNL     1      -9.729  10.109  66.080  1.00  0.00    -0.275 A  
HETATM   18  C   UNL     1     -10.582  10.931  66.819  1.00  0.00    -0.313 A  
HETATM   19  C   UNL     1     -10.072  12.025  67.518  1.00  0.00    -0.195 A  
HETATM   20  C   UNL     1      -8.705  12.309  67.459  1.00  0.00    -0.177 A  
HETATM   21  C   UNL     1      -7.856  11.495  66.693  1.00  0.00    -0.112 A  
BRANCH  19  22
HETATM   22  S   UNL     1     -11.196  13.140  68.338  1.00  0.00    -0.292 S  
HETATM   23  O   UNL     1     -10.590  14.456  68.310  1.00  0.00    -0.234 OA 
HETATM   24  O   UNL     1     -12.525  12.940  67.802  1.00  0.00    -0.061 OA 
BRANCH  22  25
HETATM   25  N   UNL     1     -11.167  12.683  69.946  1.00  0.00    -0.477 N  
HETATM   26  H   UNL     1     -10.399  13.016  70.529  1.00  0.00     0.000 HD 
BRANCH  25  27
HETATM   27  C   UNL     1     -12.129  11.881  70.528  1.00  0.00    -0.331 C  
HETATM   28  O   UNL     1     -12.997  12.321  71.265  1.00  0.00    -0.322 OA 
BRANCH  27  29
HETATM   29  N   UNL     1     -12.038  10.545  70.211  1.00  0.00    -0.304 N  
HETATM   30  H   UNL     1     -12.610  10.145  69.469  1.00  0.00     0.000 HD 
BRANCH  29  31
HETATM   31  C   UNL     1     -11.101   9.715  70.965  1.00  0.00    -0.368 C  
HETATM   32  C   UNL     1     -11.764   8.491  71.608  1.00  0.00    -0.369 C  
HETATM   33  C   UNL     1     -11.892   7.273  70.695  1.00  0.00    -0.290 C  
HETATM   34  C   UNL     1     -10.600   6.937  69.942  1.00  0.00    -0.256 C  
HETATM   35  C   UNL     1     -10.102   8.175  69.189  1.00  0.00    -0.204 C  
HETATM   36  C   UNL     1      -9.521   6.358  70.865  1.00  0.00    -0.185 C  
HETATM   37  C   UNL     1      -9.868   9.365  70.117  1.00  0.00    -0.272 C  
ENDBRANCH  29  31
ENDBRANCH  27  29
ENDBRANCH  25  27
ENDBRANCH  22  25
ENDBRANCH  19  22
ENDBRANCH  15  16
ENDBRANCH  14  15
ENDBRANCH  12  14
ENDBRANCH  10  12
ENDBRANCH   7  10
ENDBRANCH   2   3
TORSDOF 11
ENDMDL
MODEL      262
REMARK 921   NORMALIZED FREE ENERGY PREDICTED BY IDOCK:   -3.62 KCAL/MOL
REMARK 922        TOTAL FREE ENERGY PREDICTED BY IDOCK:   -8.26 KCAL/MOL
REMARK 923 INTER-LIGAND FREE ENERGY PREDICTED BY IDOCK:   -7.68 KCAL/MOL
REMARK 924 INTRA-LIGAND FREE ENERGY PREDICTED BY IDOCK:   -0.57 KCAL/MOL
REMARK 927      BINDING AFFINITY PREDICTED BY RF-SCORE:    0.00 PKD
ROOT
HETATM    1  C   UNL     1     -12.633  15.540  69.870  1.00  0.00    -0.168 C  
HETATM    2  C   UNL     1     -12.081  14.610  70.941  1.00  0.00    -0.393 C  
ENDROOT
BRANCH   2   3
HETATM    3  C   UNL     1     -12.241  13.180  70.563  1.00  0.00    -0.405 C  
HETATM    4  C   UNL     1     -11.800  12.488  69.502  1.00  0.00    -0.375 C  
HETATM    5  C   UNL     1     -12.218  11.054  69.547  1.00  0.00    -0.282 C  
HETATM    6  C   UNL     1     -10.947  12.981  68.388  1.00  0.00    -0.288 C  
HETATM    7  N   UNL     1     -12.887  10.972  70.817  1.00  0.00    -0.301 N  
HETATM    8  O   UNL     1     -13.573  12.524  72.439  1.00  0.00    -0.521 OA 
HETATM    9  C   UNL     1     -12.984  12.225  71.412  1.00  0.00    -0.256 C  
BRANCH   7  10
HETATM   10  C   UNL     1     -13.156   9.744  71.392  1.00  0.00    -0.400 C  
HETATM   11  O   UNL     1     -14.140   9.550  72.103  1.00  0.00    -0.291 OA 
BRANCH  10  12
HETATM   12  N   UNL     1     -12.266   8.749  71.076  1.00  0.00    -0.436 N  
HETATM   13  H   UNL     1     -11.388   9.008  70.625  1.00  0.00     0.000 HD 
BRANCH  12  14
HETATM   14  C   UNL     1     -12.514   7.348  71.351  1.00  0.00    -0.368 C  
BRANCH  14  15
HETATM   15  C   UNL     1     -11.387   6.683  72.161  1.00  0.00    -0.309 C  
BRANCH  15  16
HETATM   16  C   UNL     1     -10.521   5.722  71.365  1.00  0.00    -0.296 A  
HETATM   17  C   UNL     1     -10.777   5.451  70.013  1.00  0.00    -0.296 A  
HETATM   18  C   UNL     1     -10.009   4.523  69.307  1.00  0.00    -0.192 A  
HETATM   19  C   UNL     1      -8.924   3.897  69.921  1.00  0.00    -0.098 A  
HETATM   20  C   UNL     1      -8.621   4.187  71.255  1.00  0.00    -0.122 A  
HETATM   21  C   UNL     1      -9.413   5.100  71.967  1.00  0.00    -0.182 A  
BRANCH  19  22
HETATM   22  S   UNL     1      -8.045   2.615  69.048  1.00  0.00    -0.051 S  
HETATM   23  O   UNL     1      -7.434   1.760  70.046  1.00  0.00    -0.036 OA 
HETATM   24  O   UNL     1      -8.920   2.051  68.044  1.00  0.00    -0.110 OA 
BRANCH  22  25
HETATM   25  N   UNL     1      -6.766   3.393  68.303  1.00  0.00    -0.044 N  
HETATM   26  H   UNL     1      -6.008   2.824  67.926  1.00  0.00     0.000 HD 
BRANCH  25  27
HETATM   27  C   UNL     1      -6.682   4.765  68.170  1.00  0.00    -0.054 C  
HETATM   28  O   UNL     1      -5.645   5.382  68.353  1.00  0.00    -0.010 OA 
BRANCH  27  29
HETATM   29  N   UNL     1      -7.856   5.385  67.811  1.00  0.00    -0.095 N  
HETATM   30  H   UNL     1      -8.755   4.932  67.969  1.00  0.00     0.000 HD 
BRANCH  29  31
HETATM   31  C   UNL     1      -7.783   6.710  67.199  1.00  0.00    -0.100 C  
HETATM   32  C   UNL     1      -8.965   7.009  66.269  1.00  0.00    -0.175 C  
HETATM   33  C   UNL     1     -10.211   7.553  66.966  1.00  0.00    -0.368 C  
HETATM   34  C   UNL     1      -9.912   8.689  67.951  1.00  0.00    -0.232 C  
HETATM   35  C   UNL     1      -8.840   8.240  68.949  1.00  0.00    -0.140 C  
HETATM   36  C   UNL     1      -9.520   9.990  67.240  1.00  0.00    -0.179 C  
HETATM   37  C   UNL     1      -7.552   7.797  68.259  1.00  0.00    -0.109 C  
ENDBRANCH  29  31
ENDBRANCH  27  29
ENDBRANCH  25  27
ENDBRANCH  22  25
ENDBRANCH  19  22
ENDBRANCH  15  16
ENDBRANCH  14  15
ENDBRANCH  12  14
ENDBRANCH  10  12
ENDBRANCH   7  10
ENDBRANCH   2   3
TORSDOF 11
ENDMDL
MODEL      263
REMARK 921   NORMALIZED FREE ENERGY PREDICTED BY IDOCK:   -3.62 KCAL/MOL
REMARK 922        TOTAL FREE ENERGY PREDICTED BY IDOCK:   -8.25 KCAL/MOL
REMARK 923 INTER-LIGAND FREE ENERGY PREDICTED BY IDOCK:   -5.90 KCAL/MOL
REMARK 924 INTRA-LIGAND FREE ENERGY PREDICTED BY IDOCK:   -2.35 KCAL/MOL
REMARK 927      BINDING AFFINITY PREDICTED BY RF-SCORE:    0.00 PKD
ROOT
HETATM    1  C   UNL     1      -9.484   5.833  67.913  1.00  0.00    -0.114 C  
HETATM    2  C   UNL     1      -8.076   5.651  67.366  1.00  0.00    -0.102 C  
ENDROOT
BRANCH   2   3
HETATM    3  C   UNL     1      -7.937   6.231  66.003  1.00  0.00    -0.114 C  
HETATM    4  C   UNL     1      -8.348   5.790  64.805  1.00  0.00    -0.116 C  
HETATM    5  C   UNL     1      -7.970   6.721  63.698  1.00  0.00    -0.067 C  
HETATM    6  C   UNL     1      -9.139   4.565  64.512  1.00  0.00    -0.148 C  
HETATM    7  N   UNL     1      -7.361   7.810  64.412  1.00  0.00    -0.081 N  
HETATM    8  O   UNL     1      -6.706   8.183  66.634  1.00  0.00    -0.061 OA 
HETATM    9  C   UNL     1      -7.257   7.523  65.768  1.00  0.00    -0.066 C  
BRANCH   7  10
HETATM   10  C   UNL     1      -7.150   9.027  63.790  1.00  0.00    -0.092 C  
HETATM   11  O   UNL     1      -6.345   9.166  62.871  1.00  0.00    -0.094 OA 
BRANCH  10  12
HETATM   12  N   UNL     1      -7.935  10.054  64.247  1.00  0.00    -0.148 N  
HETATM   13  H   UNL     1      -7.519  10.740  64.878  1.00  0.00     0.000 HD 
BRANCH  12  14
HETATM   14  C   UNL     1      -9.327  10.213  63.876  1.00  0.00    -0.287 C  
BRANCH  14  15
HETATM   15  C   UNL     1     -10.086  11.195  64.785  1.00  0.00    -0.351 C  
BRANCH  15  16
HETATM   16  C   UNL     1     -10.409  10.654  66.167  1.00  0.00    -0.291 A  
HETATM   17  C   UNL     1     -11.010  11.456  67.148  1.00  0.00    -0.340 A  
HETATM   18  C   UNL     1     -11.250  10.963  68.432  1.00  0.00    -0.347 A  
HETATM   19  C   UNL     1     -10.955   9.635  68.742  1.00  0.00    -0.117 A  
HETATM   20  C   UNL     1     -10.398   8.804  67.767  1.00  0.00    -0.297 A  
HETATM   21  C   UNL     1     -10.134   9.312  66.486  1.00  0.00    -0.343 A  
BRANCH  19  22
HETATM   22  S   UNL     1     -11.137   9.068  70.423  1.00  0.00    -0.232 S  
HETATM   23  O   UNL     1     -11.758  10.141  71.172  1.00  0.00    -0.352 OA 
HETATM   24  O   UNL     1     -11.735   7.751  70.408  1.00  0.00    -0.176 OA 
BRANCH  22  25
HETATM   25  N   UNL     1      -9.578   8.968  71.020  1.00  0.00    -0.255 N  
HETATM   26  H   UNL     1      -9.451   8.700  71.997  1.00  0.00     0.000 HD 
BRANCH  25  27
HETATM   27  C   UNL     1      -8.454   9.227  70.262  1.00  0.00    -0.203 C  
HETATM   28  O   UNL     1      -7.758   8.342  69.789  1.00  0.00    -0.093 OA 
BRANCH  27  29
HETATM   29  N   UNL     1      -8.175  10.561  70.076  1.00  0.00    -0.297 N  
HETATM   30  H   UNL     1      -8.770  11.280  70.487  1.00  0.00     0.000 HD 
BRANCH  29  31
HETATM   31  C   UNL     1      -7.008  10.923  69.275  1.00  0.00    -0.112 C  
HETATM   32  C   UNL     1      -7.372  11.647  67.973  1.00  0.00    -0.089 C  
HETATM   33  C   UNL     1      -7.571  13.155  68.109  1.00  0.00    -0.141 C  
HETATM   34  C   UNL     1      -6.455  13.849  68.898  1.00  0.00    -0.098 C  
HETATM   35  C   UNL     1      -6.277  13.164  70.257  1.00  0.00    -0.004 C  
HETATM   36  C   UNL     1      -5.138  13.911  68.113  1.00  0.00    -0.112 C  
HETATM   37  C   UNL     1      -5.969  11.674  70.121  1.00  0.00    -0.161 C  
ENDBRANCH  29  31
ENDBRANCH  27  29
ENDBRANCH  25  27
ENDBRANCH  22  25
ENDBRANCH  19  22
ENDBRANCH  15  16
ENDBRANCH  14  15
ENDBRANCH  12  14
ENDBRANCH  10  12
ENDBRANCH   7  10
ENDBRANCH   2   3
TORSDOF 11
ENDMDL
MODEL      264
REMARK 921   NORMALIZED FREE ENERGY PREDICTED BY IDOCK:   -3.61 KCAL/MOL
REMARK 922        TOTAL FREE ENERGY PREDICTED BY IDOCK:   -8.24 KCAL/MOL
REMARK 923 INTER-LIGAND FREE ENERGY PREDICTED BY IDOCK:   -7.22 KCAL/MOL
REMARK 924 INTRA-LIGAND FREE ENERGY PREDICTED BY IDOCK:   -1.02 KCAL/MOL
REMARK 927      BINDING AFFINITY PREDICTED BY RF-SCORE:    0.00 PKD
ROOT
HETATM    1  C   UNL     1     -10.423   3.546  63.995  1.00  0.00    -0.250 C  
HETATM    2  C   UNL     1      -9.203   3.741  64.883  1.00  0.00    -0.148 C  
ENDROOT
BRANCH   2   3
HETATM    3  C   UNL     1      -8.222   4.676  64.272  1.00  0.00    -0.113 C  
HETATM    4  C   UNL     1      -7.366   4.522  63.251  1.00  0.00    -0.053 C  
HETATM    5  C   UNL     1      -6.562   5.755  62.994  1.00  0.00    -0.032 C  
HETATM    6  C   UNL     1      -7.198   3.327  62.380  1.00  0.00    -0.040 C  
HETATM    7  N   UNL     1      -7.119   6.683  63.940  1.00  0.00    -0.051 N  
HETATM    8  O   UNL     1      -8.634   6.531  65.726  1.00  0.00    -0.148 OA 
HETATM    9  C   UNL     1      -8.050   6.061  64.762  1.00  0.00    -0.132 C  
BRANCH   7  10
HETATM   10  C   UNL     1      -6.871   8.039  63.823  1.00  0.00    -0.074 C  
HETATM   11  O   UNL     1      -6.199   8.659  64.644  1.00  0.00    -0.064 OA 
BRANCH  10  12
HETATM   12  N   UNL     1      -7.397   8.629  62.702  1.00  0.00    -0.098 N  
HETATM   13  H   UNL     1      -6.755   9.011  62.008  1.00  0.00     0.000 HD 
BRANCH  12  14
HETATM   14  C   UNL     1      -8.821   8.735  62.457  1.00  0.00    -0.035 C  
BRANCH  14  15
HETATM   15  C   UNL     1      -9.343  10.180  62.544  1.00  0.00    -0.313 C  
BRANCH  15  16
HETATM   16  C   UNL     1      -9.802  10.602  63.930  1.00  0.00    -0.398 A  
HETATM   17  C   UNL     1     -10.366  11.864  64.164  1.00  0.00    -0.377 A  
HETATM   18  C   UNL     1     -10.730  12.261  65.452  1.00  0.00    -0.320 A  
HETATM   19  C   UNL     1     -10.602  11.377  66.523  1.00  0.00    -0.263 A  
HETATM   20  C   UNL     1     -10.086  10.096  66.306  1.00  0.00    -0.303 A  
HETATM   21  C   UNL     1      -9.695   9.712  65.014  1.00  0.00    -0.234 A  
BRANCH  19  22
HETATM   22  S   UNL     1     -10.941  11.951  68.177  1.00  0.00    -0.246 S  
HETATM   23  O   UNL     1     -12.381  12.010  68.323  1.00  0.00    -0.288 OA 
HETATM   24  O   UNL     1     -10.146  11.181  69.109  1.00  0.00    -0.195 OA 
BRANCH  22  25
HETATM   25  N   UNL     1     -10.437  13.545  68.197  1.00  0.00    -0.238 N  
HETATM   26  H   UNL     1     -11.072  14.248  68.577  1.00  0.00     0.000 HD 
BRANCH  25  27
HETATM   27  C   UNL     1      -9.208  13.962  67.726  1.00  0.00    -0.197 C  
HETATM   28  O   UNL     1      -8.190  13.301  67.864  1.00  0.00    -0.137 OA 
BRANCH  27  29
HETATM   29  N   UNL     1      -9.215  15.179  67.085  1.00  0.00    -0.204 N  
HETATM   30  H   UNL     1      -8.632  15.339  66.264  1.00  0.00     0.000 HD 
BRANCH  29  31
HETATM   31  C   UNL     1     -10.077  16.236  67.609  1.00  0.00    -0.260 C  
HETATM   32  C   UNL     1      -9.540  16.864  68.901  1.00  0.00    -0.251 C  
HETATM   33  C   UNL     1      -8.524  17.987  68.698  1.00  0.00    -0.277 C  
HETATM   34  C   UNL     1      -8.959  19.022  67.654  1.00  0.00    -0.322 C  
HETATM   35  C   UNL     1      -9.313  18.317  66.341  1.00  0.00    -0.280 C  
HETATM   36  C   UNL     1     -10.108  19.907  68.155  1.00  0.00    -0.569 C  
HETATM   37  C   UNL     1     -10.409  17.268  66.521  1.00  0.00    -0.308 C  
ENDBRANCH  29  31
ENDBRANCH  27  29
ENDBRANCH  25  27
ENDBRANCH  22  25
ENDBRANCH  19  22
ENDBRANCH  15  16
ENDBRANCH  14  15
ENDBRANCH  12  14
ENDBRANCH  10  12
ENDBRANCH   7  10
ENDBRANCH   2   3
TORSDOF 11
ENDMDL
MODEL      265
REMARK 921   NORMALIZED FREE ENERGY PREDICTED BY IDOCK:   -3.61 KCAL/MOL
REMARK 922        TOTAL FREE ENERGY PREDICTED BY IDOCK:   -8.23 KCAL/MOL
REMARK 923 INTER-LIGAND FREE ENERGY PREDICTED BY IDOCK:   -5.72 KCAL/MOL
REMARK 924 INTRA-LIGAND FREE ENERGY PREDICTED BY IDOCK:   -2.52 KCAL/MOL
REMARK 927      BINDING AFFINITY PREDICTED BY RF-SCORE:    0.00 PKD
ROOT
HETATM    1  C   UNL     1      -9.658   5.341  68.768  1.00  0.00    -0.187 C  
HETATM    2  C   UNL     1      -8.224   5.221  68.274  1.00  0.00    -0.094 C  
ENDROOT
BRANCH   2   3
HETATM    3  C   UNL     1      -8.145   5.291  66.791  1.00  0.00    -0.105 C  
HETATM    4  C   UNL     1      -8.566   4.445  65.839  1.00  0.00    -0.114 C  
HETATM    5  C   UNL     1      -8.258   4.941  64.463  1.00  0.00    -0.123 C  
HETATM    6  C   UNL     1      -9.307   3.168  66.022  1.00  0.00    -0.104 C  
HETATM    7  N   UNL     1      -7.681   6.231  64.728  1.00  0.00    -0.094 N  
HETATM    8  O   UNL     1      -6.989   7.381  66.653  1.00  0.00    -0.066 OA 
HETATM    9  C   UNL     1      -7.530   6.441  66.093  1.00  0.00    -0.082 C  
BRANCH   7  10
HETATM   10  C   UNL     1      -7.540   7.160  63.712  1.00  0.00    -0.109 C  
HETATM   11  O   UNL     1      -7.323   6.834  62.547  1.00  0.00    -0.055 OA 
BRANCH  10  12
HETATM   12  N   UNL     1      -7.702   8.467  64.097  1.00  0.00    -0.129 N  
HETATM   13  H   UNL     1      -6.937   8.926  64.592  1.00  0.00     0.000 HD 
BRANCH  12  14
HETATM   14  C   UNL     1      -8.908   9.225  63.833  1.00  0.00    -0.126 C  
BRANCH  14  15
HETATM   15  C   UNL     1      -9.050  10.465  64.733  1.00  0.00    -0.247 C  
BRANCH  15  16
HETATM   16  C   UNL     1      -9.576  10.174  66.128  1.00  0.00    -0.256 A  
HETATM   17  C   UNL     1      -9.403  11.083  67.183  1.00  0.00    -0.177 A  
HETATM   18  C   UNL     1      -9.840  10.779  68.473  1.00  0.00    -0.182 A  
HETATM   19  C   UNL     1     -10.522   9.587  68.722  1.00  0.00    -0.219 A  
HETATM   20  C   UNL     1     -10.747   8.687  67.677  1.00  0.00    -0.194 A  
HETATM   21  C   UNL     1     -10.281   8.985  66.387  1.00  0.00    -0.297 A  
BRANCH  19  22
HETATM   22  S   UNL     1     -10.946   9.156  70.399  1.00  0.00    -0.258 S  
HETATM   23  O   UNL     1     -11.317  10.382  71.076  1.00  0.00    -0.306 OA 
HETATM   24  O   UNL     1     -11.859   8.034  70.375  1.00  0.00    -0.100 OA 
BRANCH  22  25
HETATM   25  N   UNL     1      -9.504   8.689  71.107  1.00  0.00    -0.194 N  
HETATM   26  H   UNL     1      -8.636   8.885  70.609  1.00  0.00     0.000 HD 
BRANCH  25  27
HETATM   27  C   UNL     1      -9.427   8.053  72.331  1.00  0.00    -0.215 C  
HETATM   28  O   UNL     1      -8.969   8.593  73.326  1.00  0.00    -0.288 OA 
BRANCH  27  29
HETATM   29  N   UNL     1      -9.908   6.765  72.346  1.00  0.00    -0.158 N  
HETATM   30  H   UNL     1     -10.754   6.518  71.834  1.00  0.00     0.000 HD 
BRANCH  29  31
HETATM   31  C   UNL     1      -9.177   5.759  73.113  1.00  0.00    -0.136 C  
HETATM   32  C   UNL     1      -9.908   5.329  74.391  1.00  0.00    -0.213 C  
HETATM   33  C   UNL     1     -10.946   4.224  74.198  1.00  0.00    -0.184 C  
HETATM   34  C   UNL     1     -10.433   3.044  73.365  1.00  0.00    -0.252 C  
HETATM   35  C   UNL     1      -9.875   3.554  72.032  1.00  0.00    -0.238 C  
HETATM   36  C   UNL     1      -9.406   2.196  74.126  1.00  0.00    -0.092 C  
HETATM   37  C   UNL     1      -8.760   4.579  72.222  1.00  0.00    -0.126 C  
ENDBRANCH  29  31
ENDBRANCH  27  29
ENDBRANCH  25  27
ENDBRANCH  22  25
ENDBRANCH  19  22
ENDBRANCH  15  16
ENDBRANCH  14  15
ENDBRANCH  12  14
ENDBRANCH  10  12
ENDBRANCH   7  10
ENDBRANCH   2   3
TORSDOF 11
ENDMDL
MODEL      266
REMARK 921   NORMALIZED FREE ENERGY PREDICTED BY IDOCK:   -3.60 KCAL/MOL
REMARK 922        TOTAL FREE ENERGY PREDICTED BY IDOCK:   -8.22 KCAL/MOL
REMARK 923 INTER-LIGAND FREE ENERGY PREDICTED BY IDOCK:   -6.52 KCAL/MOL
REMARK 924 INTRA-LIGAND FREE ENERGY PREDICTED BY IDOCK:   -1.70 KCAL/MOL
REMARK 927      BINDING AFFINITY PREDICTED BY RF-SCORE:    0.00 PKD
ROOT
HETATM    1  C   UNL     1      -9.101  11.117  63.025  1.00  0.00    -0.285 C  
HETATM    2  C   UNL     1      -8.402   9.840  63.468  1.00  0.00    -0.168 C  
ENDROOT
BRANCH   2   3
HETATM    3  C   UNL     1      -7.242  10.127  64.354  1.00  0.00    -0.115 C  
HETATM    4  C   UNL     1      -5.985  10.503  64.076  1.00  0.00    -0.046 C  
HETATM    5  C   UNL     1      -5.158  10.670  65.309  1.00  0.00    -0.130 C  
HETATM    6  C   UNL     1      -5.400  10.797  62.740  1.00  0.00    -0.177 C  
HETATM    7  N   UNL     1      -6.116  10.429  66.353  1.00  0.00    -0.073 N  
HETATM    8  O   UNL     1      -8.332   9.661  66.432  1.00  0.00    -0.118 OA 
HETATM    9  C   UNL     1      -7.340  10.034  65.826  1.00  0.00    -0.117 C  
BRANCH   7  10
HETATM   10  C   UNL     1      -5.838  10.789  67.659  1.00  0.00    -0.043 C  
HETATM   11  O   UNL     1      -5.688   9.960  68.553  1.00  0.00    -0.042 OA 
BRANCH  10  12
HETATM   12  N   UNL     1      -5.702  12.138  67.871  1.00  0.00    -0.060 N  
HETATM   13  H   UNL     1      -5.316  12.711  67.121  1.00  0.00     0.000 HD 
BRANCH  12  14
HETATM   14  C   UNL     1      -6.081  12.786  69.110  1.00  0.00    -0.092 C  
BRANCH  14  15
HETATM   15  C   UNL     1      -5.627  14.254  69.188  1.00  0.00    -0.087 C  
BRANCH  15  16
HETATM   16  C   UNL     1      -6.614  15.250  68.603  1.00  0.00    -0.097 A  
HETATM   17  C   UNL     1      -7.505  15.965  69.417  1.00  0.00    -0.213 A  
HETATM   18  C   UNL     1      -8.445  16.835  68.863  1.00  0.00    -0.217 A  
HETATM   19  C   UNL     1      -8.469  17.061  67.487  1.00  0.00    -0.200 A  
HETATM   20  C   UNL     1      -7.561  16.394  66.660  1.00  0.00    -0.288 A  
HETATM   21  C   UNL     1      -6.635  15.500  67.220  1.00  0.00    -0.090 A  
BRANCH  19  22
HETATM   22  S   UNL     1      -9.766  18.064  66.787  1.00  0.00    -0.339 S  
HETATM   23  O   UNL     1     -10.913  17.955  67.665  1.00  0.00    -0.310 OA 
HETATM   24  O   UNL     1      -9.223  19.364  66.458  1.00  0.00    -0.324 OA 
BRANCH  22  25
HETATM   25  N   UNL     1     -10.218  17.275  65.383  1.00  0.00    -0.001 N  
HETATM   26  H   UNL     1      -9.925  17.672  64.490  1.00  0.00     0.000 HD 
BRANCH  25  27
HETATM   27  C   UNL     1     -10.967  16.115  65.369  1.00  0.00    -0.227 C  
HETATM   28  O   UNL     1     -11.608  15.756  64.394  1.00  0.00    -0.401 OA 
BRANCH  27  29
HETATM   29  N   UNL     1     -10.935  15.390  66.537  1.00  0.00    -0.303 N  
HETATM   30  H   UNL     1     -10.321  15.663  67.304  1.00  0.00     0.000 HD 
BRANCH  29  31
HETATM   31  C   UNL     1     -11.803  14.220  66.653  1.00  0.00    -0.421 C  
HETATM   32  C   UNL     1     -11.329  13.033  65.805  1.00  0.00    -0.331 C  
HETATM   33  C   UNL     1     -10.278  12.146  66.470  1.00  0.00    -0.230 C  
HETATM   34  C   UNL     1     -10.629  11.760  67.912  1.00  0.00    -0.231 C  
HETATM   35  C   UNL     1     -10.922  13.023  68.729  1.00  0.00    -0.295 C  
HETATM   36  C   UNL     1     -11.784  10.754  67.981  1.00  0.00    -0.127 C  
HETATM   37  C   UNL     1     -12.048  13.858  68.126  1.00  0.00    -0.317 C  
ENDBRANCH  29  31
ENDBRANCH  27  29
ENDBRANCH  25  27
ENDBRANCH  22  25
ENDBRANCH  19  22
ENDBRANCH  15  16
ENDBRANCH  14  15
ENDBRANCH  12  14
ENDBRANCH  10  12
ENDBRANCH   7  10
ENDBRANCH   2   3
TORSDOF 11
ENDMDL
MODEL      267
REMARK 921   NORMALIZED FREE ENERGY PREDICTED BY IDOCK:   -3.58 KCAL/MOL
REMARK 922        TOTAL FREE ENERGY PREDICTED BY IDOCK:   -8.19 KCAL/MOL
REMARK 923 INTER-LIGAND FREE ENERGY PREDICTED BY IDOCK:   -5.79 KCAL/MOL
REMARK 924 INTRA-LIGAND FREE ENERGY PREDICTED BY IDOCK:   -2.40 KCAL/MOL
REMARK 927      BINDING AFFINITY PREDICTED BY RF-SCORE:    0.00 PKD
ROOT
HETATM    1  C   UNL     1     -11.244  15.743  65.845  1.00  0.00     0.004 C  
HETATM    2  C   UNL     1     -10.323  15.063  64.842  1.00  0.00    -0.317 C  
ENDROOT
BRANCH   2   3
HETATM    3  C   UNL     1     -10.426  13.582  64.917  1.00  0.00    -0.417 C  
HETATM    4  C   UNL     1     -11.239  12.716  64.293  1.00  0.00    -0.410 C  
HETATM    5  C   UNL     1     -10.976  11.301  64.694  1.00  0.00    -0.211 C  
HETATM    6  C   UNL     1     -12.274  13.021  63.268  1.00  0.00    -0.464 C  
HETATM    7  N   UNL     1      -9.843  11.439  65.568  1.00  0.00    -0.222 N  
HETATM    8  O   UNL     1      -8.702  13.244  66.541  1.00  0.00    -0.070 OA 
HETATM    9  C   UNL     1      -9.536  12.777  65.781  1.00  0.00    -0.092 C  
BRANCH   7  10
HETATM   10  C   UNL     1      -9.085  10.335  65.915  1.00  0.00    -0.163 C  
HETATM   11  O   UNL     1      -8.152   9.933  65.223  1.00  0.00    -0.127 OA 
BRANCH  10  12
HETATM   12  N   UNL     1      -9.426   9.751  67.108  1.00  0.00    -0.151 N  
HETATM   13  H   UNL     1     -10.239   9.136  67.133  1.00  0.00     0.000 HD 
BRANCH  12  14
HETATM   14  C   UNL     1      -8.685   9.966  68.335  1.00  0.00    -0.120 C  
BRANCH  14  15
HETATM   15  C   UNL     1      -9.586  10.324  69.530  1.00  0.00    -0.225 C  
BRANCH  15  16
HETATM   16  C   UNL     1      -9.918   9.154  70.441  1.00  0.00    -0.263 A  
HETATM   17  C   UNL     1      -9.043   8.744  71.458  1.00  0.00    -0.322 A  
HETATM   18  C   UNL     1      -9.333   7.633  72.251  1.00  0.00    -0.199 A  
HETATM   19  C   UNL     1     -10.538   6.948  72.089  1.00  0.00    -0.213 A  
HETATM   20  C   UNL     1     -11.446   7.366  71.112  1.00  0.00    -0.303 A  
HETATM   21  C   UNL     1     -11.137   8.468  70.299  1.00  0.00    -0.222 A  
BRANCH  19  22
HETATM   22  S   UNL     1     -10.825   5.451  73.013  1.00  0.00    -0.298 S  
HETATM   23  O   UNL     1      -9.989   5.510  74.195  1.00  0.00    -0.179 OA 
HETATM   24  O   UNL     1     -12.252   5.249  73.141  1.00  0.00    -0.006 OA 
BRANCH  22  25
HETATM   25  N   UNL     1     -10.168   4.229  72.079  1.00  0.00    -0.177 N  
HETATM   26  H   UNL     1     -10.661   3.952  71.230  1.00  0.00     0.000 HD 
BRANCH  25  27
HETATM   27  C   UNL     1      -8.994   3.575  72.396  1.00  0.00    -0.096 C  
HETATM   28  O   UNL     1      -8.972   2.435  72.834  1.00  0.00    -0.070 OA 
BRANCH  27  29
HETATM   29  N   UNL     1      -7.848   4.303  72.179  1.00  0.00    -0.080 N  
HETATM   30  H   UNL     1      -7.489   4.936  72.892  1.00  0.00     0.000 HD 
BRANCH  29  31
HETATM   31  C   UNL     1      -7.157   4.146  70.901  1.00  0.00    -0.033 C  
HETATM   32  C   UNL     1      -8.095   4.253  69.692  1.00  0.00    -0.062 C  
HETATM   33  C   UNL     1      -8.367   5.677  69.212  1.00  0.00    -0.107 C  
HETATM   34  C   UNL     1      -7.098   6.526  69.072  1.00  0.00    -0.085 C  
HETATM   35  C   UNL     1      -6.309   6.499  70.385  1.00  0.00    -0.043 C  
HETATM   36  C   UNL     1      -6.236   6.094  67.879  1.00  0.00    -0.032 C  
HETATM   37  C   UNL     1      -5.940   5.080  70.812  1.00  0.00    -0.018 C  
ENDBRANCH  29  31
ENDBRANCH  27  29
ENDBRANCH  25  27
ENDBRANCH  22  25
ENDBRANCH  19  22
ENDBRANCH  15  16
ENDBRANCH  14  15
ENDBRANCH  12  14
ENDBRANCH  10  12
ENDBRANCH   7  10
ENDBRANCH   2   3
TORSDOF 11
ENDMDL
MODEL      268
REMARK 921   NORMALIZED FREE ENERGY PREDICTED BY IDOCK:   -3.56 KCAL/MOL
REMARK 922        TOTAL FREE ENERGY PREDICTED BY IDOCK:   -8.15 KCAL/MOL
REMARK 923 INTER-LIGAND FREE ENERGY PREDICTED BY IDOCK:   -6.19 KCAL/MOL
REMARK 924 INTRA-LIGAND FREE ENERGY PREDICTED BY IDOCK:   -1.96 KCAL/MOL
REMARK 927      BINDING AFFINITY PREDICTED BY RF-SCORE:    0.00 PKD
ROOT
HETATM    1  C   UNL     1      -8.696   7.798  69.842  1.00  0.00    -0.142 C  
HETATM    2  C   UNL     1      -9.946   8.022  69.004  1.00  0.00    -0.186 C  
ENDROOT
BRANCH   2   3
HETATM    3  C   UNL     1     -11.064   8.567  69.819  1.00  0.00    -0.067 C  
HETATM    4  C   UNL     1     -11.999   7.958  70.563  1.00  0.00     0.031 C  
HETATM    5  C   UNL     1     -12.934   8.930  71.207  1.00  0.00    -0.211 C  
HETATM    6  C   UNL     1     -12.144   6.500  70.824  1.00  0.00    -0.286 C  
HETATM    7  N   UNL     1     -12.373  10.195  70.817  1.00  0.00    -0.316 N  
HETATM    8  O   UNL     1     -10.680  10.880  69.343  1.00  0.00    -0.224 OA 
HETATM    9  C   UNL     1     -11.311  10.020  69.937  1.00  0.00    -0.250 C  
BRANCH   7  10
HETATM   10  C   UNL     1     -12.752  11.360  71.458  1.00  0.00    -0.357 C  
HETATM   11  O   UNL     1     -13.740  11.419  72.187  1.00  0.00    -0.176 OA 
BRANCH  10  12
HETATM   12  N   UNL     1     -11.921  12.432  71.251  1.00  0.00    -0.003 N  
HETATM   13  H   UNL     1     -10.920  12.259  71.157  1.00  0.00     0.000 HD 
BRANCH  12  14
HETATM   14  C   UNL     1     -12.398  13.797  71.161  1.00  0.00    -0.345 C  
BRANCH  14  15
HETATM   15  C   UNL     1     -11.483  14.702  70.318  1.00  0.00    -0.300 C  
BRANCH  15  16
HETATM   16  C   UNL     1     -11.302  14.248  68.879  1.00  0.00    -0.302 A  
HETATM   17  C   UNL     1     -12.400  13.970  68.053  1.00  0.00    -0.011 A  
HETATM   18  C   UNL     1     -12.220  13.499  66.751  1.00  0.00    -0.392 A  
HETATM   19  C   UNL     1     -10.935  13.363  66.224  1.00  0.00    -0.288 A  
HETATM   20  C   UNL     1      -9.826  13.679  67.014  1.00  0.00    -0.251 A  
HETATM   21  C   UNL     1     -10.013  14.126  68.331  1.00  0.00    -0.235 A  
BRANCH  19  22
HETATM   22  S   UNL     1     -10.724  12.629  64.613  1.00  0.00    -0.348 S  
HETATM   23  O   UNL     1     -11.901  11.828  64.349  1.00  0.00    -0.283 OA 
HETATM   24  O   UNL     1     -10.321  13.659  63.681  1.00  0.00     0.320 OA 
BRANCH  22  25
HETATM   25  N   UNL     1      -9.481  11.525  64.797  1.00  0.00    -0.376 N  
HETATM   26  H   UNL     1      -9.055  11.426  65.719  1.00  0.00     0.000 HD 
BRANCH  25  27
HETATM   27  C   UNL     1      -9.000  10.740  63.768  1.00  0.00    -0.162 C  
HETATM   28  O   UNL     1      -9.627  10.549  62.737  1.00  0.00    -0.306 OA 
BRANCH  27  29
HETATM   29  N   UNL     1      -7.759  10.190  63.989  1.00  0.00    -0.165 N  
HETATM   30  H   UNL     1      -6.935  10.783  64.082  1.00  0.00     0.000 HD 
BRANCH  29  31
HETATM   31  C   UNL     1      -7.651   8.736  64.087  1.00  0.00    -0.122 C  
HETATM   32  C   UNL     1      -6.215   8.227  63.909  1.00  0.00    -0.067 C  
HETATM   33  C   UNL     1      -5.366   8.236  65.179  1.00  0.00    -0.035 C  
HETATM   34  C   UNL     1      -6.078   7.630  66.393  1.00  0.00    -0.044 C  
HETATM   35  C   UNL     1      -7.431   8.319  66.597  1.00  0.00    -0.086 C  
HETATM   36  C   UNL     1      -6.223   6.107  66.284  1.00  0.00    -0.037 C  
HETATM   37  C   UNL     1      -8.327   8.216  65.365  1.00  0.00    -0.163 C  
ENDBRANCH  29  31
ENDBRANCH  27  29
ENDBRANCH  25  27
ENDBRANCH  22  25
ENDBRANCH  19  22
ENDBRANCH  15  16
ENDBRANCH  14  15
ENDBRANCH  12  14
ENDBRANCH  10  12
ENDBRANCH   7  10
ENDBRANCH   2   3
TORSDOF 11
ENDMDL
MODEL      269
REMARK 921   NORMALIZED FREE ENERGY PREDICTED BY IDOCK:   -3.53 KCAL/MOL
REMARK 922        TOTAL FREE ENERGY PREDICTED BY IDOCK:   -8.11 KCAL/MOL
REMARK 923 INTER-LIGAND FREE ENERGY PREDICTED BY IDOCK:   -7.20 KCAL/MOL
REMARK 924 INTRA-LIGAND FREE ENERGY PREDICTED BY IDOCK:   -0.91 KCAL/MOL
REMARK 927      BINDING AFFINITY PREDICTED BY RF-SCORE:    0.00 PKD
ROOT
HETATM    1  C   UNL     1     -12.995  15.346  70.881  1.00  0.00    -0.539 C  
HETATM    2  C   UNL     1     -11.571  15.828  70.649  1.00  0.00    -0.416 C  
ENDROOT
BRANCH   2   3
HETATM    3  C   UNL     1     -11.236  15.879  69.201  1.00  0.00    -0.334 C  
HETATM    4  C   UNL     1     -10.618  16.814  68.466  1.00  0.00    -0.354 C  
HETATM    5  C   UNL     1     -10.508  16.424  67.027  1.00  0.00    -0.291 C  
HETATM    6  C   UNL     1     -10.028  18.096  68.938  1.00  0.00    -0.352 C  
HETATM    7  N   UNL     1     -11.062  15.098  67.030  1.00  0.00    -0.334 N  
HETATM    8  O   UNL     1     -12.191  13.769  68.601  1.00  0.00    -0.347 OA 
HETATM    9  C   UNL     1     -11.570  14.770  68.281  1.00  0.00    -0.323 C  
BRANCH   7  10
HETATM   10  C   UNL     1     -10.866  14.252  65.953  1.00  0.00    -0.300 C  
HETATM   11  O   UNL     1     -11.618  14.240  64.980  1.00  0.00    -0.336 OA 
BRANCH  10  12
HETATM   12  N   UNL     1      -9.749  13.461  66.034  1.00  0.00    -0.414 N  
HETATM   13  H   UNL     1      -9.684  12.648  65.420  1.00  0.00     0.000 HD 
BRANCH  12  14
HETATM   14  C   UNL     1      -8.657  13.724  66.949  1.00  0.00    -0.109 C  
BRANCH  14  15
HETATM   15  C   UNL     1      -8.702  12.846  68.211  1.00  0.00    -0.168 C  
BRANCH  15  16
HETATM   16  C   UNL     1      -8.895  11.363  67.940  1.00  0.00    -0.149 A  
HETATM   17  C   UNL     1      -7.963  10.625  67.197  1.00  0.00    -0.121 A  
HETATM   18  C   UNL     1      -8.180   9.277  66.906  1.00  0.00    -0.119 A  
HETATM   19  C   UNL     1      -9.302   8.620  67.412  1.00  0.00    -0.144 A  
HETATM   20  C   UNL     1     -10.222   9.324  68.195  1.00  0.00    -0.246 A  
HETATM   21  C   UNL     1     -10.012  10.686  68.461  1.00  0.00    -0.176 A  
BRANCH  19  22
HETATM   22  S   UNL     1      -9.632   6.941  66.914  1.00  0.00    -0.169 S  
HETATM   23  O   UNL     1     -11.070   6.761  66.939  1.00  0.00    -0.397 OA 
HETATM   24  O   UNL     1      -8.885   6.657  65.708  1.00  0.00    -0.148 OA 
BRANCH  22  25
HETATM   25  N   UNL     1      -9.055   5.994  68.166  1.00  0.00    -0.119 N  
HETATM   26  H   UNL     1      -8.764   6.456  69.027  1.00  0.00     0.000 HD 
BRANCH  25  27
HETATM   27  C   UNL     1      -8.952   4.618  68.095  1.00  0.00    -0.114 C  
HETATM   28  O   UNL     1      -8.553   3.939  69.028  1.00  0.00    -0.075 OA 
BRANCH  27  29
HETATM   29  N   UNL     1      -9.334   4.069  66.894  1.00  0.00    -0.168 N  
HETATM   30  H   UNL     1     -10.094   4.479  66.352  1.00  0.00     0.000 HD 
BRANCH  29  31
HETATM   31  C   UNL     1      -8.626   2.884  66.415  1.00  0.00    -0.116 C  
HETATM   32  C   UNL     1      -9.345   2.181  65.256  1.00  0.00    -0.014 C  
HETATM   33  C   UNL     1      -9.044   2.750  63.871  1.00  0.00    -0.104 C  
HETATM   34  C   UNL     1      -7.548   2.969  63.614  1.00  0.00    -0.067 C  
HETATM   35  C   UNL     1      -6.950   3.826  64.734  1.00  0.00    -0.050 C  
HETATM   36  C   UNL     1      -6.788   1.649  63.436  1.00  0.00    -0.026 C  
HETATM   37  C   UNL     1      -7.154   3.204  66.114  1.00  0.00    -0.058 C  
ENDBRANCH  29  31
ENDBRANCH  27  29
ENDBRANCH  25  27
ENDBRANCH  22  25
ENDBRANCH  19  22
ENDBRANCH  15  16
ENDBRANCH  14  15
ENDBRANCH  12  14
ENDBRANCH  10  12
ENDBRANCH   7  10
ENDBRANCH   2   3
TORSDOF 11
ENDMDL
MODEL      270
REMARK 921   NORMALIZED FREE ENERGY PREDICTED BY IDOCK:   -3.50 KCAL/MOL
REMARK 922        TOTAL FREE ENERGY PREDICTED BY IDOCK:   -8.06 KCAL/MOL
REMARK 923 INTER-LIGAND FREE ENERGY PREDICTED BY IDOCK:   -6.47 KCAL/MOL
REMARK 924 INTRA-LIGAND FREE ENERGY PREDICTED BY IDOCK:   -1.59 KCAL/MOL
REMARK 927      BINDING AFFINITY PREDICTED BY RF-SCORE:    0.00 PKD
ROOT
HETATM    1  C   UNL     1     -10.063   7.976  66.299  1.00  0.00    -0.041 C  
HETATM    2  C   UNL     1      -9.032   9.056  66.010  1.00  0.00    -0.227 C  
ENDROOT
BRANCH   2   3
HETATM    3  C   UNL     1      -9.629  10.206  65.281  1.00  0.00    -0.338 C  
HETATM    4  C   UNL     1      -9.319  10.768  64.104  1.00  0.00    -0.286 C  
HETATM    5  C   UNL     1     -10.207  11.924  63.775  1.00  0.00    -0.413 C  
HETATM    6  C   UNL     1      -8.271  10.336  63.140  1.00  0.00    -0.163 C  
HETATM    7  N   UNL     1     -11.138  11.913  64.871  1.00  0.00    -0.310 N  
HETATM    8  O   UNL     1     -11.297  10.755  66.906  1.00  0.00    -0.303 OA 
HETATM    9  C   UNL     1     -10.783  10.959  65.817  1.00  0.00    -0.109 C  
BRANCH   7  10
HETATM   10  C   UNL     1     -12.319  12.628  64.797  1.00  0.00    -0.489 C  
HETATM   11  O   UNL     1     -13.327  12.181  64.254  1.00  0.00    -0.761 OA 
BRANCH  10  12
HETATM   12  N   UNL     1     -12.293  13.854  65.412  1.00  0.00    -0.443 N  
HETATM   13  H   UNL     1     -12.083  14.677  64.846  1.00  0.00     0.000 HD 
BRANCH  12  14
HETATM   14  C   UNL     1     -12.549  14.036  66.826  1.00  0.00    -0.032 C  
BRANCH  14  15
HETATM   15  C   UNL     1     -11.394  14.734  67.565  1.00  0.00    -0.355 C  
BRANCH  15  16
HETATM   16  C   UNL     1     -10.101  13.938  67.608  1.00  0.00    -0.241 A  
HETATM   17  C   UNL     1      -8.986  14.304  66.840  1.00  0.00    -0.255 A  
HETATM   18  C   UNL     1      -7.824  13.532  66.845  1.00  0.00     0.255 A  
HETATM   19  C   UNL     1      -7.727  12.413  67.673  1.00  0.00    -0.151 A  
HETATM   20  C   UNL     1      -8.809  12.054  68.482  1.00  0.00    -0.095 A  
HETATM   21  C   UNL     1      -9.986  12.819  68.452  1.00  0.00    -0.210 A  
BRANCH  19  22
HETATM   22  S   UNL     1      -6.291  11.363  67.560  1.00  0.00    -0.079 S  
HETATM   23  O   UNL     1      -5.844  11.395  66.182  1.00  0.00    -0.125 OA 
HETATM   24  O   UNL     1      -5.379  11.704  68.629  1.00  0.00    -0.043 OA 
BRANCH  22  25
HETATM   25  N   UNL     1      -6.867   9.810  67.791  1.00  0.00    -0.080 N  
HETATM   26  H   UNL     1      -7.783   9.572  67.409  1.00  0.00     0.000 HD 
BRANCH  25  27
HETATM   27  C   UNL     1      -6.169   8.831  68.472  1.00  0.00    -0.053 C  
HETATM   28  O   UNL     1      -5.292   8.163  67.948  1.00  0.00    -0.032 OA 
BRANCH  27  29
HETATM   29  N   UNL     1      -6.535   8.667  69.787  1.00  0.00    -0.038 N  
HETATM   30  H   UNL     1      -5.851   8.771  70.536  1.00  0.00     0.000 HD 
BRANCH  29  31
HETATM   31  C   UNL     1      -7.928   8.341  70.086  1.00  0.00    -0.106 C  
HETATM   32  C   UNL     1      -8.228   6.840  69.988  1.00  0.00    -0.134 C  
HETATM   33  C   UNL     1      -7.916   6.037  71.250  1.00  0.00    -0.113 C  
HETATM   34  C   UNL     1      -8.454   6.681  72.532  1.00  0.00    -0.123 C  
HETATM   35  C   UNL     1      -7.962   8.129  72.631  1.00  0.00    -0.199 C  
HETATM   36  C   UNL     1      -9.982   6.590  72.634  1.00  0.00    -0.185 C  
HETATM   37  C   UNL     1      -8.368   8.965  71.419  1.00  0.00    -0.195 C  
ENDBRANCH  29  31
ENDBRANCH  27  29
ENDBRANCH  25  27
ENDBRANCH  22  25
ENDBRANCH  19  22
ENDBRANCH  15  16
ENDBRANCH  14  15
ENDBRANCH  12  14
ENDBRANCH  10  12
ENDBRANCH   7  10
ENDBRANCH   2   3
TORSDOF 11
ENDMDL
MODEL      271
REMARK 921   NORMALIZED FREE ENERGY PREDICTED BY IDOCK:   -3.49 KCAL/MOL
REMARK 922        TOTAL FREE ENERGY PREDICTED BY IDOCK:   -8.03 KCAL/MOL
REMARK 923 INTER-LIGAND FREE ENERGY PREDICTED BY IDOCK:   -5.96 KCAL/MOL
REMARK 924 INTRA-LIGAND FREE ENERGY PREDICTED BY IDOCK:   -2.07 KCAL/MOL
REMARK 927      BINDING AFFINITY PREDICTED BY RF-SCORE:    0.00 PKD
ROOT
HETATM    1  C   UNL     1     -10.899   7.572  67.015  1.00  0.00    -0.264 C  
HETATM    2  C   UNL     1      -9.818   8.643  66.996  1.00  0.00    -0.284 C  
ENDROOT
BRANCH   2   3
HETATM    3  C   UNL     1     -10.074   9.665  65.946  1.00  0.00    -0.304 C  
HETATM    4  C   UNL     1      -9.507   9.867  64.748  1.00  0.00    -0.356 C  
HETATM    5  C   UNL     1     -10.097  11.039  64.032  1.00  0.00    -0.350 C  
HETATM    6  C   UNL     1      -8.450   9.048  64.094  1.00  0.00    -0.183 C  
HETATM    7  N   UNL     1     -11.145  11.446  64.927  1.00  0.00    -0.217 N  
HETATM    8  O   UNL     1     -11.796  10.856  67.104  1.00  0.00    -0.310 OA 
HETATM    9  C   UNL     1     -11.115  10.703  66.102  1.00  0.00     0.203 C  
BRANCH   7  10
HETATM   10  C   UNL     1     -12.140  12.306  64.500  1.00  0.00    -0.383 C  
HETATM   11  O   UNL     1     -13.126  11.915  63.879  1.00  0.00    -0.628 OA 
BRANCH  10  12
HETATM   12  N   UNL     1     -11.963  13.618  64.857  1.00  0.00    -0.365 N  
HETATM   13  H   UNL     1     -11.523  14.249  64.187  1.00  0.00     0.000 HD 
BRANCH  12  14
HETATM   14  C   UNL     1     -12.372  14.151  66.141  1.00  0.00    -0.436 C  
BRANCH  14  15
HETATM   15  C   UNL     1     -11.230  14.854  66.895  1.00  0.00    -0.343 C  
BRANCH  15  16
HETATM   16  C   UNL     1     -10.155  13.919  67.425  1.00  0.00    -0.244 A  
HETATM   17  C   UNL     1      -8.887  13.846  66.830  1.00  0.00    -0.210 A  
HETATM   18  C   UNL     1      -7.928  12.942  67.291  1.00  0.00    -0.151 A  
HETATM   19  C   UNL     1      -8.193  12.140  68.401  1.00  0.00    -0.145 A  
HETATM   20  C   UNL     1      -9.434  12.229  69.038  1.00  0.00     0.345 A  
HETATM   21  C   UNL     1     -10.405  13.120  68.554  1.00  0.00    -0.245 A  
BRANCH  19  22
HETATM   22  S   UNL     1      -7.011  10.897  68.885  1.00  0.00    -0.094 S  
HETATM   23  O   UNL     1      -5.704  11.521  68.874  1.00  0.00    -0.046 OA 
HETATM   24  O   UNL     1      -7.492  10.236  70.079  1.00  0.00    -0.163 OA 
BRANCH  22  25
HETATM   25  N   UNL     1      -6.981   9.807  67.617  1.00  0.00    -0.085 N  
HETATM   26  H   UNL     1      -7.459  10.060  66.751  1.00  0.00     0.000 HD 
BRANCH  25  27
HETATM   27  C   UNL     1      -6.345   8.583  67.679  1.00  0.00    -0.053 C  
HETATM   28  O   UNL     1      -5.168   8.467  67.982  1.00  0.00    -0.033 OA 
BRANCH  27  29
HETATM   29  N   UNL     1      -7.137   7.501  67.375  1.00  0.00    -0.083 N  
HETATM   30  H   UNL     1      -8.153   7.567  67.428  1.00  0.00     0.000 HD 
BRANCH  29  31
HETATM   31  C   UNL     1      -6.488   6.255  66.973  1.00  0.00    -0.050 C  
HETATM   32  C   UNL     1      -7.028   5.028  67.720  1.00  0.00    -0.061 C  
HETATM   33  C   UNL     1      -8.284   4.406  67.112  1.00  0.00    -0.101 C  
HETATM   34  C   UNL     1      -8.192   4.202  65.596  1.00  0.00    -0.109 C  
HETATM   35  C   UNL     1      -7.814   5.523  64.917  1.00  0.00    -0.104 C  
HETATM   36  C   UNL     1      -7.229   3.070  65.218  1.00  0.00    -0.066 C  
HETATM   37  C   UNL     1      -6.500   6.093  65.446  1.00  0.00    -0.039 C  
ENDBRANCH  29  31
ENDBRANCH  27  29
ENDBRANCH  25  27
ENDBRANCH  22  25
ENDBRANCH  19  22
ENDBRANCH  15  16
ENDBRANCH  14  15
ENDBRANCH  12  14
ENDBRANCH  10  12
ENDBRANCH   7  10
ENDBRANCH   2   3
TORSDOF 11
ENDMDL
MODEL      272
REMARK 921   NORMALIZED FREE ENERGY PREDICTED BY IDOCK:   -3.48 KCAL/MOL
REMARK 922        TOTAL FREE ENERGY PREDICTED BY IDOCK:   -8.03 KCAL/MOL
REMARK 923 INTER-LIGAND FREE ENERGY PREDICTED BY IDOCK:   -6.32 KCAL/MOL
REMARK 924 INTRA-LIGAND FREE ENERGY PREDICTED BY IDOCK:   -1.70 KCAL/MOL
REMARK 927      BINDING AFFINITY PREDICTED BY RF-SCORE:    0.00 PKD
ROOT
HETATM    1  C   UNL     1     -10.691   3.951  63.980  1.00  0.00    -0.226 C  
HETATM    2  C   UNL     1      -9.445   3.399  64.656  1.00  0.00    -0.154 C  
ENDROOT
BRANCH   2   3
HETATM    3  C   UNL     1      -8.840   4.390  65.586  1.00  0.00    -0.124 C  
HETATM    4  C   UNL     1      -8.929   4.526  66.917  1.00  0.00    -0.117 C  
HETATM    5  C   UNL     1      -8.140   5.691  67.422  1.00  0.00    -0.102 C  
HETATM    6  C   UNL     1      -9.654   3.647  67.873  1.00  0.00    -0.180 C  
HETATM    7  N   UNL     1      -7.504   6.168  66.224  1.00  0.00    -0.084 N  
HETATM    8  O   UNL     1      -7.689   5.684  63.935  1.00  0.00    -0.081 OA 
HETATM    9  C   UNL     1      -7.950   5.470  65.109  1.00  0.00    -0.110 C  
BRANCH   7  10
HETATM   10  C   UNL     1      -6.438   7.047  66.297  1.00  0.00    -0.051 C  
HETATM   11  O   UNL     1      -5.270   6.664  66.330  1.00  0.00    -0.016 OA 
BRANCH  10  12
HETATM   12  N   UNL     1      -6.781   8.375  66.287  1.00  0.00    -0.064 N  
HETATM   13  H   UNL     1      -7.771   8.621  66.296  1.00  0.00     0.000 HD 
BRANCH  12  14
HETATM   14  C   UNL     1      -5.804   9.444  66.265  1.00  0.00    -0.058 C  
BRANCH  14  15
HETATM   15  C   UNL     1      -5.536  10.047  67.655  1.00  0.00    -0.042 C  
BRANCH  15  16
HETATM   16  C   UNL     1      -6.157  11.416  67.878  1.00  0.00    -0.050 A  
HETATM   17  C   UNL     1      -7.233  11.870  67.101  1.00  0.00    -0.144 A  
HETATM   18  C   UNL     1      -7.757  13.152  67.277  1.00  0.00    -0.107 A  
HETATM   19  C   UNL     1      -7.261  13.982  68.282  1.00  0.00    -0.114 A  
HETATM   20  C   UNL     1      -6.220  13.534  69.099  1.00  0.00    -0.097 A  
HETATM   21  C   UNL     1      -5.678  12.255  68.900  1.00  0.00    -0.060 A  
BRANCH  19  22
HETATM   22  S   UNL     1      -7.847  15.662  68.398  1.00  0.00    -0.132 S  
HETATM   23  O   UNL     1      -6.896  16.393  69.210  1.00  0.00    -0.199 OA 
HETATM   24  O   UNL     1      -8.183  16.131  67.072  1.00  0.00    -0.177 OA 
BRANCH  22  25
HETATM   25  N   UNL     1      -9.234  15.576  69.329  1.00  0.00    -0.254 N  
HETATM   26  H   UNL     1      -9.136  15.580  70.345  1.00  0.00     0.000 HD 
BRANCH  25  27
HETATM   27  C   UNL     1     -10.506  15.500  68.796  1.00  0.00    -0.234 C  
HETATM   28  O   UNL     1     -11.330  16.392  68.927  1.00  0.00    -0.332 OA 
BRANCH  27  29
HETATM   29  N   UNL     1     -10.776  14.343  68.103  1.00  0.00    -0.232 N  
HETATM   30  H   UNL     1     -10.351  13.458  68.379  1.00  0.00     0.000 HD 
BRANCH  29  31
HETATM   31  C   UNL     1     -11.686  14.412  66.962  1.00  0.00    -0.399 C  
HETATM   32  C   UNL     1     -11.069  15.105  65.741  1.00  0.00    -0.330 C  
HETATM   33  C   UNL     1     -10.233  14.198  64.840  1.00  0.00    -0.371 C  
HETATM   34  C   UNL     1     -10.923  12.871  64.501  1.00  0.00    -0.377 C  
HETATM   35  C   UNL     1     -11.354  12.167  65.792  1.00  0.00    -0.402 C  
HETATM   36  C   UNL     1     -12.097  13.056  63.532  1.00  0.00    -0.617 C  
HETATM   37  C   UNL     1     -12.280  13.032  66.644  1.00  0.00    -0.285 C  
ENDBRANCH  29  31
ENDBRANCH  27  29
ENDBRANCH  25  27
ENDBRANCH  22  25
ENDBRANCH  19  22
ENDBRANCH  15  16
ENDBRANCH  14  15
ENDBRANCH  12  14
ENDBRANCH  10  12
ENDBRANCH   7  10
ENDBRANCH   2   3
TORSDOF 11
ENDMDL
MODEL      273
REMARK 921   NORMALIZED FREE ENERGY PREDICTED BY IDOCK:   -3.45 KCAL/MOL
REMARK 922        TOTAL FREE ENERGY PREDICTED BY IDOCK:   -7.97 KCAL/MOL
REMARK 923 INTER-LIGAND FREE ENERGY PREDICTED BY IDOCK:   -6.70 KCAL/MOL
REMARK 924 INTRA-LIGAND FREE ENERGY PREDICTED BY IDOCK:   -1.27 KCAL/MOL
REMARK 927      BINDING AFFINITY PREDICTED BY RF-SCORE:    0.00 PKD
ROOT
HETATM    1  C   UNL     1     -11.731  12.305  65.472  1.00  0.00    -0.433 C  
HETATM    2  C   UNL     1     -12.246  13.677  65.880  1.00  0.00    -0.502 C  
ENDROOT
BRANCH   2   3
HETATM    3  C   UNL     1     -11.386  14.300  66.921  1.00  0.00    -0.354 C  
HETATM    4  C   UNL     1     -11.429  14.238  68.261  1.00  0.00    -0.334 C  
HETATM    5  C   UNL     1     -10.346  15.045  68.901  1.00  0.00    -0.244 C  
HETATM    6  C   UNL     1     -12.366  13.447  69.103  1.00  0.00    -0.050 C  
HETATM    7  N   UNL     1      -9.607  15.518  67.762  1.00  0.00    -0.209 N  
HETATM    8  O   UNL     1      -9.928  15.481  65.437  1.00  0.00    -0.337 OA 
HETATM    9  C   UNL     1     -10.234  15.159  66.575  1.00  0.00    -0.276 C  
BRANCH   7  10
HETATM   10  C   UNL     1      -8.339  16.048  67.918  1.00  0.00    -0.153 C  
HETATM   11  O   UNL     1      -8.138  17.116  68.493  1.00  0.00    -0.241 OA 
BRANCH  10  12
HETATM   12  N   UNL     1      -7.323  15.274  67.420  1.00  0.00    -0.200 N  
HETATM   13  H   UNL     1      -6.870  15.565  66.553  1.00  0.00     0.000 HD 
BRANCH  12  14
HETATM   14  C   UNL     1      -6.861  14.062  68.067  1.00  0.00    -0.145 C  
BRANCH  14  15
HETATM   15  C   UNL     1      -7.375  12.781  67.387  1.00  0.00    -0.135 C  
BRANCH  15  16
HETATM   16  C   UNL     1      -7.953  11.750  68.341  1.00  0.00    -0.147 A  
HETATM   17  C   UNL     1      -9.314  11.413  68.321  1.00  0.00    -0.187 A  
HETATM   18  C   UNL     1      -9.844  10.506  69.241  1.00  0.00    -0.225 A  
HETATM   19  C   UNL     1      -9.010   9.865  70.156  1.00  0.00    -0.114 A  
HETATM   20  C   UNL     1      -7.641  10.150  70.164  1.00  0.00    -0.119 A  
HETATM   21  C   UNL     1      -7.118  11.083  69.256  1.00  0.00    -0.123 A  
BRANCH  19  22
HETATM   22  S   UNL     1      -9.726   8.820  71.411  1.00  0.00    -0.304 S  
HETATM   23  O   UNL     1      -8.870   8.901  72.577  1.00  0.00    -0.381 OA 
HETATM   24  O   UNL     1     -11.136   9.123  71.521  1.00  0.00    -0.313 OA 
BRANCH  22  25
HETATM   25  N   UNL     1      -9.533   7.259  70.840  1.00  0.00    -0.160 N  
HETATM   26  H   UNL     1      -9.570   6.491  71.511  1.00  0.00     0.000 HD 
BRANCH  25  27
HETATM   27  C   UNL     1      -9.326   6.955  69.509  1.00  0.00    -0.147 C  
HETATM   28  O   UNL     1     -10.238   6.882  68.700  1.00  0.00    -0.160 OA 
BRANCH  27  29
HETATM   29  N   UNL     1      -8.013   6.743  69.160  1.00  0.00    -0.111 N  
HETATM   30  H   UNL     1      -7.449   7.496  68.769  1.00  0.00     0.000 HD 
BRANCH  29  31
HETATM   31  C   UNL     1      -7.446   5.412  69.364  1.00  0.00    -0.070 C  
HETATM   32  C   UNL     1      -6.436   5.358  70.517  1.00  0.00    -0.031 C  
HETATM   33  C   UNL     1      -7.049   5.155  71.901  1.00  0.00    -0.075 C  
HETATM   34  C   UNL     1      -8.086   4.028  71.950  1.00  0.00    -0.084 C  
HETATM   35  C   UNL     1      -9.151   4.256  70.873  1.00  0.00    -0.186 C  
HETATM   36  C   UNL     1      -7.444   2.640  71.832  1.00  0.00    -0.044 C  
HETATM   37  C   UNL     1      -8.551   4.350  69.472  1.00  0.00    -0.104 C  
ENDBRANCH  29  31
ENDBRANCH  27  29
ENDBRANCH  25  27
ENDBRANCH  22  25
ENDBRANCH  19  22
ENDBRANCH  15  16
ENDBRANCH  14  15
ENDBRANCH  12  14
ENDBRANCH  10  12
ENDBRANCH   7  10
ENDBRANCH   2   3
TORSDOF 11
ENDMDL
MODEL      274
REMARK 921   NORMALIZED FREE ENERGY PREDICTED BY IDOCK:   -3.42 KCAL/MOL
REMARK 922        TOTAL FREE ENERGY PREDICTED BY IDOCK:   -7.93 KCAL/MOL
REMARK 923 INTER-LIGAND FREE ENERGY PREDICTED BY IDOCK:   -6.45 KCAL/MOL
REMARK 924 INTRA-LIGAND FREE ENERGY PREDICTED BY IDOCK:   -1.48 KCAL/MOL
REMARK 927      BINDING AFFINITY PREDICTED BY RF-SCORE:    0.00 PKD
ROOT
HETATM    1  C   UNL     1      -9.929   7.727  67.378  1.00  0.00    -0.257 C  
HETATM    2  C   UNL     1      -9.236   7.563  66.034  1.00  0.00    -0.102 C  
ENDROOT
BRANCH   2   3
HETATM    3  C   UNL     1      -9.014   8.873  65.366  1.00  0.00    -0.232 C  
HETATM    4  C   UNL     1      -8.011   9.317  64.593  1.00  0.00    -0.125 C  
HETATM    5  C   UNL     1      -8.222  10.727  64.146  1.00  0.00     0.116 C  
HETATM    6  C   UNL     1      -6.816   8.559  64.135  1.00  0.00    -0.075 C  
HETATM    7  N   UNL     1      -9.522  11.025  64.682  1.00  0.00    -0.227 N  
HETATM    8  O   UNL     1     -11.004   9.947  66.147  1.00  0.00     0.174 OA 
HETATM    9  C   UNL     1      -9.989   9.980  65.470  1.00  0.00    -0.296 C  
BRANCH   7  10
HETATM   10  C   UNL     1     -10.231  12.125  64.235  1.00  0.00    -0.324 C  
HETATM   11  O   UNL     1     -11.147  12.032  63.421  1.00  0.00    -0.410 OA 
BRANCH  10  12
HETATM   12  N   UNL     1      -9.862  13.320  64.799  1.00  0.00    -0.593 N  
HETATM   13  H   UNL     1      -8.935  13.691  64.589  1.00  0.00     0.000 HD 
BRANCH  12  14
HETATM   14  C   UNL     1     -10.726  14.080  65.679  1.00  0.00    -0.303 C  
BRANCH  14  15
HETATM   15  C   UNL     1     -10.089  14.370  67.049  1.00  0.00    -0.256 C  
BRANCH  15  16
HETATM   16  C   UNL     1      -9.138  13.292  67.543  1.00  0.00    -0.208 A  
HETATM   17  C   UNL     1      -7.755  13.377  67.326  1.00  0.00    -0.092 A  
HETATM   18  C   UNL     1      -6.899  12.353  67.734  1.00  0.00    -0.113 A  
HETATM   19  C   UNL     1      -7.400  11.252  68.429  1.00  0.00    -0.097 A  
HETATM   20  C   UNL     1      -8.769  11.168  68.697  1.00  0.00    -0.153 A  
HETATM   21  C   UNL     1      -9.630  12.187  68.261  1.00  0.00    -0.210 A  
BRANCH  19  22
HETATM   22  S   UNL     1      -6.314   9.892  68.816  1.00  0.00    -0.045 S  
HETATM   23  O   UNL     1      -6.063   9.180  67.579  1.00  0.00    -0.049 OA 
HETATM   24  O   UNL     1      -5.209  10.388  69.607  1.00  0.00    -0.038 OA 
BRANCH  22  25
HETATM   25  N   UNL     1      -7.237   8.846  69.738  1.00  0.00    -0.053 N  
HETATM   26  H   UNL     1      -7.636   8.024  69.284  1.00  0.00     0.000 HD 
BRANCH  25  27
HETATM   27  C   UNL     1      -7.488   9.035  71.083  1.00  0.00    -0.095 C  
HETATM   28  O   UNL     1      -6.623   9.381  71.873  1.00  0.00    -0.297 OA 
BRANCH  27  29
HETATM   29  N   UNL     1      -8.788   8.807  71.468  1.00  0.00    -0.220 N  
HETATM   30  H   UNL     1      -9.549   9.378  71.101  1.00  0.00     0.000 HD 
BRANCH  29  31
HETATM   31  C   UNL     1      -9.053   7.726  72.415  1.00  0.00    -0.155 C  
HETATM   32  C   UNL     1     -10.335   7.940  73.229  1.00  0.00    -0.280 C  
HETATM   33  C   UNL     1     -11.617   7.468  72.547  1.00  0.00    -0.352 C  
HETATM   34  C   UNL     1     -11.508   6.062  71.947  1.00  0.00    -0.328 C  
HETATM   35  C   UNL     1     -10.295   5.990  71.013  1.00  0.00    -0.270 C  
HETATM   36  C   UNL     1     -11.464   4.971  73.024  1.00  0.00    -0.344 C  
HETATM   37  C   UNL     1      -8.993   6.356  71.722  1.00  0.00    -0.139 C  
ENDBRANCH  29  31
ENDBRANCH  27  29
ENDBRANCH  25  27
ENDBRANCH  22  25
ENDBRANCH  19  22
ENDBRANCH  15  16
ENDBRANCH  14  15
ENDBRANCH  12  14
ENDBRANCH  10  12
ENDBRANCH   7  10
ENDBRANCH   2   3
TORSDOF 11
ENDMDL
MODEL      275
REMARK 921   NORMALIZED FREE ENERGY PREDICTED BY IDOCK:   -3.39 KCAL/MOL
REMARK 922        TOTAL FREE ENERGY PREDICTED BY IDOCK:   -7.88 KCAL/MOL
REMARK 923 INTER-LIGAND FREE ENERGY PREDICTED BY IDOCK:   -6.27 KCAL/MOL
REMARK 924 INTRA-LIGAND FREE ENERGY PREDICTED BY IDOCK:   -1.60 KCAL/MOL
REMARK 927      BINDING AFFINITY PREDICTED BY RF-SCORE:    0.00 PKD
ROOT
HETATM    1  C   UNL     1     -13.901   9.828  71.765  1.00  0.00    -0.214 C  
HETATM    2  C   UNL     1     -12.446  10.264  71.679  1.00  0.00    -0.491 C  
ENDROOT
BRANCH   2   3
HETATM    3  C   UNL     1     -11.585   9.196  71.105  1.00  0.00    -0.386 C  
HETATM    4  C   UNL     1     -11.076   9.033  69.875  1.00  0.00    -0.155 C  
HETATM    5  C   UNL     1     -10.260   7.786  69.760  1.00  0.00    -0.211 C  
HETATM    6  C   UNL     1     -11.203   9.951  68.711  1.00  0.00    -0.122 C  
HETATM    7  N   UNL     1     -10.283   7.283  71.107  1.00  0.00    -0.191 N  
HETATM    8  O   UNL     1     -11.435   7.844  73.073  1.00  0.00    -0.383 OA 
HETATM    9  C   UNL     1     -11.116   8.050  71.912  1.00  0.00    -0.276 C  
BRANCH   7  10
HETATM   10  C   UNL     1      -9.390   6.306  71.507  1.00  0.00    -0.148 C  
HETATM   11  O   UNL     1      -9.599   5.580  72.477  1.00  0.00    -0.149 OA 
BRANCH  10  12
HETATM   12  N   UNL     1      -8.275   6.182  70.718  1.00  0.00    -0.123 N  
HETATM   13  H   UNL     1      -7.549   6.896  70.787  1.00  0.00     0.000 HD 
BRANCH  12  14
HETATM   14  C   UNL     1      -8.080   5.086  69.791  1.00  0.00    -0.074 C  
BRANCH  14  15
HETATM   15  C   UNL     1      -6.783   5.210  68.973  1.00  0.00    -0.053 C  
BRANCH  15  16
HETATM   16  C   UNL     1      -6.896   6.096  67.744  1.00  0.00    -0.063 A  
HETATM   17  C   UNL     1      -8.105   6.235  67.047  1.00  0.00    -0.109 A  
HETATM   18  C   UNL     1      -8.182   7.007  65.886  1.00  0.00    -0.133 A  
HETATM   19  C   UNL     1      -7.066   7.712  65.436  1.00  0.00    -0.063 A  
HETATM   20  C   UNL     1      -5.862   7.626  66.140  1.00  0.00    -0.037 A  
HETATM   21  C   UNL     1      -5.782   6.827  67.291  1.00  0.00    -0.013 A  
BRANCH  19  22
HETATM   22  S   UNL     1      -7.147   8.576  63.878  1.00  0.00    -0.093 S  
HETATM   23  O   UNL     1      -6.410   9.814  64.036  1.00  0.00    -0.104 OA 
HETATM   24  O   UNL     1      -6.804   7.656  62.816  1.00  0.00    -0.069 OA 
BRANCH  22  25
HETATM   25  N   UNL     1      -8.746   9.042  63.721  1.00  0.00    -0.397 N  
HETATM   26  H   UNL     1      -9.468   8.327  63.813  1.00  0.00     0.000 HD 
BRANCH  25  27
HETATM   27  C   UNL     1      -9.140  10.342  63.474  1.00  0.00    -0.264 C  
HETATM   28  O   UNL     1      -9.274  10.786  62.344  1.00  0.00    -0.272 OA 
BRANCH  27  29
HETATM   29  N   UNL     1      -9.374  11.100  64.597  1.00  0.00    -0.301 N  
HETATM   30  H   UNL     1      -9.089  10.770  65.518  1.00  0.00     0.000 HD 
BRANCH  29  31
HETATM   31  C   UNL     1     -10.041  12.391  64.438  1.00  0.00    -0.267 C  
HETATM   32  C   UNL     1     -11.569  12.293  64.530  1.00  0.00    -0.418 C  
HETATM   33  C   UNL     1     -12.132  12.335  65.950  1.00  0.00    -0.261 C  
HETATM   34  C   UNL     1     -11.543  13.461  66.807  1.00  0.00    -0.404 C  
HETATM   35  C   UNL     1     -10.013  13.376  66.793  1.00  0.00    -0.264 C  
HETATM   36  C   UNL     1     -12.041  14.845  66.374  1.00  0.00     0.002 C  
HETATM   37  C   UNL     1      -9.439  13.444  65.380  1.00  0.00     0.234 C  
ENDBRANCH  29  31
ENDBRANCH  27  29
ENDBRANCH  25  27
ENDBRANCH  22  25
ENDBRANCH  19  22
ENDBRANCH  15  16
ENDBRANCH  14  15
ENDBRANCH  12  14
ENDBRANCH  10  12
ENDBRANCH   7  10
ENDBRANCH   2   3
TORSDOF 11
ENDMDL
MODEL      276
REMARK 921   NORMALIZED FREE ENERGY PREDICTED BY IDOCK:   -3.38 KCAL/MOL
REMARK 922        TOTAL FREE ENERGY PREDICTED BY IDOCK:   -7.86 KCAL/MOL
REMARK 923 INTER-LIGAND FREE ENERGY PREDICTED BY IDOCK:   -6.85 KCAL/MOL
REMARK 924 INTRA-LIGAND FREE ENERGY PREDICTED BY IDOCK:   -1.00 KCAL/MOL
REMARK 927      BINDING AFFINITY PREDICTED BY RF-SCORE:    0.00 PKD
ROOT
HETATM    1  C   UNL     1     -10.743  11.394  65.277  1.00  0.00    -0.326 C  
HETATM    2  C   UNL     1     -10.256  10.505  64.142  1.00  0.00    -0.287 C  
ENDROOT
BRANCH   2   3
HETATM    3  C   UNL     1      -9.176   9.586  64.589  1.00  0.00    -0.247 C  
HETATM    4  C   UNL     1      -7.925   9.403  64.140  1.00  0.00    -0.134 C  
HETATM    5  C   UNL     1      -7.196   8.348  64.908  1.00  0.00    -0.084 C  
HETATM    6  C   UNL     1      -7.234  10.144  63.052  1.00  0.00    -0.136 C  
HETATM    7  N   UNL     1      -8.151   7.998  65.924  1.00  0.00    -0.110 N  
HETATM    8  O   UNL     1     -10.403   8.512  66.339  1.00  0.00    -0.246 OA 
HETATM    9  C   UNL     1      -9.359   8.656  65.723  1.00  0.00    -0.158 C  
BRANCH   7  10
HETATM   10  C   UNL     1      -7.760   7.277  67.038  1.00  0.00    -0.111 C  
HETATM   11  O   UNL     1      -7.389   6.108  66.969  1.00  0.00    -0.080 OA 
BRANCH  10  12
HETATM   12  N   UNL     1      -7.778   7.978  68.217  1.00  0.00    -0.115 N  
HETATM   13  H   UNL     1      -8.111   7.507  69.058  1.00  0.00     0.000 HD 
BRANCH  12  14
HETATM   14  C   UNL     1      -7.345   9.357  68.324  1.00  0.00    -0.078 C  
BRANCH  14  15
HETATM   15  C   UNL     1      -8.188  10.179  69.315  1.00  0.00    -0.156 C  
BRANCH  15  16
HETATM   16  C   UNL     1      -8.767  11.460  68.738  1.00  0.00    -0.080 A  
HETATM   17  C   UNL     1     -10.047  11.912  69.091  1.00  0.00     0.148 A  
HETATM   18  C   UNL     1     -10.591  13.059  68.510  1.00  0.00    -0.274 A  
HETATM   19  C   UNL     1      -9.838  13.818  67.614  1.00  0.00    -0.234 A  
HETATM   20  C   UNL     1      -8.542  13.412  67.282  1.00  0.00    -0.216 A  
HETATM   21  C   UNL     1      -8.010  12.243  67.848  1.00  0.00    -0.152 A  
BRANCH  19  22
HETATM   22  S   UNL     1     -10.599  15.197  66.780  1.00  0.00    -0.302 S  
HETATM   23  O   UNL     1     -10.515  14.936  65.357  1.00  0.00    -0.327 OA 
HETATM   24  O   UNL     1     -11.880  15.464  67.396  1.00  0.00    -0.152 OA 
BRANCH  22  25
HETATM   25  N   UNL     1      -9.570  16.489  67.044  1.00  0.00    -0.237 N  
HETATM   26  H   UNL     1      -8.653  16.475  66.598  1.00  0.00     0.000 HD 
BRANCH  25  27
HETATM   27  C   UNL     1      -9.897  17.573  67.834  1.00  0.00    -0.293 C  
HETATM   28  O   UNL     1     -10.987  18.120  67.785  1.00  0.00    -0.315 OA 
BRANCH  27  29
HETATM   29  N   UNL     1      -8.901  17.991  68.686  1.00  0.00    -0.291 N  
HETATM   30  H   UNL     1      -8.654  17.442  69.509  1.00  0.00     0.000 HD 
BRANCH  29  31
HETATM   31  C   UNL     1      -8.206  19.239  68.383  1.00  0.00    -0.347 C  
HETATM   32  C   UNL     1      -6.810  19.319  69.014  1.00  0.00    -0.372 C  
HETATM   33  C   UNL     1      -5.697  18.665  68.198  1.00  0.00    -0.191 C  
HETATM   34  C   UNL     1      -5.716  19.055  66.716  1.00  0.00    -0.167 C  
HETATM   35  C   UNL     1      -7.103  18.781  66.126  1.00  0.00    -0.290 C  
HETATM   36  C   UNL     1      -5.276  20.507  66.490  1.00  0.00    -0.182 C  
HETATM   37  C   UNL     1      -8.210  19.522  66.873  1.00  0.00    -0.310 C  
ENDBRANCH  29  31
ENDBRANCH  27  29
ENDBRANCH  25  27
ENDBRANCH  22  25
ENDBRANCH  19  22
ENDBRANCH  15  16
ENDBRANCH  14  15
ENDBRANCH  12  14
ENDBRANCH  10  12
ENDBRANCH   7  10
ENDBRANCH   2   3
TORSDOF 11
ENDMDL
MODEL      277
REMARK 921   NORMALIZED FREE ENERGY PREDICTED BY IDOCK:   -3.36 KCAL/MOL
REMARK 922        TOTAL FREE ENERGY PREDICTED BY IDOCK:   -7.83 KCAL/MOL
REMARK 923 INTER-LIGAND FREE ENERGY PREDICTED BY IDOCK:   -6.51 KCAL/MOL
REMARK 924 INTRA-LIGAND FREE ENERGY PREDICTED BY IDOCK:   -1.32 KCAL/MOL
REMARK 927      BINDING AFFINITY PREDICTED BY RF-SCORE:    0.00 PKD
ROOT
HETATM    1  C   UNL     1      -5.211  15.477  71.153  1.00  0.00    -0.104 C  
HETATM    2  C   UNL     1      -5.468  16.012  69.752  1.00  0.00    -0.137 C  
ENDROOT
BRANCH   2   3
HETATM    3  C   UNL     1      -6.829  15.660  69.269  1.00  0.00    -0.164 C  
HETATM    4  C   UNL     1      -7.823  16.419  68.785  1.00  0.00    -0.220 C  
HETATM    5  C   UNL     1      -9.030  15.614  68.428  1.00  0.00    -0.185 C  
HETATM    6  C   UNL     1      -7.808  17.887  68.542  1.00  0.00    -0.301 C  
HETATM    7  N   UNL     1      -8.585  14.271  68.682  1.00  0.00    -0.171 N  
HETATM    8  O   UNL     1      -6.690  13.306  69.675  1.00  0.00    -0.051 OA 
HETATM    9  C   UNL     1      -7.316  14.264  69.249  1.00  0.00    -0.053 C  
BRANCH   7  10
HETATM   10  C   UNL     1      -9.292  13.190  68.186  1.00  0.00    -0.217 C  
HETATM   11  O   UNL     1      -9.488  12.173  68.847  1.00  0.00    -0.008 OA 
BRANCH  10  12
HETATM   12  N   UNL     1      -9.792  13.357  66.920  1.00  0.00    -0.249 N  
HETATM   13  H   UNL     1      -9.135  13.527  66.157  1.00  0.00     0.000 HD 
BRANCH  12  14
HETATM   14  C   UNL     1     -11.207  13.304  66.614  1.00  0.00    -0.306 C  
BRANCH  14  15
HETATM   15  C   UNL     1     -11.562  12.216  65.585  1.00  0.00    -0.409 C  
BRANCH  15  16
HETATM   16  C   UNL     1     -10.786  10.920  65.745  1.00  0.00    -0.179 A  
HETATM   17  C   UNL     1     -10.997  10.068  66.839  1.00  0.00    -0.070 A  
HETATM   18  C   UNL     1     -10.237   8.909  67.005  1.00  0.00    -0.345 A  
HETATM   19  C   UNL     1      -9.297   8.541  66.042  1.00  0.00    -0.199 A  
HETATM   20  C   UNL     1      -9.102   9.350  64.920  1.00  0.00    -0.258 A  
HETATM   21  C   UNL     1      -9.849  10.529  64.772  1.00  0.00    -0.387 A  
BRANCH  19  22
HETATM   22  S   UNL     1      -8.242   7.135  66.342  1.00  0.00    -0.126 S  
HETATM   23  O   UNL     1      -7.760   6.679  65.054  1.00  0.00    -0.089 OA 
HETATM   24  O   UNL     1      -7.306   7.471  67.392  1.00  0.00    -0.093 OA 
BRANCH  22  25
HETATM   25  N   UNL     1      -9.268   5.925  66.872  1.00  0.00    -0.121 N  
HETATM   26  H   UNL     1      -9.972   5.570  66.225  1.00  0.00     0.000 HD 
BRANCH  25  27
HETATM   27  C   UNL     1      -9.213   5.382  68.141  1.00  0.00    -0.111 C  
HETATM   28  O   UNL     1      -9.416   4.197  68.359  1.00  0.00    -0.145 OA 
BRANCH  27  29
HETATM   29  N   UNL     1      -8.908   6.274  69.141  1.00  0.00    -0.128 N  
HETATM   30  H   UNL     1      -8.169   6.965  69.017  1.00  0.00     0.000 HD 
BRANCH  29  31
HETATM   31  C   UNL     1      -9.670   6.209  70.387  1.00  0.00    -0.169 C  
HETATM   32  C   UNL     1      -9.111   7.125  71.483  1.00  0.00    -0.143 C  
HETATM   33  C   UNL     1      -9.599   8.571  71.424  1.00  0.00    -0.282 C  
HETATM   34  C   UNL     1     -11.116   8.696  71.244  1.00  0.00    -0.336 C  
HETATM   35  C   UNL     1     -11.561   7.885  70.023  1.00  0.00     0.143 C  
HETATM   36  C   UNL     1     -11.888   8.297  72.507  1.00  0.00    -0.439 C  
HETATM   37  C   UNL     1     -11.170   6.413  70.128  1.00  0.00    -0.454 C  
ENDBRANCH  29  31
ENDBRANCH  27  29
ENDBRANCH  25  27
ENDBRANCH  22  25
ENDBRANCH  19  22
ENDBRANCH  15  16
ENDBRANCH  14  15
ENDBRANCH  12  14
ENDBRANCH  10  12
ENDBRANCH   7  10
ENDBRANCH   2   3
TORSDOF 11
ENDMDL
MODEL      278
REMARK 921   NORMALIZED FREE ENERGY PREDICTED BY IDOCK:   -3.31 KCAL/MOL
REMARK 922        TOTAL FREE ENERGY PREDICTED BY IDOCK:   -7.75 KCAL/MOL
REMARK 923 INTER-LIGAND FREE ENERGY PREDICTED BY IDOCK:   -8.46 KCAL/MOL
REMARK 924 INTRA-LIGAND FREE ENERGY PREDICTED BY IDOCK:    0.71 KCAL/MOL
REMARK 927      BINDING AFFINITY PREDICTED BY RF-SCORE:    0.00 PKD
ROOT
HETATM    1  C   UNL     1      -9.023   6.601  65.717  1.00  0.00    -0.050 C  
HETATM    2  C   UNL     1     -10.148   7.393  66.366  1.00  0.00    -0.068 C  
ENDROOT
BRANCH   2   3
HETATM    3  C   UNL     1      -9.654   8.227  67.495  1.00  0.00    -0.194 C  
HETATM    4  C   UNL     1      -9.315   9.523  67.559  1.00  0.00    -0.146 C  
HETATM    5  C   UNL     1      -8.862   9.924  68.925  1.00  0.00    -0.145 C  
HETATM    6  C   UNL     1      -9.396  10.537  66.472  1.00  0.00    -0.189 C  
HETATM    7  N   UNL     1      -9.063   8.716  69.678  1.00  0.00    -0.147 N  
HETATM    8  O   UNL     1      -9.619   6.499  69.149  1.00  0.00    -0.135 OA 
HETATM    9  C   UNL     1      -9.460   7.672  68.851  1.00  0.00    -0.149 C  
BRANCH   7  10
HETATM   10  C   UNL     1      -9.061   8.742  71.061  1.00  0.00    -0.218 C  
HETATM   11  O   UNL     1      -8.031   8.620  71.720  1.00  0.00    -0.161 OA 
BRANCH  10  12
HETATM   12  N   UNL     1     -10.287   8.954  71.638  1.00  0.00    -0.319 N  
HETATM   13  H   UNL     1     -10.388   9.730  72.292  1.00  0.00     0.000 HD 
BRANCH  12  14
HETATM   14  C   UNL     1     -11.445   8.127  71.362  1.00  0.00    -0.263 C  
BRANCH  14  15
HETATM   15  C   UNL     1     -12.505   8.839  70.504  1.00  0.00     0.341 C  
BRANCH  15  16
HETATM   16  C   UNL     1     -12.692  10.312  70.827  1.00  0.00    -0.434 A  
HETATM   17  C   UNL     1     -12.207  11.318  69.978  1.00  0.00    -0.389 A  
HETATM   18  C   UNL     1     -12.335  12.666  70.315  1.00  0.00    -0.269 A  
HETATM   19  C   UNL     1     -13.013  13.040  71.476  1.00  0.00    -0.305 A  
HETATM   20  C   UNL     1     -13.545  12.056  72.314  1.00  0.00    -0.164 A  
HETATM   21  C   UNL     1     -13.389  10.701  71.985  1.00  0.00    -0.409 A  
BRANCH  19  22
HETATM   22  S   UNL     1     -13.042  14.756  71.958  1.00  0.00    -0.366 S  
HETATM   23  O   UNL     1     -13.986  15.429  71.089  1.00  0.00    -0.480 OA 
HETATM   24  O   UNL     1     -13.193  14.834  73.395  1.00  0.00    -0.565 OA 
BRANCH  22  25
HETATM   25  N   UNL     1     -11.545  15.358  71.519  1.00  0.00    -0.376 N  
HETATM   26  H   UNL     1     -10.847  15.499  72.250  1.00  0.00     0.000 HD 
BRANCH  25  27
HETATM   27  C   UNL     1     -11.202  15.674  70.219  1.00  0.00    -0.344 C  
HETATM   28  O   UNL     1     -11.965  16.244  69.456  1.00  0.00    -0.158 OA 
BRANCH  27  29
HETATM   29  N   UNL     1      -9.932  15.300  69.848  1.00  0.00    -0.452 N  
HETATM   30  H   UNL     1      -9.117  15.646  70.353  1.00  0.00     0.000 HD 
BRANCH  29  31
HETATM   31  C   UNL     1      -9.778  14.395  68.711  1.00  0.00    -0.190 C  
HETATM   32  C   UNL     1     -11.116  13.975  68.090  1.00  0.00    -0.280 C  
HETATM   33  C   UNL     1     -11.681  14.950  67.059  1.00  0.00    -0.274 C  
HETATM   34  C   UNL     1     -10.649  15.408  66.022  1.00  0.00    -0.330 C  
HETATM   35  C   UNL     1      -9.415  15.970  66.734  1.00  0.00    -0.250 C  
HETATM   36  C   UNL     1     -10.281  14.294  65.035  1.00  0.00    -0.402 C  
HETATM   37  C   UNL     1      -8.781  14.958  67.687  1.00  0.00    -0.181 C  
ENDBRANCH  29  31
ENDBRANCH  27  29
ENDBRANCH  25  27
ENDBRANCH  22  25
ENDBRANCH  19  22
ENDBRANCH  15  16
ENDBRANCH  14  15
ENDBRANCH  12  14
ENDBRANCH  10  12
ENDBRANCH   7  10
ENDBRANCH   2   3
TORSDOF 11
ENDMDL
MODEL      279
REMARK 921   NORMALIZED FREE ENERGY PREDICTED BY IDOCK:   -3.30 KCAL/MOL
REMARK 922        TOTAL FREE ENERGY PREDICTED BY IDOCK:   -7.72 KCAL/MOL
REMARK 923 INTER-LIGAND FREE ENERGY PREDICTED BY IDOCK:   -6.89 KCAL/MOL
REMARK 924 INTRA-LIGAND FREE ENERGY PREDICTED BY IDOCK:   -0.83 KCAL/MOL
REMARK 927      BINDING AFFINITY PREDICTED BY RF-SCORE:    0.00 PKD
ROOT
HETATM    1  C   UNL     1     -12.503  15.064  70.569  1.00  0.00    -0.425 C  
HETATM    2  C   UNL     1     -11.154  15.167  69.872  1.00  0.00    -0.302 C  
ENDROOT
BRANCH   2   3
HETATM    3  C   UNL     1     -11.280  14.992  68.401  1.00  0.00    -0.303 C  
HETATM    4  C   UNL     1     -10.792  15.708  67.377  1.00  0.00    -0.315 C  
HETATM    5  C   UNL     1     -11.191  15.145  66.051  1.00  0.00    -0.275 C  
HETATM    6  C   UNL     1      -9.907  16.902  67.445  1.00  0.00    -0.261 C  
HETATM    7  N   UNL     1     -11.902  13.954  66.428  1.00  0.00    -0.389 N  
HETATM    8  O   UNL     1     -12.667  13.043  68.451  1.00  0.00     0.565 OA 
HETATM    9  C   UNL     1     -12.038  13.869  67.808  1.00  0.00    -0.293 C  
BRANCH   7  10
HETATM   10  C   UNL     1     -12.173  12.972  65.492  1.00  0.00    -0.469 C  
HETATM   11  O   UNL     1     -13.011  13.121  64.606  1.00  0.00    -0.708 OA 
BRANCH  10  12
HETATM   12  N   UNL     1     -11.408  11.839  65.604  1.00  0.00    -0.279 N  
HETATM   13  H   UNL     1     -11.865  10.969  65.877  1.00  0.00     0.000 HD 
BRANCH  12  14
HETATM   14  C   UNL     1      -9.981  11.820  65.353  1.00  0.00    -0.253 C  
BRANCH  14  15
HETATM   15  C   UNL     1      -9.142  12.117  66.608  1.00  0.00    -0.206 C  
BRANCH  15  16
HETATM   16  C   UNL     1      -9.080  10.975  67.609  1.00  0.00    -0.145 A  
HETATM   17  C   UNL     1      -7.911  10.223  67.794  1.00  0.00    -0.101 A  
HETATM   18  C   UNL     1      -7.884   9.140  68.674  1.00  0.00    -0.097 A  
HETATM   19  C   UNL     1      -9.007   8.828  69.440  1.00  0.00    -0.145 A  
HETATM   20  C   UNL     1     -10.170   9.593  69.307  1.00  0.00    -0.215 A  
HETATM   21  C   UNL     1     -10.200  10.663  68.400  1.00  0.00    -0.191 A  
BRANCH  19  22
HETATM   22  S   UNL     1      -8.997   7.360  70.452  1.00  0.00    -0.150 S  
HETATM   23  O   UNL     1     -10.306   6.749  70.333  1.00  0.00    -0.194 OA 
HETATM   24  O   UNL     1      -7.807   6.595  70.150  1.00  0.00    -0.103 OA 
BRANCH  22  25
HETATM   25  N   UNL     1      -8.920   7.917  72.027  1.00  0.00    -0.130 N  
HETATM   26  H   UNL     1      -8.407   8.779  72.210  1.00  0.00     0.000 HD 
BRANCH  25  27
HETATM   27  C   UNL     1      -9.515   7.271  73.093  1.00  0.00    -0.184 C  
HETATM   28  O   UNL     1      -9.606   7.775  74.202  1.00  0.00    -0.071 OA 
BRANCH  27  29
HETATM   29  N   UNL     1     -10.003   6.016  72.812  1.00  0.00    -0.174 N  
HETATM   30  H   UNL     1     -10.333   5.783  71.876  1.00  0.00     0.000 HD 
BRANCH  29  31
HETATM   31  C   UNL     1     -10.037   5.027  73.886  1.00  0.00    -0.198 C  
HETATM   32  C   UNL     1     -11.012   3.875  73.613  1.00  0.00    -0.337 C  
HETATM   33  C   UNL     1     -10.443   2.735  72.771  1.00  0.00    -0.218 C  
HETATM   34  C   UNL     1      -9.062   2.262  73.237  1.00  0.00    -0.080 C  
HETATM   35  C   UNL     1      -8.105   3.456  73.317  1.00  0.00    -0.074 C  
HETATM   36  C   UNL     1      -9.126   1.493  74.562  1.00  0.00    -0.068 C  
HETATM   37  C   UNL     1      -8.620   4.553  74.246  1.00  0.00    -0.103 C  
ENDBRANCH  29  31
ENDBRANCH  27  29
ENDBRANCH  25  27
ENDBRANCH  22  25
ENDBRANCH  19  22
ENDBRANCH  15  16
ENDBRANCH  14  15
ENDBRANCH  12  14
ENDBRANCH  10  12
ENDBRANCH   7  10
ENDBRANCH   2   3
TORSDOF 11
ENDMDL
MODEL      280
REMARK 921   NORMALIZED FREE ENERGY PREDICTED BY IDOCK:   -3.29 KCAL/MOL
REMARK 922        TOTAL FREE ENERGY PREDICTED BY IDOCK:   -7.71 KCAL/MOL
REMARK 923 INTER-LIGAND FREE ENERGY PREDICTED BY IDOCK:   -7.08 KCAL/MOL
REMARK 924 INTRA-LIGAND FREE ENERGY PREDICTED BY IDOCK:   -0.63 KCAL/MOL
REMARK 927      BINDING AFFINITY PREDICTED BY RF-SCORE:    0.00 PKD
ROOT
HETATM    1  C   UNL     1     -10.580   1.467  71.578  1.00  0.00     0.335 C  
HETATM    2  C   UNL     1     -10.576   2.326  72.834  1.00  0.00    -0.238 C  
ENDROOT
BRANCH   2   3
HETATM    3  C   UNL     1      -9.745   3.548  72.661  1.00  0.00    -0.200 C  
HETATM    4  C   UNL     1      -8.483   3.710  72.238  1.00  0.00    -0.090 C  
HETATM    5  C   UNL     1      -8.066   5.145  72.235  1.00  0.00    -0.110 C  
HETATM    6  C   UNL     1      -7.545   2.660  71.757  1.00  0.00    -0.044 C  
HETATM    7  N   UNL     1      -9.277   5.814  72.627  1.00  0.00    -0.138 N  
HETATM    8  O   UNL     1     -11.376   5.126  73.419  1.00  0.00    -0.313 OA 
HETATM    9  C   UNL     1     -10.269   4.899  72.957  1.00  0.00    -0.174 C  
BRANCH   7  10
HETATM   10  C   UNL     1      -9.415   7.178  72.447  1.00  0.00    -0.145 C  
HETATM   11  O   UNL     1      -9.419   7.969  73.388  1.00  0.00    -0.279 OA 
BRANCH  10  12
HETATM   12  N   UNL     1      -9.506   7.584  71.140  1.00  0.00    -0.158 N  
HETATM   13  H   UNL     1      -9.052   7.018  70.423  1.00  0.00     0.000 HD 
BRANCH  12  14
HETATM   14  C   UNL     1     -10.216   8.779  70.730  1.00  0.00    -0.211 C  
BRANCH  14  15
HETATM   15  C   UNL     1     -11.039   8.581  69.445  1.00  0.00     0.086 C  
BRANCH  15  16
HETATM   16  C   UNL     1     -10.217   8.553  68.169  1.00  0.00    -0.254 A  
HETATM   17  C   UNL     1      -9.138   9.428  67.970  1.00  0.00    -0.131 A  
HETATM   18  C   UNL     1      -8.426   9.431  66.770  1.00  0.00    -0.129 A  
HETATM   19  C   UNL     1      -8.734   8.511  65.767  1.00  0.00    -0.179 A  
HETATM   20  C   UNL     1      -9.775   7.599  65.961  1.00  0.00     0.100 A  
HETATM   21  C   UNL     1     -10.506   7.618  67.159  1.00  0.00    -0.412 A  
BRANCH  19  22
HETATM   22  S   UNL     1      -7.907   8.625  64.192  1.00  0.00    -0.148 S  
HETATM   23  O   UNL     1      -6.892   9.652  64.313  1.00  0.00    -0.101 OA 
HETATM   24  O   UNL     1      -7.546   7.293  63.758  1.00  0.00    -0.097 OA 
BRANCH  22  25
HETATM   25  N   UNL     1      -9.046   9.264  63.147  1.00  0.00    -0.439 N  
HETATM   26  H   UNL     1      -9.684   8.622  62.676  1.00  0.00     0.000 HD 
BRANCH  25  27
HETATM   27  C   UNL     1      -9.170  10.615  62.888  1.00  0.00    -0.305 C  
HETATM   28  O   UNL     1      -8.217  11.319  62.595  1.00  0.00    -0.080 OA 
BRANCH  27  29
HETATM   29  N   UNL     1     -10.450  11.108  62.982  1.00  0.00    -0.766 N  
HETATM   30  H   UNL     1     -11.252  10.526  62.744  1.00  0.00     0.000 HD 
BRANCH  29  31
HETATM   31  C   UNL     1     -10.632  12.487  63.430  1.00  0.00    -0.250 C  
HETATM   32  C   UNL     1     -12.107  12.880  63.581  1.00  0.00    -0.611 C  
HETATM   33  C   UNL     1     -12.738  12.509  64.922  1.00  0.00    -0.371 C  
HETATM   34  C   UNL     1     -11.879  12.899  66.130  1.00  0.00    -0.487 C  
HETATM   35  C   UNL     1     -10.470  12.318  65.973  1.00  0.00    -0.284 C  
HETATM   36  C   UNL     1     -11.849  14.415  66.359  1.00  0.00    -0.402 C  
HETATM   37  C   UNL     1      -9.792  12.776  64.684  1.00  0.00    -0.052 C  
ENDBRANCH  29  31
ENDBRANCH  27  29
ENDBRANCH  25  27
ENDBRANCH  22  25
ENDBRANCH  19  22
ENDBRANCH  15  16
ENDBRANCH  14  15
ENDBRANCH  12  14
ENDBRANCH  10  12
ENDBRANCH   7  10
ENDBRANCH   2   3
TORSDOF 11
ENDMDL
MODEL      281
REMARK 921   NORMALIZED FREE ENERGY PREDICTED BY IDOCK:   -3.26 KCAL/MOL
REMARK 922        TOTAL FREE ENERGY PREDICTED BY IDOCK:   -7.67 KCAL/MOL
REMARK 923 INTER-LIGAND FREE ENERGY PREDICTED BY IDOCK:   -7.76 KCAL/MOL
REMARK 924 INTRA-LIGAND FREE ENERGY PREDICTED BY IDOCK:    0.09 KCAL/MOL
REMARK 927      BINDING AFFINITY PREDICTED BY RF-SCORE:    0.00 PKD
ROOT
HETATM    1  C   UNL     1      -6.360   8.705  72.674  1.00  0.00    -0.071 C  
HETATM    2  C   UNL     1      -5.787   8.955  71.287  1.00  0.00    -0.050 C  
ENDROOT
BRANCH   2   3
HETATM    3  C   UNL     1      -6.538   8.212  70.240  1.00  0.00    -0.036 C  
HETATM    4  C   UNL     1      -6.624   6.900  69.972  1.00  0.00    -0.044 C  
HETATM    5  C   UNL     1      -7.508   6.617  68.802  1.00  0.00    -0.096 C  
HETATM    6  C   UNL     1      -5.997   5.778  70.722  1.00  0.00    -0.029 C  
HETATM    7  N   UNL     1      -8.002   7.926  68.471  1.00  0.00    -0.119 N  
HETATM    8  O   UNL     1      -7.511  10.114  69.164  1.00  0.00    -0.081 OA 
HETATM    9  C   UNL     1      -7.394   8.902  69.252  1.00  0.00    -0.070 C  
BRANCH   7  10
HETATM   10  C   UNL     1      -9.097   8.075  67.639  1.00  0.00    -0.137 C  
HETATM   11  O   UNL     1      -9.225   7.434  66.598  1.00  0.00    -0.145 OA 
BRANCH  10  12
HETATM   12  N   UNL     1     -10.047   8.959  68.084  1.00  0.00    -0.181 N  
HETATM   13  H   UNL     1     -10.171   9.073  69.090  1.00  0.00     0.000 HD 
BRANCH  12  14
HETATM   14  C   UNL     1     -10.882   9.738  67.193  1.00  0.00    -0.136 C  
BRANCH  14  15
HETATM   15  C   UNL     1     -11.623  10.882  67.906  1.00  0.00    -0.270 C  
BRANCH  15  16
HETATM   16  C   UNL     1     -11.235  12.274  67.435  1.00  0.00    -0.358 A  
HETATM   17  C   UNL     1     -10.189  12.476  66.522  1.00  0.00    -0.255 A  
HETATM   18  C   UNL     1      -9.805  13.763  66.141  1.00  0.00    -0.310 A  
HETATM   19  C   UNL     1     -10.505  14.874  66.613  1.00  0.00    -0.292 A  
HETATM   20  C   UNL     1     -11.580  14.694  67.488  1.00  0.00    -0.396 A  
HETATM   21  C   UNL     1     -11.945  13.400  67.889  1.00  0.00    -0.360 A  
BRANCH  19  22
HETATM   22  S   UNL     1      -9.911  16.510  66.227  1.00  0.00    -0.346 S  
HETATM   23  O   UNL     1      -8.509  16.387  65.884  1.00  0.00    -0.379 OA 
HETATM   24  O   UNL     1     -10.834  17.134  65.304  1.00  0.00    -0.562 OA 
BRANCH  22  25
HETATM   25  N   UNL     1      -9.931  17.335  67.682  1.00  0.00    -0.286 N  
HETATM   26  H   UNL     1      -9.698  16.821  68.532  1.00  0.00     0.000 HD 
BRANCH  25  27
HETATM   27  C   UNL     1     -10.245  18.675  67.794  1.00  0.00    -0.386 C  
HETATM   28  O   UNL     1     -10.962  19.253  66.992  1.00  0.00    -0.454 OA 
BRANCH  27  29
HETATM   29  N   UNL     1      -9.691  19.311  68.880  1.00  0.00    -0.429 N  
HETATM   30  H   UNL     1     -10.085  19.191  69.812  1.00  0.00     0.000 HD 
BRANCH  29  31
HETATM   31  C   UNL     1      -8.524  20.164  68.665  1.00  0.00     0.160 C  
HETATM   32  C   UNL     1      -7.211  19.513  69.117  1.00  0.00    -0.382 C  
HETATM   33  C   UNL     1      -6.557  18.597  68.083  1.00  0.00    -0.231 C  
HETATM   34  C   UNL     1      -6.477  19.217  66.684  1.00  0.00    -0.199 C  
HETATM   35  C   UNL     1      -7.867  19.686  66.244  1.00  0.00    -0.331 C  
HETATM   36  C   UNL     1      -5.442  20.346  66.605  1.00  0.00    -0.189 C  
HETATM   37  C   UNL     1      -8.479  20.687  67.221  1.00  0.00    -0.306 C  
ENDBRANCH  29  31
ENDBRANCH  27  29
ENDBRANCH  25  27
ENDBRANCH  22  25
ENDBRANCH  19  22
ENDBRANCH  15  16
ENDBRANCH  14  15
ENDBRANCH  12  14
ENDBRANCH  10  12
ENDBRANCH   7  10
ENDBRANCH   2   3
TORSDOF 11
ENDMDL
MODEL      282
REMARK 921   NORMALIZED FREE ENERGY PREDICTED BY IDOCK:   -3.23 KCAL/MOL
REMARK 922        TOTAL FREE ENERGY PREDICTED BY IDOCK:   -7.62 KCAL/MOL
REMARK 923 INTER-LIGAND FREE ENERGY PREDICTED BY IDOCK:   -6.11 KCAL/MOL
REMARK 924 INTRA-LIGAND FREE ENERGY PREDICTED BY IDOCK:   -1.51 KCAL/MOL
REMARK 927      BINDING AFFINITY PREDICTED BY RF-SCORE:    0.00 PKD
ROOT
HETATM    1  C   UNL     1      -9.952  15.161  68.909  1.00  0.00    -0.227 C  
HETATM    2  C   UNL     1     -10.020  15.335  67.400  1.00  0.00    -0.223 C  
ENDROOT
BRANCH   2   3
HETATM    3  C   UNL     1     -10.120  14.027  66.699  1.00  0.00    -0.276 C  
HETATM    4  C   UNL     1     -11.170  13.383  66.169  1.00  0.00    -0.311 C  
HETATM    5  C   UNL     1     -10.785  12.072  65.564  1.00  0.00    -0.276 C  
HETATM    6  C   UNL     1     -12.579  13.854  66.092  1.00  0.00    -0.426 C  
HETATM    7  N   UNL     1      -9.357  12.070  65.728  1.00  0.00    -0.179 N  
HETATM    8  O   UNL     1      -7.810  13.424  66.861  1.00  0.00     0.008 OA 
HETATM    9  C   UNL     1      -8.936  13.174  66.460  1.00  0.00    -0.059 C  
BRANCH   7  10
HETATM   10  C   UNL     1      -8.569  11.176  65.025  1.00  0.00     0.112 C  
HETATM   11  O   UNL     1      -8.970  10.595  64.019  1.00  0.00    -0.191 OA 
BRANCH  10  12
HETATM   12  N   UNL     1      -7.297  11.019  65.512  1.00  0.00    -0.363 N  
HETATM   13  H   UNL     1      -6.538  11.530  65.061  1.00  0.00     0.000 HD 
BRANCH  12  14
HETATM   14  C   UNL     1      -6.979  10.161  66.636  1.00  0.00    -0.093 C  
BRANCH  14  15
HETATM   15  C   UNL     1      -8.032   9.064  66.875  1.00  0.00    -0.105 C  
BRANCH  15  16
HETATM   16  C   UNL     1      -9.147   9.459  67.828  1.00  0.00    -0.134 A  
HETATM   17  C   UNL     1      -8.875   9.957  69.111  1.00  0.00    -0.165 A  
HETATM   18  C   UNL     1      -9.909  10.262  69.998  1.00  0.00    -0.082 A  
HETATM   19  C   UNL     1     -11.239  10.141  69.596  1.00  0.00    -0.261 A  
HETATM   20  C   UNL     1     -11.534   9.691  68.306  1.00  0.00     0.317 A  
HETATM   21  C   UNL     1     -10.492   9.359  67.427  1.00  0.00    -0.343 A  
BRANCH  19  22
HETATM   22  S   UNL     1     -12.541  10.401  70.786  1.00  0.00    -0.376 S  
HETATM   23  O   UNL     1     -12.408  11.758  71.277  1.00  0.00    -0.276 OA 
HETATM   24  O   UNL     1     -13.792   9.954  70.215  1.00  0.00     0.304 OA 
BRANCH  22  25
HETATM   25  N   UNL     1     -12.141   9.429  72.087  1.00  0.00    -0.295 N  
HETATM   26  H   UNL     1     -11.544   9.819  72.817  1.00  0.00     0.000 HD 
BRANCH  25  27
HETATM   27  C   UNL     1     -12.577   8.126  72.227  1.00  0.00    -0.273 C  
HETATM   28  O   UNL     1     -13.750   7.807  72.111  1.00  0.00    -0.216 OA 
BRANCH  27  29
HETATM   29  N   UNL     1     -11.589   7.211  72.505  1.00  0.00    -0.427 N  
HETATM   30  H   UNL     1     -11.630   6.639  73.348  1.00  0.00     0.000 HD 
BRANCH  29  31
HETATM   31  C   UNL     1     -10.479   7.078  71.564  1.00  0.00    -0.204 C  
HETATM   32  C   UNL     1      -9.113   7.365  72.200  1.00  0.00    -0.156 C  
HETATM   33  C   UNL     1      -8.470   6.175  72.909  1.00  0.00    -0.119 C  
HETATM   34  C   UNL     1      -8.495   4.885  72.081  1.00  0.00    -0.124 C  
HETATM   35  C   UNL     1      -9.929   4.586  71.632  1.00  0.00    -0.266 C  
HETATM   36  C   UNL     1      -7.524   4.935  70.895  1.00  0.00    -0.065 C  
HETATM   37  C   UNL     1     -10.538   5.732  70.827  1.00  0.00    -0.337 C  
ENDBRANCH  29  31
ENDBRANCH  27  29
ENDBRANCH  25  27
ENDBRANCH  22  25
ENDBRANCH  19  22
ENDBRANCH  15  16
ENDBRANCH  14  15
ENDBRANCH  12  14
ENDBRANCH  10  12
ENDBRANCH   7  10
ENDBRANCH   2   3
TORSDOF 11
ENDMDL
MODEL      283
REMARK 921   NORMALIZED FREE ENERGY PREDICTED BY IDOCK:   -3.22 KCAL/MOL
REMARK 922        TOTAL FREE ENERGY PREDICTED BY IDOCK:   -7.59 KCAL/MOL
REMARK 923 INTER-LIGAND FREE ENERGY PREDICTED BY IDOCK:   -5.83 KCAL/MOL
REMARK 924 INTRA-LIGAND FREE ENERGY PREDICTED BY IDOCK:   -1.76 KCAL/MOL
REMARK 927      BINDING AFFINITY PREDICTED BY RF-SCORE:    0.00 PKD
ROOT
HETATM    1  C   UNL     1      -9.336   6.117  68.678  1.00  0.00    -0.121 C  
HETATM    2  C   UNL     1      -8.070   5.469  68.137  1.00  0.00    -0.096 C  
ENDROOT
BRANCH   2   3
HETATM    3  C   UNL     1      -7.929   5.678  66.671  1.00  0.00    -0.101 C  
HETATM    4  C   UNL     1      -8.625   5.188  65.635  1.00  0.00    -0.139 C  
HETATM    5  C   UNL     1      -8.108   5.680  64.322  1.00  0.00    -0.127 C  
HETATM    6  C   UNL     1      -9.816   4.298  65.680  1.00  0.00    -0.223 C  
HETATM    7  N   UNL     1      -7.074   6.594  64.725  1.00  0.00    -0.054 N  
HETATM    8  O   UNL     1      -6.036   7.138  66.759  1.00  0.00    -0.032 OA 
HETATM    9  C   UNL     1      -6.891   6.563  66.103  1.00  0.00    -0.057 C  
BRANCH   7  10
HETATM   10  C   UNL     1      -6.550   7.504  63.826  1.00  0.00    -0.053 C  
HETATM   11  O   UNL     1      -5.505   7.295  63.212  1.00  0.00    -0.033 OA 
BRANCH  10  12
HETATM   12  N   UNL     1      -7.303   8.635  63.640  1.00  0.00    -0.101 N  
HETATM   13  H   UNL     1      -7.303   9.344  64.374  1.00  0.00     0.000 HD 
BRANCH  12  14
HETATM   14  C   UNL     1      -8.098   8.870  62.452  1.00  0.00    -0.155 C  
BRANCH  14  15
HETATM   15  C   UNL     1      -9.271   9.837  62.691  1.00  0.00    -0.268 C  
BRANCH  15  16
HETATM   16  C   UNL     1      -9.531  10.162  64.153  1.00  0.00    -0.353 A  
HETATM   17  C   UNL     1      -9.666  11.485  64.598  1.00  0.00    -0.242 A  
HETATM   18  C   UNL     1      -9.848  11.772  65.952  1.00  0.00    -0.265 A  
HETATM   19  C   UNL     1      -9.968  10.738  66.881  1.00  0.00    -0.200 A  
HETATM   20  C   UNL     1      -9.883   9.410  66.453  1.00  0.00    -0.337 A  
HETATM   21  C   UNL     1      -9.673   9.127  65.095  1.00  0.00     0.127 A  
BRANCH  19  22
HETATM   22  S   UNL     1     -10.059  11.128  68.618  1.00  0.00    -0.201 S  
HETATM   23  O   UNL     1     -10.681  12.432  68.732  1.00  0.00    -0.230 OA 
HETATM   24  O   UNL     1     -10.614   9.993  69.322  1.00  0.00    -0.201 OA 
BRANCH  22  25
HETATM   25  N   UNL     1      -8.473  11.362  69.096  1.00  0.00    -0.377 N  
HETATM   26  H   UNL     1      -8.121  10.818  69.883  1.00  0.00     0.000 HD 
BRANCH  25  27
HETATM   27  C   UNL     1      -7.616  12.253  68.480  1.00  0.00    -0.118 C  
HETATM   28  O   UNL     1      -6.643  11.893  67.836  1.00  0.00    -0.065 OA 
BRANCH  27  29
HETATM   29  N   UNL     1      -7.941  13.578  68.644  1.00  0.00    -0.271 N  
HETATM   30  H   UNL     1      -8.414  13.899  69.489  1.00  0.00     0.000 HD 
BRANCH  29  31
HETATM   31  C   UNL     1      -7.593  14.517  67.580  1.00  0.00    -0.190 C  
HETATM   32  C   UNL     1      -8.820  15.133  66.896  1.00  0.00    -0.284 C  
HETATM   33  C   UNL     1      -9.399  16.361  67.597  1.00  0.00    -0.212 C  
HETATM   34  C   UNL     1      -8.339  17.396  67.990  1.00  0.00    -0.231 C  
HETATM   35  C   UNL     1      -7.238  16.723  68.816  1.00  0.00    -0.217 C  
HETATM   36  C   UNL     1      -7.768  18.135  66.773  1.00  0.00    -0.249 C  
HETATM   37  C   UNL     1      -6.581  15.562  68.073  1.00  0.00    -0.156 C  
ENDBRANCH  29  31
ENDBRANCH  27  29
ENDBRANCH  25  27
ENDBRANCH  22  25
ENDBRANCH  19  22
ENDBRANCH  15  16
ENDBRANCH  14  15
ENDBRANCH  12  14
ENDBRANCH  10  12
ENDBRANCH   7  10
ENDBRANCH   2   3
TORSDOF 11
ENDMDL
MODEL      284
REMARK 921   NORMALIZED FREE ENERGY PREDICTED BY IDOCK:   -3.20 KCAL/MOL
REMARK 922        TOTAL FREE ENERGY PREDICTED BY IDOCK:   -7.57 KCAL/MOL
REMARK 923 INTER-LIGAND FREE ENERGY PREDICTED BY IDOCK:   -7.09 KCAL/MOL
REMARK 924 INTRA-LIGAND FREE ENERGY PREDICTED BY IDOCK:   -0.48 KCAL/MOL
REMARK 927      BINDING AFFINITY PREDICTED BY RF-SCORE:    0.00 PKD
ROOT
HETATM    1  C   UNL     1     -11.653  15.980  70.996  1.00  0.00    -0.472 C  
HETATM    2  C   UNL     1     -12.109  15.676  69.577  1.00  0.00    -0.307 C  
ENDROOT
BRANCH   2   3
HETATM    3  C   UNL     1     -10.957  15.543  68.646  1.00  0.00    -0.279 C  
HETATM    4  C   UNL     1     -10.323  16.446  67.884  1.00  0.00    -0.286 C  
HETATM    5  C   UNL     1      -9.207  15.839  67.096  1.00  0.00    -0.210 C  
HETATM    6  C   UNL     1     -10.585  17.908  67.802  1.00  0.00    -0.399 C  
HETATM    7  N   UNL     1      -9.211  14.480  67.562  1.00  0.00    -0.189 N  
HETATM    8  O   UNL     1     -10.627  13.189  68.916  1.00  0.00    -0.216 OA 
HETATM    9  C   UNL     1     -10.277  14.249  68.423  1.00  0.00    -0.245 C  
BRANCH   7  10
HETATM   10  C   UNL     1      -8.132  13.649  67.316  1.00  0.00    -0.139 C  
HETATM   11  O   UNL     1      -6.971  14.052  67.344  1.00  0.00    -0.180 OA 
BRANCH  10  12
HETATM   12  N   UNL     1      -8.454  12.337  67.078  1.00  0.00    -0.185 N  
HETATM   13  H   UNL     1      -8.078  11.624  67.704  1.00  0.00     0.000 HD 
BRANCH  12  14
HETATM   14  C   UNL     1      -9.303  11.916  65.982  1.00  0.00    -0.206 C  
BRANCH  14  15
HETATM   15  C   UNL     1      -8.846  10.596  65.337  1.00  0.00    -0.204 C  
BRANCH  15  16
HETATM   16  C   UNL     1      -8.188   9.620  66.298  1.00  0.00    -0.116 A  
HETATM   17  C   UNL     1      -6.873   9.172  66.104  1.00  0.00    -0.085 A  
HETATM   18  C   UNL     1      -6.300   8.232  66.962  1.00  0.00    -0.056 A  
HETATM   19  C   UNL     1      -7.006   7.771  68.073  1.00  0.00    -0.080 A  
HETATM   20  C   UNL     1      -8.301   8.239  68.313  1.00  0.00    -0.132 A  
HETATM   21  C   UNL     1      -8.883   9.163  67.432  1.00  0.00    -0.125 A  
BRANCH  19  22
HETATM   22  S   UNL     1      -6.311   6.470  69.074  1.00  0.00    -0.036 S  
HETATM   23  O   UNL     1      -6.202   5.295  68.233  1.00  0.00    -0.031 OA 
HETATM   24  O   UNL     1      -5.147   6.982  69.762  1.00  0.00    -0.014 OA 
BRANCH  22  25
HETATM   25  N   UNL     1      -7.500   6.095  70.189  1.00  0.00    -0.091 N  
HETATM   26  H   UNL     1      -7.314   6.281  71.175  1.00  0.00     0.000 HD 
BRANCH  25  27
HETATM   27  C   UNL     1      -8.721   5.548  69.846  1.00  0.00    -0.123 C  
HETATM   28  O   UNL     1      -8.860   4.789  68.900  1.00  0.00    -0.091 OA 
BRANCH  27  29
HETATM   29  N   UNL     1      -9.770   5.919  70.654  1.00  0.00    -0.172 N  
HETATM   30  H   UNL     1     -10.022   5.364  71.471  1.00  0.00     0.000 HD 
BRANCH  29  31
HETATM   31  C   UNL     1     -10.515   7.129  70.313  1.00  0.00    -0.217 C  
HETATM   32  C   UNL     1     -12.034   6.915  70.294  1.00  0.00    -0.257 C  
HETATM   33  C   UNL     1     -12.719   7.044  71.653  1.00  0.00    -0.417 C  
HETATM   34  C   UNL     1     -12.292   8.291  72.437  1.00  0.00    -0.385 C  
HETATM   35  C   UNL     1     -10.765   8.332  72.552  1.00  0.00    -0.411 C  
HETATM   36  C   UNL     1     -12.853   9.582  71.828  1.00  0.00    -0.496 C  
HETATM   37  C   UNL     1     -10.077   8.313  71.189  1.00  0.00    -0.237 C  
ENDBRANCH  29  31
ENDBRANCH  27  29
ENDBRANCH  25  27
ENDBRANCH  22  25
ENDBRANCH  19  22
ENDBRANCH  15  16
ENDBRANCH  14  15
ENDBRANCH  12  14
ENDBRANCH  10  12
ENDBRANCH   7  10
ENDBRANCH   2   3
TORSDOF 11
ENDMDL
MODEL      285
REMARK 921   NORMALIZED FREE ENERGY PREDICTED BY IDOCK:   -3.14 KCAL/MOL
REMARK 922        TOTAL FREE ENERGY PREDICTED BY IDOCK:   -7.46 KCAL/MOL
REMARK 923 INTER-LIGAND FREE ENERGY PREDICTED BY IDOCK:   -7.07 KCAL/MOL
REMARK 924 INTRA-LIGAND FREE ENERGY PREDICTED BY IDOCK:   -0.39 KCAL/MOL
REMARK 927      BINDING AFFINITY PREDICTED BY RF-SCORE:    0.00 PKD
ROOT
HETATM    1  C   UNL     1      -8.220   3.414  70.414  1.00  0.00    -0.072 C  
HETATM    2  C   UNL     1      -8.680   3.750  69.003  1.00  0.00    -0.133 C  
ENDROOT
BRANCH   2   3
HETATM    3  C   UNL     1      -9.295   5.102  68.932  1.00  0.00    -0.168 C  
HETATM    4  C   UNL     1      -9.714   5.832  67.888  1.00  0.00    -0.134 C  
HETATM    5  C   UNL     1     -10.268   7.155  68.307  1.00  0.00    -0.184 C  
HETATM    6  C   UNL     1      -9.720   5.442  66.452  1.00  0.00    -0.183 C  
HETATM    7  N   UNL     1     -10.203   7.071  69.740  1.00  0.00    -0.197 N  
HETATM    8  O   UNL     1      -9.260   5.569  71.278  1.00  0.00    -0.144 OA 
HETATM    9  C   UNL     1      -9.567   5.903  70.144  1.00  0.00    -0.162 C  
BRANCH   7  10
HETATM   10  C   UNL     1     -10.907   7.963  70.530  1.00  0.00    -0.241 C  
HETATM   11  O   UNL     1     -11.972   7.668  71.067  1.00  0.00    -0.299 OA 
BRANCH  10  12
HETATM   12  N   UNL     1     -10.306   9.184  70.700  1.00  0.00    -0.225 N  
HETATM   13  H   UNL     1      -9.464   9.235  71.275  1.00  0.00     0.000 HD 
BRANCH  12  14
HETATM   14  C   UNL     1     -10.809  10.404  70.102  1.00  0.00    -0.271 C  
BRANCH  14  15
HETATM   15  C   UNL     1      -9.963  10.886  68.910  1.00  0.00    -0.208 C  
BRANCH  15  16
HETATM   16  C   UNL     1      -9.839  12.396  68.796  1.00  0.00    -0.005 A  
HETATM   17  C   UNL     1     -10.958  13.236  68.905  1.00  0.00    -0.278 A  
HETATM   18  C   UNL     1     -10.839  14.617  68.742  1.00  0.00    -0.261 A  
HETATM   19  C   UNL     1      -9.587  15.195  68.534  1.00  0.00    -0.214 A  
HETATM   20  C   UNL     1      -8.451  14.383  68.468  1.00  0.00    -0.170 A  
HETATM   21  C   UNL     1      -8.580  12.992  68.606  1.00  0.00     0.045 A  
BRANCH  19  22
HETATM   22  S   UNL     1      -9.475  16.941  68.189  1.00  0.00    -0.258 S  
HETATM   23  O   UNL     1     -10.781  17.513  68.447  1.00  0.00    -0.356 OA 
HETATM   24  O   UNL     1      -8.304  17.473  68.850  1.00  0.00    -0.245 OA 
BRANCH  22  25
HETATM   25  N   UNL     1      -9.277  17.045  66.531  1.00  0.00    -0.259 N  
HETATM   26  H   UNL     1      -8.380  17.371  66.171  1.00  0.00     0.000 HD 
BRANCH  25  27
HETATM   27  C   UNL     1     -10.264  16.714  65.624  1.00  0.00    -0.262 C  
HETATM   28  O   UNL     1     -11.156  17.485  65.309  1.00  0.00    -0.393 OA 
BRANCH  27  29
HETATM   29  N   UNL     1     -10.165  15.447  65.097  1.00  0.00    -0.354 N  
HETATM   30  H   UNL     1      -9.391  15.198  64.481  1.00  0.00     0.000 HD 
BRANCH  29  31
HETATM   31  C   UNL     1     -11.194  14.469  65.439  1.00  0.00    -0.342 C  
HETATM   32  C   UNL     1     -12.454  14.593  64.573  1.00  0.00    -0.312 C  
HETATM   33  C   UNL     1     -12.393  13.853  63.238  1.00  0.00     0.225 C  
HETATM   34  C   UNL     1     -11.881  12.413  63.361  1.00  0.00    -0.571 C  
HETATM   35  C   UNL     1     -10.533  12.404  64.090  1.00  0.00    -0.415 C  
HETATM   36  C   UNL     1     -12.901  11.487  64.035  1.00  0.00     0.271 C  
HETATM   37  C   UNL     1     -10.616  13.046  65.473  1.00  0.00    -0.297 C  
ENDBRANCH  29  31
ENDBRANCH  27  29
ENDBRANCH  25  27
ENDBRANCH  22  25
ENDBRANCH  19  22
ENDBRANCH  15  16
ENDBRANCH  14  15
ENDBRANCH  12  14
ENDBRANCH  10  12
ENDBRANCH   7  10
ENDBRANCH   2   3
TORSDOF 11
ENDMDL
MODEL      286
REMARK 921   NORMALIZED FREE ENERGY PREDICTED BY IDOCK:   -3.11 KCAL/MOL
REMARK 922        TOTAL FREE ENERGY PREDICTED BY IDOCK:   -7.42 KCAL/MOL
REMARK 923 INTER-LIGAND FREE ENERGY PREDICTED BY IDOCK:   -5.62 KCAL/MOL
REMARK 924 INTRA-LIGAND FREE ENERGY PREDICTED BY IDOCK:   -1.80 KCAL/MOL
REMARK 927      BINDING AFFINITY PREDICTED BY RF-SCORE:    0.00 PKD
ROOT
HETATM    1  C   UNL     1      -8.464   6.062  65.069  1.00  0.00    -0.089 C  
HETATM    2  C   UNL     1      -8.497   7.270  65.994  1.00  0.00    -0.148 C  
ENDROOT
BRANCH   2   3
HETATM    3  C   UNL     1      -8.696   8.536  65.238  1.00  0.00    -0.175 C  
HETATM    4  C   UNL     1      -7.960   9.123  64.283  1.00  0.00    -0.139 C  
HETATM    5  C   UNL     1      -8.561  10.409  63.815  1.00  0.00    -0.177 C  
HETATM    6  C   UNL     1      -6.711   8.612  63.656  1.00  0.00    -0.088 C  
HETATM    7  N   UNL     1      -9.791  10.457  64.556  1.00  0.00    -0.330 N  
HETATM    8  O   UNL     1     -10.729   9.205  66.306  1.00  0.00     0.022 OA 
HETATM    9  C   UNL     1      -9.871   9.405  65.461  1.00  0.00    -0.161 C  
BRANCH   7  10
HETATM   10  C   UNL     1     -10.799  11.331  64.191  1.00  0.00    -0.337 C  
HETATM   11  O   UNL     1     -11.055  11.588  63.017  1.00  0.00    -0.165 OA 
BRANCH  10  12
HETATM   12  N   UNL     1     -11.515  11.857  65.236  1.00  0.00    -0.294 N  
HETATM   13  H   UNL     1     -11.280  11.562  66.184  1.00  0.00     0.000 HD 
BRANCH  12  14
HETATM   14  C   UNL     1     -12.590  12.813  65.057  1.00  0.00    -0.468 C  
BRANCH  14  15
HETATM   15  C   UNL     1     -12.549  13.965  66.075  1.00  0.00    -0.467 C  
BRANCH  15  16
HETATM   16  C   UNL     1     -11.199  14.170  66.742  1.00  0.00    -0.330 A  
HETATM   17  C   UNL     1     -10.226  15.013  66.186  1.00  0.00    -0.311 A  
HETATM   18  C   UNL     1      -8.969  15.148  66.778  1.00  0.00    -0.293 A  
HETATM   19  C   UNL     1      -8.682  14.495  67.977  1.00  0.00    -0.167 A  
HETATM   20  C   UNL     1      -9.653  13.686  68.574  1.00  0.00    -0.165 A  
HETATM   21  C   UNL     1     -10.906  13.532  67.960  1.00  0.00    -0.266 A  
BRANCH  19  22
HETATM   22  S   UNL     1      -7.029  14.568  68.640  1.00  0.00    -0.111 S  
HETATM   23  O   UNL     1      -6.447  15.820  68.201  1.00  0.00    -0.114 OA 
HETATM   24  O   UNL     1      -7.077  14.242  70.049  1.00  0.00     0.004 OA 
BRANCH  22  25
HETATM   25  N   UNL     1      -6.178  13.384  67.821  1.00  0.00    -0.150 N  
HETATM   26  H   UNL     1      -5.306  13.646  67.362  1.00  0.00     0.000 HD 
BRANCH  25  27
HETATM   27  C   UNL     1      -6.593  12.069  67.734  1.00  0.00    -0.093 C  
HETATM   28  O   UNL     1      -7.413  11.690  66.913  1.00  0.00    -0.146 OA 
BRANCH  27  29
HETATM   29  N   UNL     1      -6.012  11.216  68.643  1.00  0.00    -0.043 N  
HETATM   30  H   UNL     1      -4.997  11.161  68.731  1.00  0.00     0.000 HD 
BRANCH  29  31
HETATM   31  C   UNL     1      -6.881  10.392  69.478  1.00  0.00    -0.093 C  
HETATM   32  C   UNL     1      -7.427   9.159  68.746  1.00  0.00    -0.076 C  
HETATM   33  C   UNL     1      -6.501   7.944  68.753  1.00  0.00    -0.048 C  
HETATM   34  C   UNL     1      -5.928   7.622  70.138  1.00  0.00    -0.023 C  
HETATM   35  C   UNL     1      -5.252   8.868  70.721  1.00  0.00    -0.027 C  
HETATM   36  C   UNL     1      -6.986   7.049  71.089  1.00  0.00    -0.062 C  
HETATM   37  C   UNL     1      -6.206  10.056  70.817  1.00  0.00    -0.084 C  
ENDBRANCH  29  31
ENDBRANCH  27  29
ENDBRANCH  25  27
ENDBRANCH  22  25
ENDBRANCH  19  22
ENDBRANCH  15  16
ENDBRANCH  14  15
ENDBRANCH  12  14
ENDBRANCH  10  12
ENDBRANCH   7  10
ENDBRANCH   2   3
TORSDOF 11
ENDMDL
MODEL      287
REMARK 921   NORMALIZED FREE ENERGY PREDICTED BY IDOCK:   -3.11 KCAL/MOL
REMARK 922        TOTAL FREE ENERGY PREDICTED BY IDOCK:   -7.41 KCAL/MOL
REMARK 923 INTER-LIGAND FREE ENERGY PREDICTED BY IDOCK:   -6.25 KCAL/MOL
REMARK 924 INTRA-LIGAND FREE ENERGY PREDICTED BY IDOCK:   -1.16 KCAL/MOL
REMARK 927      BINDING AFFINITY PREDICTED BY RF-SCORE:    0.00 PKD
ROOT
HETATM    1  C   UNL     1      -9.790   9.756  71.448  1.00  0.00     0.613 C  
HETATM    2  C   UNL     1      -9.386   8.460  72.135  1.00  0.00    -0.339 C  
ENDROOT
BRANCH   2   3
HETATM    3  C   UNL     1      -9.518   7.291  71.226  1.00  0.00    -0.156 C  
HETATM    4  C   UNL     1     -10.598   6.642  70.767  1.00  0.00    -0.265 C  
HETATM    5  C   UNL     1     -10.237   5.504  69.868  1.00  0.00    -0.268 C  
HETATM    6  C   UNL     1     -12.028   6.969  71.018  1.00  0.00    -0.406 C  
HETATM    7  N   UNL     1      -8.807   5.623  69.788  1.00  0.00    -0.123 N  
HETATM    8  O   UNL     1      -7.181   6.915  70.881  1.00  0.00    -0.070 OA 
HETATM    9  C   UNL     1      -8.340   6.621  70.635  1.00  0.00    -0.129 C  
BRANCH   7  10
HETATM   10  C   UNL     1      -8.100   4.953  68.806  1.00  0.00    -0.084 C  
HETATM   11  O   UNL     1      -7.115   4.262  69.060  1.00  0.00    -0.050 OA 
BRANCH  10  12
HETATM   12  N   UNL     1      -8.604   5.084  67.538  1.00  0.00    -0.105 N  
HETATM   13  H   UNL     1      -8.349   4.386  66.839  1.00  0.00     0.000 HD 
BRANCH  12  14
HETATM   14  C   UNL     1      -9.480   6.169  67.143  1.00  0.00    -0.119 C  
BRANCH  14  15
HETATM   15  C   UNL     1      -8.792   7.199  66.230  1.00  0.00    -0.166 C  
BRANCH  15  16
HETATM   16  C   UNL     1      -9.073   8.648  66.592  1.00  0.00    -0.203 A  
HETATM   17  C   UNL     1      -9.714   9.518  65.697  1.00  0.00    -0.361 A  
HETATM   18  C   UNL     1      -9.915  10.861  66.020  1.00  0.00    -0.290 A  
HETATM   19  C   UNL     1      -9.541  11.347  67.273  1.00  0.00    -0.174 A  
HETATM   20  C   UNL     1      -8.943  10.487  68.199  1.00  0.00    -0.138 A  
HETATM   21  C   UNL     1      -8.718   9.144  67.859  1.00  0.00    -0.128 A  
BRANCH  19  22
HETATM   22  S   UNL     1      -9.678  13.092  67.611  1.00  0.00    -0.219 S  
HETATM   23  O   UNL     1     -10.050  13.741  66.370  1.00  0.00    -0.279 OA 
HETATM   24  O   UNL     1     -10.484  13.275  68.798  1.00  0.00    -0.232 OA 
BRANCH  22  25
HETATM   25  N   UNL     1      -8.114  13.601  67.914  1.00  0.00    -0.149 N  
HETATM   26  H   UNL     1      -7.381  13.328  67.258  1.00  0.00     0.000 HD 
BRANCH  25  27
HETATM   27  C   UNL     1      -7.761  14.371  69.005  1.00  0.00    -0.093 C  
HETATM   28  O   UNL     1      -6.975  13.987  69.856  1.00  0.00    -0.001 OA 
BRANCH  27  29
HETATM   29  N   UNL     1      -8.360  15.608  69.059  1.00  0.00    -0.216 N  
HETATM   30  H   UNL     1      -8.660  16.003  69.950  1.00  0.00     0.000 HD 
BRANCH  29  31
HETATM   31  C   UNL     1      -8.555  16.341  67.811  1.00  0.00    -0.171 C  
HETATM   32  C   UNL     1      -9.893  17.090  67.756  1.00  0.00    -0.271 C  
HETATM   33  C   UNL     1      -9.883  18.473  68.403  1.00  0.00    -0.404 C  
HETATM   34  C   UNL     1      -8.687  19.335  67.983  1.00  0.00    -0.357 C  
HETATM   35  C   UNL     1      -7.384  18.570  68.233  1.00  0.00    -0.294 C  
HETATM   36  C   UNL     1      -8.797  19.817  66.531  1.00  0.00    -0.420 C  
HETATM   37  C   UNL     1      -7.344  17.233  67.498  1.00  0.00    -0.183 C  
ENDBRANCH  29  31
ENDBRANCH  27  29
ENDBRANCH  25  27
ENDBRANCH  22  25
ENDBRANCH  19  22
ENDBRANCH  15  16
ENDBRANCH  14  15
ENDBRANCH  12  14
ENDBRANCH  10  12
ENDBRANCH   7  10
ENDBRANCH   2   3
TORSDOF 11
ENDMDL
MODEL      288
REMARK 921   NORMALIZED FREE ENERGY PREDICTED BY IDOCK:   -3.09 KCAL/MOL
REMARK 922        TOTAL FREE ENERGY PREDICTED BY IDOCK:   -7.39 KCAL/MOL
REMARK 923 INTER-LIGAND FREE ENERGY PREDICTED BY IDOCK:   -6.23 KCAL/MOL
REMARK 924 INTRA-LIGAND FREE ENERGY PREDICTED BY IDOCK:   -1.16 KCAL/MOL
REMARK 927      BINDING AFFINITY PREDICTED BY RF-SCORE:    0.00 PKD
ROOT
HETATM    1  C   UNL     1     -10.164  14.437  66.917  1.00  0.00    -0.265 C  
HETATM    2  C   UNL     1     -11.627  14.212  67.267  1.00  0.00    -0.399 C  
ENDROOT
BRANCH   2   3
HETATM    3  C   UNL     1     -11.841  14.167  68.738  1.00  0.00    -0.384 C  
HETATM    4  C   UNL     1     -11.753  15.121  69.676  1.00  0.00    -0.353 C  
HETATM    5  C   UNL     1     -12.055  14.600  71.044  1.00  0.00    -0.329 C  
HETATM    6  C   UNL     1     -11.450  16.564  69.478  1.00  0.00     0.012 C  
HETATM    7  N   UNL     1     -12.420  13.236  70.776  1.00  0.00    -0.349 N  
HETATM    8  O   UNL     1     -12.354  11.835  68.893  1.00  0.00    -0.293 OA 
HETATM    9  C   UNL     1     -12.235  12.924  69.434  1.00  0.00    -0.091 C  
BRANCH   7  10
HETATM   10  C   UNL     1     -13.073  12.481  71.734  1.00  0.00    -0.347 C  
HETATM   11  O   UNL     1     -13.589  12.984  72.729  1.00  0.00    -0.547 OA 
BRANCH  10  12
HETATM   12  N   UNL     1     -13.136  11.137  71.467  1.00  0.00    -0.424 N  
HETATM   13  H   UNL     1     -13.793  10.813  70.757  1.00  0.00     0.000 HD 
BRANCH  12  14
HETATM   14  C   UNL     1     -12.315  10.156  72.148  1.00  0.00     0.109 C  
BRANCH  14  15
HETATM   15  C   UNL     1     -12.889   8.730  72.071  1.00  0.00    -0.442 C  
BRANCH  15  16
HETATM   16  C   UNL     1     -11.842   7.631  72.038  1.00  0.00    -0.342 A  
HETATM   17  C   UNL     1     -10.470   7.923  72.037  1.00  0.00    -0.289 A  
HETATM   18  C   UNL     1      -9.518   6.906  71.948  1.00  0.00    -0.146 A  
HETATM   19  C   UNL     1      -9.917   5.569  71.928  1.00  0.00    -0.180 A  
HETATM   20  C   UNL     1     -11.277   5.252  71.975  1.00  0.00    -0.091 A  
HETATM   21  C   UNL     1     -12.231   6.279  72.036  1.00  0.00    -0.270 A  
BRANCH  19  22
HETATM   22  S   UNL     1      -8.696   4.295  71.674  1.00  0.00    -0.115 S  
HETATM   23  O   UNL     1      -7.396   4.897  71.896  1.00  0.00    -0.075 OA 
HETATM   24  O   UNL     1      -9.089   3.118  72.416  1.00  0.00    -0.092 OA 
BRANCH  22  25
HETATM   25  N   UNL     1      -8.746   3.965  70.035  1.00  0.00    -0.065 N  
HETATM   26  H   UNL     1      -9.573   4.250  69.509  1.00  0.00     0.000 HD 
BRANCH  25  27
HETATM   27  C   UNL     1      -7.727   3.328  69.354  1.00  0.00    -0.050 C  
HETATM   28  O   UNL     1      -7.100   2.394  69.830  1.00  0.00    -0.033 OA 
BRANCH  27  29
HETATM   29  N   UNL     1      -7.472   3.822  68.097  1.00  0.00    -0.062 N  
HETATM   30  H   UNL     1      -8.027   3.522  67.296  1.00  0.00     0.000 HD 
BRANCH  29  31
HETATM   31  C   UNL     1      -6.387   4.787  67.936  1.00  0.00    -0.037 C  
HETATM   32  C   UNL     1      -5.576   4.572  66.652  1.00  0.00    -0.014 C  
HETATM   33  C   UNL     1      -6.159   5.231  65.404  1.00  0.00    -0.033 C  
HETATM   34  C   UNL     1      -6.575   6.690  65.621  1.00  0.00    -0.050 C  
HETATM   35  C   UNL     1      -7.521   6.786  66.822  1.00  0.00    -0.082 C  
HETATM   36  C   UNL     1      -5.367   7.624  65.771  1.00  0.00    -0.029 C  
HETATM   37  C   UNL     1      -6.898   6.226  68.099  1.00  0.00    -0.070 C  
ENDBRANCH  29  31
ENDBRANCH  27  29
ENDBRANCH  25  27
ENDBRANCH  22  25
ENDBRANCH  19  22
ENDBRANCH  15  16
ENDBRANCH  14  15
ENDBRANCH  12  14
ENDBRANCH  10  12
ENDBRANCH   7  10
ENDBRANCH   2   3
TORSDOF 11
ENDMDL
MODEL      289
REMARK 921   NORMALIZED FREE ENERGY PREDICTED BY IDOCK:   -3.05 KCAL/MOL
REMARK 922        TOTAL FREE ENERGY PREDICTED BY IDOCK:   -7.33 KCAL/MOL
REMARK 923 INTER-LIGAND FREE ENERGY PREDICTED BY IDOCK:   -6.60 KCAL/MOL
REMARK 924 INTRA-LIGAND FREE ENERGY PREDICTED BY IDOCK:   -0.73 KCAL/MOL
REMARK 927      BINDING AFFINITY PREDICTED BY RF-SCORE:    0.00 PKD
ROOT
HETATM    1  C   UNL     1      -6.091   5.830  65.920  1.00  0.00    -0.029 C  
HETATM    2  C   UNL     1      -7.351   6.140  65.125  1.00  0.00    -0.073 C  
ENDROOT
BRANCH   2   3
HETATM    3  C   UNL     1      -8.535   6.298  66.010  1.00  0.00    -0.143 C  
HETATM    4  C   UNL     1      -9.522   5.448  66.331  1.00  0.00    -0.164 C  
HETATM    5  C   UNL     1     -10.514   6.060  67.267  1.00  0.00    -0.257 C  
HETATM    6  C   UNL     1      -9.675   4.031  65.904  1.00  0.00    -0.193 C  
HETATM    7  N   UNL     1      -9.933   7.349  67.525  1.00  0.00    -0.160 N  
HETATM    8  O   UNL     1      -8.133   8.569  66.643  1.00  0.00    -0.101 OA 
HETATM    9  C   UNL     1      -8.803   7.553  66.743  1.00  0.00    -0.140 C  
BRANCH   7  10
HETATM   10  C   UNL     1     -10.373   8.118  68.587  1.00  0.00    -0.200 C  
HETATM   11  O   UNL     1     -10.941   7.632  69.562  1.00  0.00    -0.204 OA 
BRANCH  10  12
HETATM   12  N   UNL     1     -10.090   9.457  68.488  1.00  0.00    -0.180 N  
HETATM   13  H   UNL     1      -9.118   9.756  68.578  1.00  0.00     0.000 HD 
BRANCH  12  14
HETATM   14  C   UNL     1     -11.105  10.466  68.263  1.00  0.00    -0.281 C  
BRANCH  14  15
HETATM   15  C   UNL     1     -11.210  10.900  66.791  1.00  0.00    -0.109 C  
BRANCH  15  16
HETATM   16  C   UNL     1     -11.031  12.391  66.559  1.00  0.00    -0.312 A  
HETATM   17  C   UNL     1     -12.124  13.231  66.302  1.00  0.00    -0.472 A  
HETATM   18  C   UNL     1     -11.940  14.588  66.034  1.00  0.00    -0.319 A  
HETATM   19  C   UNL     1     -10.664  15.149  66.087  1.00  0.00    -0.325 A  
HETATM   20  C   UNL     1      -9.565  14.340  66.387  1.00  0.00    -0.317 A  
HETATM   21  C   UNL     1      -9.751  12.971  66.628  1.00  0.00    -0.256 A  
BRANCH  19  22
HETATM   22  S   UNL     1     -10.435  16.850  65.605  1.00  0.00    -0.141 S  
HETATM   23  O   UNL     1      -9.017  17.045  65.381  1.00  0.00    -0.079 OA 
HETATM   24  O   UNL     1     -11.387  17.172  64.564  1.00  0.00    -1.034 OA 
BRANCH  22  25
HETATM   25  N   UNL     1     -10.784  17.742  66.977  1.00  0.00    -0.253 N  
HETATM   26  H   UNL     1     -11.377  18.566  66.879  1.00  0.00     0.000 HD 
BRANCH  25  27
HETATM   27  C   UNL     1     -10.311  17.422  68.234  1.00  0.00    -0.374 C  
HETATM   28  O   UNL     1     -10.609  18.059  69.232  1.00  0.00    -0.060 OA 
BRANCH  27  29
HETATM   29  N   UNL     1      -9.480  16.327  68.279  1.00  0.00    -0.211 N  
HETATM   30  H   UNL     1      -9.515  15.615  67.551  1.00  0.00     0.000 HD 
BRANCH  29  31
HETATM   31  C   UNL     1      -8.545  16.210  69.396  1.00  0.00    -0.094 C  
HETATM   32  C   UNL     1      -8.353  14.764  69.871  1.00  0.00     0.401 C  
HETATM   33  C   UNL     1      -7.308  13.965  69.095  1.00  0.00    -0.004 C  
HETATM   34  C   UNL     1      -5.988  14.718  68.895  1.00  0.00    -0.085 C  
HETATM   35  C   UNL     1      -6.262  16.084  68.259  1.00  0.00    -0.116 C  
HETATM   36  C   UNL     1      -5.188  14.846  70.198  1.00  0.00    -0.104 C  
HETATM   37  C   UNL     1      -7.224  16.931  69.090  1.00  0.00    -0.209 C  
ENDBRANCH  29  31
ENDBRANCH  27  29
ENDBRANCH  25  27
ENDBRANCH  22  25
ENDBRANCH  19  22
ENDBRANCH  15  16
ENDBRANCH  14  15
ENDBRANCH  12  14
ENDBRANCH  10  12
ENDBRANCH   7  10
ENDBRANCH   2   3
TORSDOF 11
ENDMDL
MODEL      290
REMARK 921   NORMALIZED FREE ENERGY PREDICTED BY IDOCK:   -3.05 KCAL/MOL
REMARK 922        TOTAL FREE ENERGY PREDICTED BY IDOCK:   -7.32 KCAL/MOL
REMARK 923 INTER-LIGAND FREE ENERGY PREDICTED BY IDOCK:   -6.26 KCAL/MOL
REMARK 924 INTRA-LIGAND FREE ENERGY PREDICTED BY IDOCK:   -1.06 KCAL/MOL
REMARK 927      BINDING AFFINITY PREDICTED BY RF-SCORE:    0.00 PKD
ROOT
HETATM    1  C   UNL     1      -6.525  14.831  67.570  1.00  0.00    -0.090 C  
HETATM    2  C   UNL     1      -7.613  15.419  68.456  1.00  0.00    -0.122 C  
ENDROOT
BRANCH   2   3
HETATM    3  C   UNL     1      -8.947  15.360  67.801  1.00  0.00    -0.173 C  
HETATM    4  C   UNL     1      -9.531  16.167  66.902  1.00  0.00    -0.245 C  
HETATM    5  C   UNL     1     -10.903  15.705  66.532  1.00  0.00    -0.260 C  
HETATM    6  C   UNL     1      -8.948  17.370  66.249  1.00  0.00    -0.239 C  
HETATM    7  N   UNL     1     -11.016  14.473  67.263  1.00  0.00    -0.297 N  
HETATM    8  O   UNL     1      -9.732  13.386  68.900  1.00  0.00    -0.047 OA 
HETATM    9  C   UNL     1      -9.910  14.274  68.081  1.00  0.00    -0.226 C  
BRANCH   7  10
HETATM   10  C   UNL     1     -12.013  13.564  66.959  1.00  0.00    -0.394 C  
HETATM   11  O   UNL     1     -12.490  12.804  67.800  1.00  0.00    -0.078 OA 
BRANCH  10  12
HETATM   12  N   UNL     1     -12.456  13.603  65.662  1.00  0.00    -0.485 N  
HETATM   13  H   UNL     1     -13.000  14.411  65.358  1.00  0.00     0.000 HD 
BRANCH  12  14
HETATM   14  C   UNL     1     -12.187  12.551  64.702  1.00  0.00    -0.453 C  
BRANCH  14  15
HETATM   15  C   UNL     1     -10.788  12.652  64.070  1.00  0.00    -0.452 C  
BRANCH  15  16
HETATM   16  C   UNL     1      -9.904  11.439  64.300  1.00  0.00    -0.301 A  
HETATM   17  C   UNL     1      -9.659  10.504  63.282  1.00  0.00    -0.373 A  
HETATM   18  C   UNL     1      -8.891   9.364  63.523  1.00  0.00    -0.198 A  
HETATM   19  C   UNL     1      -8.294   9.168  64.768  1.00  0.00    -0.169 A  
HETATM   20  C   UNL     1      -8.486  10.109  65.784  1.00  0.00    -0.153 A  
HETATM   21  C   UNL     1      -9.281  11.240  65.545  1.00  0.00    -0.220 A  
BRANCH  19  22
HETATM   22  S   UNL     1      -7.436   7.640  65.096  1.00  0.00    -0.094 S  
HETATM   23  O   UNL     1      -8.073   6.611  64.298  1.00  0.00    -0.114 OA 
HETATM   24  O   UNL     1      -6.013   7.871  64.984  1.00  0.00    -0.041 OA 
BRANCH  22  25
HETATM   25  N   UNL     1      -7.818   7.257  66.679  1.00  0.00    -0.100 N  
HETATM   26  H   UNL     1      -7.088   7.343  67.387  1.00  0.00     0.000 HD 
BRANCH  25  27
HETATM   27  C   UNL     1      -9.069   6.831  67.080  1.00  0.00    -0.131 C  
HETATM   28  O   UNL     1     -10.073   7.014  66.409  1.00  0.00    -0.113 OA 
BRANCH  27  29
HETATM   29  N   UNL     1      -9.100   6.182  68.292  1.00  0.00    -0.114 N  
HETATM   30  H   UNL     1      -9.936   6.206  68.875  1.00  0.00     0.000 HD 
BRANCH  29  31
HETATM   31  C   UNL     1      -7.906   5.458  68.723  1.00  0.00    -0.087 C  
HETATM   32  C   UNL     1      -7.847   5.245  70.240  1.00  0.00    -0.083 C  
HETATM   33  C   UNL     1      -8.604   4.019  70.749  1.00  0.00    -0.106 C  
HETATM   34  C   UNL     1      -8.314   2.746  69.946  1.00  0.00    -0.077 C  
HETATM   35  C   UNL     1      -8.564   3.004  68.457  1.00  0.00    -0.118 C  
HETATM   36  C   UNL     1      -6.901   2.205  70.202  1.00  0.00    -0.033 C  
HETATM   37  C   UNL     1      -7.726   4.162  67.918  1.00  0.00    -0.071 C  
ENDBRANCH  29  31
ENDBRANCH  27  29
ENDBRANCH  25  27
ENDBRANCH  22  25
ENDBRANCH  19  22
ENDBRANCH  15  16
ENDBRANCH  14  15
ENDBRANCH  12  14
ENDBRANCH  10  12
ENDBRANCH   7  10
ENDBRANCH   2   3
TORSDOF 11
ENDMDL
MODEL      291
REMARK 921   NORMALIZED FREE ENERGY PREDICTED BY IDOCK:   -3.05 KCAL/MOL
REMARK 922        TOTAL FREE ENERGY PREDICTED BY IDOCK:   -7.32 KCAL/MOL
REMARK 923 INTER-LIGAND FREE ENERGY PREDICTED BY IDOCK:   -5.95 KCAL/MOL
REMARK 924 INTRA-LIGAND FREE ENERGY PREDICTED BY IDOCK:   -1.37 KCAL/MOL
REMARK 927      BINDING AFFINITY PREDICTED BY RF-SCORE:    0.00 PKD
ROOT
HETATM    1  C   UNL     1     -11.125  17.008  64.832  1.00  0.00     0.141 C  
HETATM    2  C   UNL     1     -10.187  16.048  65.548  1.00  0.00    -0.389 C  
ENDROOT
BRANCH   2   3
HETATM    3  C   UNL     1     -10.933  14.977  66.259  1.00  0.00    -0.338 C  
HETATM    4  C   UNL     1     -11.685  13.965  65.800  1.00  0.00    -0.369 C  
HETATM    5  C   UNL     1     -12.249  13.132  66.904  1.00  0.00    -0.222 C  
HETATM    6  C   UNL     1     -11.944  13.597  64.382  1.00  0.00    -0.476 C  
HETATM    7  N   UNL     1     -11.659  13.732  68.070  1.00  0.00    -0.313 N  
HETATM    8  O   UNL     1     -10.393  15.664  68.485  1.00  0.00    -0.213 OA 
HETATM    9  C   UNL     1     -10.934  14.869  67.733  1.00  0.00    -0.293 C  
BRANCH   7  10
HETATM   10  C   UNL     1     -11.673  13.071  69.284  1.00  0.00    -0.320 C  
HETATM   11  O   UNL     1     -12.256  13.516  70.270  1.00  0.00    -0.336 OA 
BRANCH  10  12
HETATM   12  N   UNL     1     -11.023  11.863  69.293  1.00  0.00    -0.397 N  
HETATM   13  H   UNL     1     -11.547  11.031  69.568  1.00  0.00     0.000 HD 
BRANCH  12  14
HETATM   14  C   UNL     1      -9.628  11.712  68.933  1.00  0.00     0.009 C  
BRANCH  14  15
HETATM   15  C   UNL     1      -9.427  11.036  67.565  1.00  0.00    -0.175 C  
BRANCH  15  16
HETATM   16  C   UNL     1      -9.430   9.518  67.607  1.00  0.00    -0.153 A  
HETATM   17  C   UNL     1      -9.422   8.750  66.433  1.00  0.00    -0.291 A  
HETATM   18  C   UNL     1      -9.483   7.357  66.484  1.00  0.00    -0.229 A  
HETATM   19  C   UNL     1      -9.483   6.698  67.713  1.00  0.00    -0.120 A  
HETATM   20  C   UNL     1      -9.445   7.440  68.897  1.00  0.00    -0.144 A  
HETATM   21  C   UNL     1      -9.412   8.842  68.840  1.00  0.00    -0.145 A  
BRANCH  19  22
HETATM   22  S   UNL     1      -9.703   4.929  67.757  1.00  0.00    -0.150 S  
HETATM   23  O   UNL     1     -10.217   4.594  69.070  1.00  0.00    -0.124 OA 
HETATM   24  O   UNL     1     -10.418   4.518  66.569  1.00  0.00    -0.209 OA 
BRANCH  22  25
HETATM   25  N   UNL     1      -8.155   4.297  67.725  1.00  0.00    -0.094 N  
HETATM   26  H   UNL     1      -7.376   4.935  67.562  1.00  0.00     0.000 HD 
BRANCH  25  27
HETATM   27  C   UNL     1      -7.875   2.957  67.907  1.00  0.00    -0.059 C  
HETATM   28  O   UNL     1      -7.286   2.287  67.074  1.00  0.00    -0.054 OA 
BRANCH  27  29
HETATM   29  N   UNL     1      -8.308   2.432  69.102  1.00  0.00    -0.051 N  
HETATM   30  H   UNL     1      -9.248   2.048  69.193  1.00  0.00     0.000 HD 
BRANCH  29  31
HETATM   31  C   UNL     1      -7.389   2.438  70.238  1.00  0.00    -0.033 C  
HETATM   32  C   UNL     1      -6.572   3.731  70.344  1.00  0.00    -0.032 C  
HETATM   33  C   UNL     1      -7.268   4.874  71.081  1.00  0.00    -0.056 C  
HETATM   34  C   UNL     1      -7.902   4.447  72.410  1.00  0.00    -0.092 C  
HETATM   35  C   UNL     1      -8.835   3.254  72.178  1.00  0.00    -0.123 C  
HETATM   36  C   UNL     1      -6.853   4.149  73.488  1.00  0.00    -0.058 C  
HETATM   37  C   UNL     1      -8.116   2.068  71.540  1.00  0.00    -0.043 C  
ENDBRANCH  29  31
ENDBRANCH  27  29
ENDBRANCH  25  27
ENDBRANCH  22  25
ENDBRANCH  19  22
ENDBRANCH  15  16
ENDBRANCH  14  15
ENDBRANCH  12  14
ENDBRANCH  10  12
ENDBRANCH   7  10
ENDBRANCH   2   3
TORSDOF 11
ENDMDL
MODEL      292
REMARK 921   NORMALIZED FREE ENERGY PREDICTED BY IDOCK:   -3.00 KCAL/MOL
REMARK 922        TOTAL FREE ENERGY PREDICTED BY IDOCK:   -7.24 KCAL/MOL
REMARK 923 INTER-LIGAND FREE ENERGY PREDICTED BY IDOCK:   -5.45 KCAL/MOL
REMARK 924 INTRA-LIGAND FREE ENERGY PREDICTED BY IDOCK:   -1.79 KCAL/MOL
REMARK 927      BINDING AFFINITY PREDICTED BY RF-SCORE:    0.00 PKD
ROOT
HETATM    1  C   UNL     1     -10.180  11.218  65.193  1.00  0.00    -0.344 C  
HETATM    2  C   UNL     1     -10.550  11.884  66.510  1.00  0.00    -0.278 C  
ENDROOT
BRANCH   2   3
HETATM    3  C   UNL     1      -9.749  11.346  67.642  1.00  0.00    -0.183 C  
HETATM    4  C   UNL     1      -8.641  11.805  68.242  1.00  0.00    -0.162 C  
HETATM    5  C   UNL     1      -8.185  10.912  69.350  1.00  0.00     0.038 C  
HETATM    6  C   UNL     1      -7.907  13.066  67.951  1.00  0.00    -0.149 C  
HETATM    7  N   UNL     1      -9.220   9.915  69.382  1.00  0.00    -0.200 N  
HETATM    8  O   UNL     1     -11.055   9.378  68.021  1.00  0.00    -0.123 OA 
HETATM    9  C   UNL     1     -10.122  10.098  68.340  1.00  0.00    -0.164 C  
BRANCH   7  10
HETATM   10  C   UNL     1      -9.349   9.071  70.470  1.00  0.00    -0.219 C  
HETATM   11  O   UNL     1      -8.634   8.083  70.625  1.00  0.00    -0.125 OA 
BRANCH  10  12
HETATM   12  N   UNL     1     -10.305   9.441  71.380  1.00  0.00    -0.310 N  
HETATM   13  H   UNL     1     -10.001   9.807  72.283  1.00  0.00     0.000 HD 
BRANCH  12  14
HETATM   14  C   UNL     1     -11.727   9.338  71.121  1.00  0.00    -0.325 C  
BRANCH  14  15
HETATM   15  C   UNL     1     -12.371   8.099  71.767  1.00  0.00    -0.357 C  
BRANCH  15  16
HETATM   16  C   UNL     1     -11.582   6.813  71.586  1.00  0.00    -0.336 A  
HETATM   17  C   UNL     1     -11.024   6.134  72.680  1.00  0.00    -0.291 A  
HETATM   18  C   UNL     1     -10.253   4.985  72.495  1.00  0.00    -0.247 A  
HETATM   19  C   UNL     1     -10.081   4.451  71.218  1.00  0.00    -0.132 A  
HETATM   20  C   UNL     1     -10.667   5.085  70.118  1.00  0.00     0.046 A  
HETATM   21  C   UNL     1     -11.418   6.255  70.306  1.00  0.00    -0.428 A  
BRANCH  19  22
HETATM   22  S   UNL     1      -8.980   3.068  70.988  1.00  0.00    -0.109 S  
HETATM   23  O   UNL     1      -9.075   2.243  72.176  1.00  0.00    -0.075 OA 
HETATM   24  O   UNL     1      -9.220   2.493  69.683  1.00  0.00    -0.111 OA 
BRANCH  22  25
HETATM   25  N   UNL     1      -7.442   3.722  71.037  1.00  0.00    -0.040 N  
HETATM   26  H   UNL     1      -6.831   3.464  71.812  1.00  0.00     0.000 HD 
BRANCH  25  27
HETATM   27  C   UNL     1      -6.954   4.594  70.083  1.00  0.00    -0.048 C  
HETATM   28  O   UNL     1      -6.049   5.381  70.311  1.00  0.00    -0.020 OA 
BRANCH  27  29
HETATM   29  N   UNL     1      -7.563   4.507  68.853  1.00  0.00    -0.060 N  
HETATM   30  H   UNL     1      -8.410   3.954  68.728  1.00  0.00     0.000 HD 
BRANCH  29  31
HETATM   31  C   UNL     1      -6.966   5.225  67.729  1.00  0.00    -0.065 C  
HETATM   32  C   UNL     1      -6.936   4.402  66.436  1.00  0.00    -0.062 C  
HETATM   33  C   UNL     1      -8.219   4.457  65.608  1.00  0.00    -0.109 C  
HETATM   34  C   UNL     1      -8.757   5.879  65.410  1.00  0.00    -0.109 C  
HETATM   35  C   UNL     1      -8.915   6.567  66.770  1.00  0.00    -0.136 C  
HETATM   36  C   UNL     1      -7.888   6.702  64.452  1.00  0.00    -0.114 C  
HETATM   37  C   UNL     1      -7.607   6.610  67.556  1.00  0.00    -0.105 C  
ENDBRANCH  29  31
ENDBRANCH  27  29
ENDBRANCH  25  27
ENDBRANCH  22  25
ENDBRANCH  19  22
ENDBRANCH  15  16
ENDBRANCH  14  15
ENDBRANCH  12  14
ENDBRANCH  10  12
ENDBRANCH   7  10
ENDBRANCH   2   3
TORSDOF 11
ENDMDL
MODEL      293
REMARK 921   NORMALIZED FREE ENERGY PREDICTED BY IDOCK:   -2.98 KCAL/MOL
REMARK 922        TOTAL FREE ENERGY PREDICTED BY IDOCK:   -7.20 KCAL/MOL
REMARK 923 INTER-LIGAND FREE ENERGY PREDICTED BY IDOCK:   -5.66 KCAL/MOL
REMARK 924 INTRA-LIGAND FREE ENERGY PREDICTED BY IDOCK:   -1.54 KCAL/MOL
REMARK 927      BINDING AFFINITY PREDICTED BY RF-SCORE:    0.00 PKD
ROOT
HETATM    1  C   UNL     1     -11.731  12.305  65.472  1.00  0.00    -0.433 C  
HETATM    2  C   UNL     1     -12.246  13.677  65.880  1.00  0.00    -0.502 C  
ENDROOT
BRANCH   2   3
HETATM    3  C   UNL     1     -11.386  14.300  66.921  1.00  0.00    -0.354 C  
HETATM    4  C   UNL     1     -11.429  14.238  68.261  1.00  0.00    -0.334 C  
HETATM    5  C   UNL     1     -10.346  15.045  68.901  1.00  0.00    -0.244 C  
HETATM    6  C   UNL     1     -12.366  13.447  69.103  1.00  0.00    -0.050 C  
HETATM    7  N   UNL     1      -9.607  15.518  67.762  1.00  0.00    -0.209 N  
HETATM    8  O   UNL     1      -9.928  15.481  65.437  1.00  0.00    -0.337 OA 
HETATM    9  C   UNL     1     -10.234  15.159  66.575  1.00  0.00    -0.276 C  
BRANCH   7  10
HETATM   10  C   UNL     1      -8.339  16.048  67.918  1.00  0.00    -0.153 C  
HETATM   11  O   UNL     1      -8.138  17.116  68.493  1.00  0.00    -0.241 OA 
BRANCH  10  12
HETATM   12  N   UNL     1      -7.323  15.274  67.420  1.00  0.00    -0.200 N  
HETATM   13  H   UNL     1      -6.870  15.565  66.553  1.00  0.00     0.000 HD 
BRANCH  12  14
HETATM   14  C   UNL     1      -6.861  14.062  68.067  1.00  0.00    -0.145 C  
BRANCH  14  15
HETATM   15  C   UNL     1      -7.375  12.781  67.387  1.00  0.00    -0.135 C  
BRANCH  15  16
HETATM   16  C   UNL     1      -7.601  11.613  68.332  1.00  0.00    -0.126 A  
HETATM   17  C   UNL     1      -8.884  11.104  68.577  1.00  0.00    -0.161 A  
HETATM   18  C   UNL     1      -9.085  10.068  69.491  1.00  0.00    -0.236 A  
HETATM   19  C   UNL     1      -7.996   9.473  70.129  1.00  0.00    -0.160 A  
HETATM   20  C   UNL     1      -6.703   9.933  69.865  1.00  0.00    -0.088 A  
HETATM   21  C   UNL     1      -6.510  10.993  68.966  1.00  0.00    -0.056 A  
BRANCH  19  22
HETATM   22  S   UNL     1      -8.285   8.250  71.394  1.00  0.00    -0.144 S  
HETATM   23  O   UNL     1      -7.196   8.353  72.345  1.00  0.00    -0.100 OA 
HETATM   24  O   UNL     1      -9.656   8.359  71.843  1.00  0.00    -0.202 OA 
BRANCH  22  25
HETATM   25  N   UNL     1      -8.060   6.777  70.635  1.00  0.00    -0.117 N  
HETATM   26  H   UNL     1      -7.857   5.962  71.214  1.00  0.00     0.000 HD 
BRANCH  25  27
HETATM   27  C   UNL     1      -8.134   6.605  69.267  1.00  0.00    -0.116 C  
HETATM   28  O   UNL     1      -9.195   6.563  68.665  1.00  0.00    -0.128 OA 
BRANCH  27  29
HETATM   29  N   UNL     1      -6.921   6.488  68.631  1.00  0.00    -0.077 N  
HETATM   30  H   UNL     1      -6.474   7.300  68.206  1.00  0.00     0.000 HD 
BRANCH  29  31
HETATM   31  C   UNL     1      -6.287   5.172  68.578  1.00  0.00    -0.035 C  
HETATM   32  C   UNL     1      -7.205   4.043  69.065  1.00  0.00    -0.054 C  
HETATM   33  C   UNL     1      -8.147   3.477  68.005  1.00  0.00    -0.082 C  
HETATM   34  C   UNL     1      -7.452   3.163  66.675  1.00  0.00    -0.075 C  
HETATM   35  C   UNL     1      -6.700   4.402  66.179  1.00  0.00    -0.050 C  
HETATM   36  C   UNL     1      -6.533   1.939  66.772  1.00  0.00    -0.027 C  
HETATM   37  C   UNL     1      -5.677   4.907  67.194  1.00  0.00    -0.014 C  
ENDBRANCH  29  31
ENDBRANCH  27  29
ENDBRANCH  25  27
ENDBRANCH  22  25
ENDBRANCH  19  22
ENDBRANCH  15  16
ENDBRANCH  14  15
ENDBRANCH  12  14
ENDBRANCH  10  12
ENDBRANCH   7  10
ENDBRANCH   2   3
TORSDOF 11
ENDMDL
MODEL      294
REMARK 921   NORMALIZED FREE ENERGY PREDICTED BY IDOCK:   -2.95 KCAL/MOL
REMARK 922        TOTAL FREE ENERGY PREDICTED BY IDOCK:   -7.15 KCAL/MOL
REMARK 923 INTER-LIGAND FREE ENERGY PREDICTED BY IDOCK:   -7.33 KCAL/MOL
REMARK 924 INTRA-LIGAND FREE ENERGY PREDICTED BY IDOCK:    0.18 KCAL/MOL
REMARK 927      BINDING AFFINITY PREDICTED BY RF-SCORE:    0.00 PKD
ROOT
HETATM    1  C   UNL     1      -6.074  19.838  69.846  1.00  0.00    -0.356 C  
HETATM    2  C   UNL     1      -5.736  18.356  69.786  1.00  0.00    -0.243 C  
ENDROOT
BRANCH   2   3
HETATM    3  C   UNL     1      -6.570  17.641  68.785  1.00  0.00    -0.218 C  
HETATM    4  C   UNL     1      -7.057  18.029  67.596  1.00  0.00    -0.202 C  
HETATM    5  C   UNL     1      -7.859  16.955  66.935  1.00  0.00    -0.217 C  
HETATM    6  C   UNL     1      -6.838  19.328  66.906  1.00  0.00    -0.206 C  
HETATM    7  N   UNL     1      -7.706  15.856  67.848  1.00  0.00    -0.131 N  
HETATM    8  O   UNL     1      -6.797  15.590  69.995  1.00  0.00    -0.133 OA 
HETATM    9  C   UNL     1      -7.013  16.245  68.988  1.00  0.00    -0.188 C  
BRANCH   7  10
HETATM   10  C   UNL     1      -8.035  14.569  67.460  1.00  0.00    -0.191 C  
HETATM   11  O   UNL     1      -7.378  13.590  67.805  1.00  0.00    -0.129 OA 
BRANCH  10  12
HETATM   12  N   UNL     1      -9.171  14.467  66.698  1.00  0.00    -0.298 N  
HETATM   13  H   UNL     1      -9.071  14.299  65.697  1.00  0.00     0.000 HD 
BRANCH  12  14
HETATM   14  C   UNL     1     -10.506  14.585  67.249  1.00  0.00    -0.266 C  
BRANCH  14  15
HETATM   15  C   UNL     1     -11.527  13.661  66.562  1.00  0.00    -0.357 C  
BRANCH  15  16
HETATM   16  C   UNL     1     -11.225  12.178  66.698  1.00  0.00    -0.375 A  
HETATM   17  C   UNL     1     -11.619  11.449  67.830  1.00  0.00    -0.325 A  
HETATM   18  C   UNL     1     -11.286  10.100  67.968  1.00  0.00    -0.152 A  
HETATM   19  C   UNL     1     -10.610   9.434  66.946  1.00  0.00    -0.167 A  
HETATM   20  C   UNL     1     -10.248  10.129  65.789  1.00  0.00    -0.283 A  
HETATM   21  C   UNL     1     -10.561  11.491  65.666  1.00  0.00    -0.326 A  
BRANCH  19  22
HETATM   22  S   UNL     1     -10.072   7.754  67.202  1.00  0.00    -0.287 S  
HETATM   23  O   UNL     1     -11.250   6.912  67.135  1.00  0.00    -0.352 OA 
HETATM   24  O   UNL     1      -8.940   7.491  66.342  1.00  0.00    -0.153 OA 
BRANCH  22  25
HETATM   25  N   UNL     1      -9.587   7.691  68.802  1.00  0.00    -0.152 N  
HETATM   26  H   UNL     1     -10.306   7.672  69.525  1.00  0.00     0.000 HD 
BRANCH  25  27
HETATM   27  C   UNL     1      -8.263   7.663  69.195  1.00  0.00    -0.130 C  
HETATM   28  O   UNL     1      -7.356   8.069  68.486  1.00  0.00    -0.092 OA 
BRANCH  27  29
HETATM   29  N   UNL     1      -8.043   7.146  70.450  1.00  0.00    -0.116 N  
HETATM   30  H   UNL     1      -7.182   7.352  70.956  1.00  0.00     0.000 HD 
BRANCH  29  31
HETATM   31  C   UNL     1      -9.071   6.293  71.041  1.00  0.00    -0.154 C  
HETATM   32  C   UNL     1      -8.493   5.104  71.820  1.00  0.00    -0.125 C  
HETATM   33  C   UNL     1      -8.111   5.407  73.267  1.00  0.00    -0.111 C  
HETATM   34  C   UNL     1      -9.196   6.168  74.038  1.00  0.00    -0.140 C  
HETATM   35  C   UNL     1      -9.590   7.432  73.267  1.00  0.00    -0.281 C  
HETATM   36  C   UNL     1     -10.412   5.289  74.353  1.00  0.00    -0.277 C  
HETATM   37  C   UNL     1     -10.078   7.122  71.853  1.00  0.00    -0.197 C  
ENDBRANCH  29  31
ENDBRANCH  27  29
ENDBRANCH  25  27
ENDBRANCH  22  25
ENDBRANCH  19  22
ENDBRANCH  15  16
ENDBRANCH  14  15
ENDBRANCH  12  14
ENDBRANCH  10  12
ENDBRANCH   7  10
ENDBRANCH   2   3
TORSDOF 11
ENDMDL
MODEL      295
REMARK 921   NORMALIZED FREE ENERGY PREDICTED BY IDOCK:   -2.90 KCAL/MOL
REMARK 922        TOTAL FREE ENERGY PREDICTED BY IDOCK:   -7.07 KCAL/MOL
REMARK 923 INTER-LIGAND FREE ENERGY PREDICTED BY IDOCK:   -5.31 KCAL/MOL
REMARK 924 INTRA-LIGAND FREE ENERGY PREDICTED BY IDOCK:   -1.76 KCAL/MOL
REMARK 927      BINDING AFFINITY PREDICTED BY RF-SCORE:    0.00 PKD
ROOT
HETATM    1  C   UNL     1     -10.964  12.434  66.187  1.00  0.00    -0.321 C  
HETATM    2  C   UNL     1     -10.974  13.943  66.382  1.00  0.00    -0.303 C  
ENDROOT
BRANCH   2   3
HETATM    3  C   UNL     1     -10.132  14.355  67.536  1.00  0.00    -0.232 C  
HETATM    4  C   UNL     1     -10.429  15.038  68.652  1.00  0.00    -0.238 C  
HETATM    5  C   UNL     1      -9.239  15.221  69.538  1.00  0.00    -0.194 C  
HETATM    6  C   UNL     1     -11.760  15.549  69.076  1.00  0.00    -0.392 C  
HETATM    7  N   UNL     1      -8.225  14.479  68.840  1.00  0.00    -0.141 N  
HETATM    8  O   UNL     1      -8.070  13.440  66.742  1.00  0.00     0.029 OA 
HETATM    9  C   UNL     1      -8.696  14.016  67.618  1.00  0.00    -0.189 C  
BRANCH   7  10
HETATM   10  C   UNL     1      -7.047  14.131  69.476  1.00  0.00    -0.003 C  
HETATM   11  O   UNL     1      -6.782  14.497  70.619  1.00  0.00    -0.044 OA 
BRANCH  10  12
HETATM   12  N   UNL     1      -6.217  13.314  68.751  1.00  0.00    -0.084 N  
HETATM   13  H   UNL     1      -6.060  13.532  67.766  1.00  0.00     0.000 HD 
BRANCH  12  14
HETATM   14  C   UNL     1      -5.555  12.156  69.316  1.00  0.00    -0.069 C  
BRANCH  14  15
HETATM   15  C   UNL     1      -5.936  10.840  68.615  1.00  0.00    -0.039 C  
BRANCH  15  16
HETATM   16  C   UNL     1      -7.082  10.087  69.269  1.00  0.00    -0.074 A  
HETATM   17  C   UNL     1      -8.283   9.839  68.587  1.00  0.00    -0.106 A  
HETATM   18  C   UNL     1      -9.349   9.197  69.219  1.00  0.00    -0.157 A  
HETATM   19  C   UNL     1      -9.213   8.726  70.525  1.00  0.00    -0.188 A  
HETATM   20  C   UNL     1      -8.009   8.920  71.209  1.00  0.00    -0.172 A  
HETATM   21  C   UNL     1      -6.950   9.591  70.579  1.00  0.00    -0.124 A  
BRANCH  19  22
HETATM   22  S   UNL     1     -10.629   8.036  71.358  1.00  0.00    -0.221 S  
HETATM   23  O   UNL     1     -11.095   9.028  72.306  1.00  0.00    -0.298 OA 
HETATM   24  O   UNL     1     -11.535   7.494  70.368  1.00  0.00    -0.269 OA 
BRANCH  22  25
HETATM   25  N   UNL     1     -10.020   6.793  72.297  1.00  0.00    -0.160 N  
HETATM   26  H   UNL     1      -9.230   6.994  72.911  1.00  0.00     0.000 HD 
BRANCH  25  27
HETATM   27  C   UNL     1     -10.528   5.509  72.285  1.00  0.00    -0.217 C  
HETATM   28  O   UNL     1     -11.288   5.093  73.146  1.00  0.00    -0.314 OA 
BRANCH  27  29
HETATM   29  N   UNL     1     -10.117   4.732  71.228  1.00  0.00    -0.197 N  
HETATM   30  H   UNL     1     -10.753   4.067  70.791  1.00  0.00     0.000 HD 
BRANCH  29  31
HETATM   31  C   UNL     1      -8.745   4.883  70.746  1.00  0.00    -0.121 C  
HETATM   32  C   UNL     1      -7.937   3.582  70.816  1.00  0.00    -0.055 C  
HETATM   33  C   UNL     1      -8.107   2.653  69.615  1.00  0.00    -0.057 C  
HETATM   34  C   UNL     1      -7.987   3.370  68.266  1.00  0.00    -0.072 C  
HETATM   35  C   UNL     1      -8.956   4.556  68.222  1.00  0.00    -0.143 C  
HETATM   36  C   UNL     1      -6.547   3.799  67.960  1.00  0.00    -0.042 C  
HETATM   37  C   UNL     1      -8.716   5.546  69.361  1.00  0.00    -0.107 C  
ENDBRANCH  29  31
ENDBRANCH  27  29
ENDBRANCH  25  27
ENDBRANCH  22  25
ENDBRANCH  19  22
ENDBRANCH  15  16
ENDBRANCH  14  15
ENDBRANCH  12  14
ENDBRANCH  10  12
ENDBRANCH   7  10
ENDBRANCH   2   3
TORSDOF 11
ENDMDL
MODEL      296
REMARK 921   NORMALIZED FREE ENERGY PREDICTED BY IDOCK:   -2.85 KCAL/MOL
REMARK 922        TOTAL FREE ENERGY PREDICTED BY IDOCK:   -6.98 KCAL/MOL
REMARK 923 INTER-LIGAND FREE ENERGY PREDICTED BY IDOCK:   -5.55 KCAL/MOL
REMARK 924 INTRA-LIGAND FREE ENERGY PREDICTED BY IDOCK:   -1.43 KCAL/MOL
REMARK 927      BINDING AFFINITY PREDICTED BY RF-SCORE:    0.00 PKD
ROOT
HETATM    1  C   UNL     1      -9.019  18.141  68.338  1.00  0.00    -0.305 C  
HETATM    2  C   UNL     1      -8.295  16.977  67.679  1.00  0.00    -0.196 C  
ENDROOT
BRANCH   2   3
HETATM    3  C   UNL     1      -9.189  15.802  67.502  1.00  0.00    -0.207 C  
HETATM    4  C   UNL     1      -9.630  14.884  68.374  1.00  0.00    -0.209 C  
HETATM    5  C   UNL     1     -10.520  13.870  67.729  1.00  0.00    -0.243 C  
HETATM    6  C   UNL     1      -9.369  14.822  69.837  1.00  0.00     0.402 C  
HETATM    7  N   UNL     1     -10.615  14.364  66.382  1.00  0.00    -0.292 N  
HETATM    8  O   UNL     1      -9.553  16.056  65.151  1.00  0.00    -0.281 OA 
HETATM    9  C   UNL     1      -9.784  15.462  66.192  1.00  0.00    -0.318 C  
BRANCH   7  10
HETATM   10  C   UNL     1     -11.596  13.893  65.529  1.00  0.00    -0.327 C  
HETATM   11  O   UNL     1     -12.774  13.800  65.866  1.00  0.00    -0.467 OA 
BRANCH  10  12
HETATM   12  N   UNL     1     -11.162  13.576  64.267  1.00  0.00    -0.479 N  
HETATM   13  H   UNL     1     -11.045  14.331  63.590  1.00  0.00     0.000 HD 
BRANCH  12  14
HETATM   14  C   UNL     1     -10.862  12.222  63.849  1.00  0.00    -0.412 C  
BRANCH  14  15
HETATM   15  C   UNL     1      -9.416  11.799  64.164  1.00  0.00    -0.001 C  
BRANCH  15  16
HETATM   16  C   UNL     1      -9.211  11.251  65.566  1.00  0.00    -0.220 A  
HETATM   17  C   UNL     1      -8.127  11.652  66.361  1.00  0.00    -0.023 A  
HETATM   18  C   UNL     1      -7.918  11.099  67.625  1.00  0.00    -0.116 A  
HETATM   19  C   UNL     1      -8.828  10.181  68.150  1.00  0.00    -0.126 A  
HETATM   20  C   UNL     1      -9.941   9.801  67.395  1.00  0.00    -0.239 A  
HETATM   21  C   UNL     1     -10.132  10.340  66.113  1.00  0.00    -0.307 A  
BRANCH  19  22
HETATM   22  S   UNL     1      -8.469   9.383  69.703  1.00  0.00    -0.182 S  
HETATM   23  O   UNL     1      -7.200   9.905  70.169  1.00  0.00    -0.123 OA 
HETATM   24  O   UNL     1      -9.640   9.457  70.548  1.00  0.00    -0.239 OA 
BRANCH  22  25
HETATM   25  N   UNL     1      -8.162   7.786  69.311  1.00  0.00    -0.127 N  
HETATM   26  H   UNL     1      -8.671   7.059  69.814  1.00  0.00     0.000 HD 
BRANCH  25  27
HETATM   27  C   UNL     1      -7.257   7.399  68.342  1.00  0.00    -0.093 C  
HETATM   28  O   UNL     1      -6.053   7.556  68.466  1.00  0.00    -0.026 OA 
BRANCH  27  29
HETATM   29  N   UNL     1      -7.815   6.820  67.227  1.00  0.00    -0.108 N  
HETATM   30  H   UNL     1      -8.530   7.307  66.688  1.00  0.00     0.000 HD 
BRANCH  29  31
HETATM   31  C   UNL     1      -7.357   5.490  66.831  1.00  0.00    -0.079 C  
HETATM   32  C   UNL     1      -7.985   5.003  65.520  1.00  0.00    -0.104 C  
HETATM   33  C   UNL     1      -7.274   5.471  64.252  1.00  0.00    -0.051 C  
HETATM   34  C   UNL     1      -5.753   5.286  64.301  1.00  0.00    -0.017 C  
HETATM   35  C   UNL     1      -5.191   5.954  65.561  1.00  0.00    -0.009 C  
HETATM   36  C   UNL     1      -5.341   3.812  64.205  1.00  0.00    -0.009 C  
HETATM   37  C   UNL     1      -5.823   5.408  66.839  1.00  0.00    -0.018 C  
ENDBRANCH  29  31
ENDBRANCH  27  29
ENDBRANCH  25  27
ENDBRANCH  22  25
ENDBRANCH  19  22
ENDBRANCH  15  16
ENDBRANCH  14  15
ENDBRANCH  12  14
ENDBRANCH  10  12
ENDBRANCH   7  10
ENDBRANCH   2   3
TORSDOF 11
ENDMDL
MODEL      297
REMARK 921   NORMALIZED FREE ENERGY PREDICTED BY IDOCK:   -2.80 KCAL/MOL
REMARK 922        TOTAL FREE ENERGY PREDICTED BY IDOCK:   -6.90 KCAL/MOL
REMARK 923 INTER-LIGAND FREE ENERGY PREDICTED BY IDOCK:   -5.94 KCAL/MOL
REMARK 924 INTRA-LIGAND FREE ENERGY PREDICTED BY IDOCK:   -0.96 KCAL/MOL
REMARK 927      BINDING AFFINITY PREDICTED BY RF-SCORE:    0.00 PKD
ROOT
HETATM    1  C   UNL     1     -12.274  13.911  69.235  1.00  0.00    -0.319 C  
HETATM    2  C   UNL     1     -11.232  14.168  68.157  1.00  0.00    -0.299 C  
ENDROOT
BRANCH   2   3
HETATM    3  C   UNL     1     -11.246  13.109  67.114  1.00  0.00    -0.326 C  
HETATM    4  C   UNL     1     -11.888  13.029  65.939  1.00  0.00    -0.468 C  
HETATM    5  C   UNL     1     -11.597  11.751  65.220  1.00  0.00    -0.127 C  
HETATM    6  C   UNL     1     -12.765  14.054  65.312  1.00  0.00    -0.468 C  
HETATM    7  N   UNL     1     -10.630  11.131  66.083  1.00  0.00    -0.260 N  
HETATM    8  O   UNL     1      -9.783  11.577  68.226  1.00  0.00    -0.185 OA 
HETATM    9  C   UNL     1     -10.453  11.868  67.247  1.00  0.00    -0.222 C  
BRANCH   7  10
HETATM   10  C   UNL     1      -9.864  10.071  65.632  1.00  0.00    -0.295 C  
HETATM   11  O   UNL     1      -9.628   9.888  64.440  1.00  0.00    -0.294 OA 
BRANCH  10  12
HETATM   12  N   UNL     1      -9.355   9.265  66.618  1.00  0.00    -0.159 N  
HETATM   13  H   UNL     1      -8.583   9.619  67.185  1.00  0.00     0.000 HD 
BRANCH  12  14
HETATM   14  C   UNL     1      -9.860   7.935  66.893  1.00  0.00    -0.239 C  
BRANCH  14  15
HETATM   15  C   UNL     1      -8.843   6.825  66.574  1.00  0.00    -0.150 C  
BRANCH  15  16
HETATM   16  C   UNL     1      -8.722   5.755  67.646  1.00  0.00    -0.107 A  
HETATM   17  C   UNL     1      -7.473   5.331  68.123  1.00  0.00    -0.076 A  
HETATM   18  C   UNL     1      -7.373   4.307  69.067  1.00  0.00    -0.055 A  
HETATM   19  C   UNL     1      -8.524   3.732  69.605  1.00  0.00    -0.060 A  
HETATM   20  C   UNL     1      -9.781   4.171  69.179  1.00  0.00    -0.205 A  
HETATM   21  C   UNL     1      -9.876   5.182  68.210  1.00  0.00    -0.212 A  
BRANCH  19  22
HETATM   22  S   UNL     1      -8.374   2.334  70.701  1.00  0.00    -0.050 S  
HETATM   23  O   UNL     1      -9.608   1.581  70.607  1.00  0.00    -0.109 OA 
HETATM   24  O   UNL     1      -7.105   1.685  70.457  1.00  0.00    -0.032 OA 
BRANCH  22  25
HETATM   25  N   UNL     1      -8.381   2.986  72.242  1.00  0.00    -0.073 N  
HETATM   26  H   UNL     1      -7.601   2.768  72.862  1.00  0.00     0.000 HD 
BRANCH  25  27
HETATM   27  C   UNL     1      -9.387   3.803  72.719  1.00  0.00    -0.108 C  
HETATM   28  O   UNL     1     -10.555   3.672  72.389  1.00  0.00    -0.100 OA 
BRANCH  27  29
HETATM   29  N   UNL     1      -8.974   4.777  73.598  1.00  0.00    -0.105 N  
HETATM   30  H   UNL     1      -9.591   5.103  74.341  1.00  0.00     0.000 HD 
BRANCH  29  31
HETATM   31  C   UNL     1      -7.632   5.332  73.440  1.00  0.00    -0.096 C  
HETATM   32  C   UNL     1      -7.340   5.804  72.011  1.00  0.00    -0.094 C  
HETATM   33  C   UNL     1      -7.812   7.221  71.691  1.00  0.00    -0.091 C  
HETATM   34  C   UNL     1      -7.424   8.249  72.761  1.00  0.00    -0.152 C  
HETATM   35  C   UNL     1      -7.907   7.774  74.135  1.00  0.00    -0.233 C  
HETATM   36  C   UNL     1      -5.921   8.554  72.758  1.00  0.00    -0.075 C  
HETATM   37  C   UNL     1      -7.348   6.402  74.505  1.00  0.00    -0.099 C  
ENDBRANCH  29  31
ENDBRANCH  27  29
ENDBRANCH  25  27
ENDBRANCH  22  25
ENDBRANCH  19  22
ENDBRANCH  15  16
ENDBRANCH  14  15
ENDBRANCH  12  14
ENDBRANCH  10  12
ENDBRANCH   7  10
ENDBRANCH   2   3
TORSDOF 11
ENDMDL
MODEL      298
REMARK 921   NORMALIZED FREE ENERGY PREDICTED BY IDOCK:   -2.80 KCAL/MOL
REMARK 922        TOTAL FREE ENERGY PREDICTED BY IDOCK:   -6.90 KCAL/MOL
REMARK 923 INTER-LIGAND FREE ENERGY PREDICTED BY IDOCK:   -6.33 KCAL/MOL
REMARK 924 INTRA-LIGAND FREE ENERGY PREDICTED BY IDOCK:   -0.57 KCAL/MOL
REMARK 927      BINDING AFFINITY PREDICTED BY RF-SCORE:    0.00 PKD
ROOT
HETATM    1  C   UNL     1      -6.308   7.210  73.152  1.00  0.00    -0.060 C  
HETATM    2  C   UNL     1      -6.108   7.492  71.670  1.00  0.00    -0.036 C  
ENDROOT
BRANCH   2   3
HETATM    3  C   UNL     1      -7.261   7.018  70.859  1.00  0.00    -0.072 C  
HETATM    4  C   UNL     1      -7.618   5.789  70.458  1.00  0.00    -0.090 C  
HETATM    5  C   UNL     1      -8.871   5.801  69.643  1.00  0.00    -0.122 C  
HETATM    6  C   UNL     1      -6.947   4.500  70.775  1.00  0.00    -0.037 C  
HETATM    7  N   UNL     1      -9.253   7.185  69.693  1.00  0.00    -0.147 N  
HETATM    8  O   UNL     1      -8.251   9.161  70.469  1.00  0.00    -0.142 OA 
HETATM    9  C   UNL     1      -8.288   7.947  70.340  1.00  0.00    -0.121 C  
BRANCH   7  10
HETATM   10  C   UNL     1     -10.528   7.577  69.326  1.00  0.00    -0.214 C  
HETATM   11  O   UNL     1     -11.269   6.861  68.656  1.00  0.00    -0.129 OA 
BRANCH  10  12
HETATM   12  N   UNL     1     -10.916   8.803  69.801  1.00  0.00    -0.373 N  
HETATM   13  H   UNL     1     -10.515   9.134  70.679  1.00  0.00     0.000 HD 
BRANCH  12  14
HETATM   14  C   UNL     1     -11.869   9.652  69.114  1.00  0.00     0.592 C  
BRANCH  14  15
HETATM   15  C   UNL     1     -11.816  11.118  69.578  1.00  0.00    -0.423 C  
BRANCH  15  16
HETATM   16  C   UNL     1     -11.712  12.132  68.451  1.00  0.00    -0.388 A  
HETATM   17  C   UNL     1     -11.667  11.734  67.107  1.00  0.00    -0.267 A  
HETATM   18  C   UNL     1     -11.514  12.671  66.084  1.00  0.00    -0.413 A  
HETATM   19  C   UNL     1     -11.470  14.033  66.379  1.00  0.00    -0.352 A  
HETATM   20  C   UNL     1     -11.559  14.457  67.708  1.00  0.00    -0.384 A  
HETATM   21  C   UNL     1     -11.686  13.509  68.735  1.00  0.00    -0.373 A  
BRANCH  19  22
HETATM   22  S   UNL     1     -11.133  15.201  65.075  1.00  0.00    -0.419 S  
HETATM   23  O   UNL     1     -10.213  14.563  64.156  1.00  0.00     0.284 OA 
HETATM   24  O   UNL     1     -12.388  15.737  64.594  1.00  0.00     0.076 OA 
BRANCH  22  25
HETATM   25  N   UNL     1     -10.246  16.420  65.800  1.00  0.00    -0.356 N  
HETATM   26  H   UNL     1      -9.382  16.168  66.282  1.00  0.00     0.000 HD 
BRANCH  25  27
HETATM   27  C   UNL     1     -10.620  17.749  65.781  1.00  0.00    -0.175 C  
HETATM   28  O   UNL     1     -11.399  18.203  64.958  1.00  0.00    -0.245 OA 
BRANCH  27  29
HETATM   29  N   UNL     1     -10.050  18.526  66.763  1.00  0.00    -0.357 N  
HETATM   30  H   UNL     1     -10.499  18.629  67.672  1.00  0.00     0.000 HD 
BRANCH  29  31
HETATM   31  C   UNL     1      -8.787  19.199  66.471  1.00  0.00    -0.334 C  
HETATM   32  C   UNL     1      -8.593  20.490  67.276  1.00  0.00    -0.372 C  
HETATM   33  C   UNL     1      -8.005  20.296  68.672  1.00  0.00     0.158 C  
HETATM   34  C   UNL     1      -6.779  19.376  68.696  1.00  0.00    -0.329 C  
HETATM   35  C   UNL     1      -7.118  18.044  68.020  1.00  0.00    -0.220 C  
HETATM   36  C   UNL     1      -5.544  20.036  68.070  1.00  0.00    -0.226 C  
HETATM   37  C   UNL     1      -7.603  18.227  66.583  1.00  0.00    -0.259 C  
ENDBRANCH  29  31
ENDBRANCH  27  29
ENDBRANCH  25  27
ENDBRANCH  22  25
ENDBRANCH  19  22
ENDBRANCH  15  16
ENDBRANCH  14  15
ENDBRANCH  12  14
ENDBRANCH  10  12
ENDBRANCH   7  10
ENDBRANCH   2   3
TORSDOF 11
ENDMDL
MODEL      299
REMARK 921   NORMALIZED FREE ENERGY PREDICTED BY IDOCK:   -2.78 KCAL/MOL
REMARK 922        TOTAL FREE ENERGY PREDICTED BY IDOCK:   -6.87 KCAL/MOL
REMARK 923 INTER-LIGAND FREE ENERGY PREDICTED BY IDOCK:   -6.39 KCAL/MOL
REMARK 924 INTRA-LIGAND FREE ENERGY PREDICTED BY IDOCK:   -0.49 KCAL/MOL
REMARK 927      BINDING AFFINITY PREDICTED BY RF-SCORE:    0.00 PKD
ROOT
HETATM    1  C   UNL     1     -11.151  16.791  64.631  1.00  0.00     0.066 C  
HETATM    2  C   UNL     1     -10.329  16.266  65.798  1.00  0.00    -0.393 C  
ENDROOT
BRANCH   2   3
HETATM    3  C   UNL     1     -10.982  15.101  66.451  1.00  0.00    -0.329 C  
HETATM    4  C   UNL     1     -11.620  14.038  65.937  1.00  0.00    -0.350 C  
HETATM    5  C   UNL     1     -12.124  13.113  66.996  1.00  0.00    -0.307 C  
HETATM    6  C   UNL     1     -11.809  13.701  64.500  1.00  0.00    -0.445 C  
HETATM    7  N   UNL     1     -11.622  13.723  68.197  1.00  0.00    -0.314 N  
HETATM    8  O   UNL     1     -10.562  15.753  68.714  1.00  0.00    -0.222 OA 
HETATM    9  C   UNL     1     -11.006  14.938  67.920  1.00  0.00    -0.286 C  
BRANCH   7  10
HETATM   10  C   UNL     1     -11.598  13.019  69.387  1.00  0.00    -0.299 C  
HETATM   11  O   UNL     1     -12.263  13.354  70.364  1.00  0.00    -0.343 OA 
BRANCH  10  12
HETATM   12  N   UNL     1     -10.809  11.896  69.379  1.00  0.00    -0.448 N  
HETATM   13  H   UNL     1     -11.196  11.028  69.750  1.00  0.00     0.000 HD 
BRANCH  12  14
HETATM   14  C   UNL     1      -9.453  11.886  68.870  1.00  0.00     0.110 C  
BRANCH  14  15
HETATM   15  C   UNL     1      -9.354  11.360  67.427  1.00  0.00    -0.171 C  
BRANCH  15  16
HETATM   16  C   UNL     1      -9.409   9.847  67.303  1.00  0.00    -0.167 A  
HETATM   17  C   UNL     1      -9.548   9.217  66.057  1.00  0.00    -0.338 A  
HETATM   18  C   UNL     1      -9.655   7.829  65.961  1.00  0.00    -0.006 A  
HETATM   19  C   UNL     1      -9.556   7.035  67.105  1.00  0.00    -0.149 A  
HETATM   20  C   UNL     1      -9.372   7.639  68.352  1.00  0.00    -0.146 A  
HETATM   21  C   UNL     1      -9.292   9.037  68.446  1.00  0.00    -0.143 A  
BRANCH  19  22
HETATM   22  S   UNL     1      -9.836   5.279  66.978  1.00  0.00    -0.187 S  
HETATM   23  O   UNL     1      -8.549   4.657  66.738  1.00  0.00    -0.109 OA 
HETATM   24  O   UNL     1     -10.651   4.855  68.095  1.00  0.00     0.039 OA 
BRANCH  22  25
HETATM   25  N   UNL     1     -10.688   5.075  65.554  1.00  0.00    -0.574 N  
HETATM   26  H   UNL     1     -11.396   5.769  65.310  1.00  0.00     0.000 HD 
BRANCH  25  27
HETATM   27  C   UNL     1     -10.486   4.018  64.689  1.00  0.00    -0.190 C  
HETATM   28  O   UNL     1     -11.380   3.544  64.006  1.00  0.00    -0.195 OA 
BRANCH  27  29
HETATM   29  N   UNL     1      -9.198   3.538  64.652  1.00  0.00    -0.132 N  
HETATM   30  H   UNL     1      -8.831   2.967  65.414  1.00  0.00     0.000 HD 
BRANCH  29  31
HETATM   31  C   UNL     1      -8.367   3.865  63.496  1.00  0.00    -0.092 C  
HETATM   32  C   UNL     1      -8.357   5.362  63.166  1.00  0.00    -0.101 C  
HETATM   33  C   UNL     1      -7.340   6.188  63.953  1.00  0.00    -0.067 C  
HETATM   34  C   UNL     1      -5.940   5.564  63.985  1.00  0.00    -0.021 C  
HETATM   35  C   UNL     1      -6.028   4.120  64.489  1.00  0.00    -0.018 C  
HETATM   36  C   UNL     1      -5.232   5.652  62.627  1.00  0.00    -0.013 C  
HETATM   37  C   UNL     1      -6.961   3.262  63.637  1.00  0.00    -0.048 C  
ENDBRANCH  29  31
ENDBRANCH  27  29
ENDBRANCH  25  27
ENDBRANCH  22  25
ENDBRANCH  19  22
ENDBRANCH  15  16
ENDBRANCH  14  15
ENDBRANCH  12  14
ENDBRANCH  10  12
ENDBRANCH   7  10
ENDBRANCH   2   3
TORSDOF 11
ENDMDL
MODEL      300
REMARK 921   NORMALIZED FREE ENERGY PREDICTED BY IDOCK:   -2.77 KCAL/MOL
REMARK 922        TOTAL FREE ENERGY PREDICTED BY IDOCK:   -6.86 KCAL/MOL
REMARK 923 INTER-LIGAND FREE ENERGY PREDICTED BY IDOCK:   -6.44 KCAL/MOL
REMARK 924 INTRA-LIGAND FREE ENERGY PREDICTED BY IDOCK:   -0.42 KCAL/MOL
REMARK 927      BINDING AFFINITY PREDICTED BY RF-SCORE:    0.00 PKD
ROOT
HETATM    1  C   UNL     1     -12.155  13.086  66.033  1.00  0.00    -0.493 C  
HETATM    2  C   UNL     1     -10.773  13.516  66.499  1.00  0.00    -0.287 C  
ENDROOT
BRANCH   2   3
HETATM    3  C   UNL     1      -9.758  12.454  66.265  1.00  0.00    -0.253 C  
HETATM    4  C   UNL     1      -9.709  11.456  65.370  1.00  0.00    -0.265 C  
HETATM    5  C   UNL     1      -8.478  10.622  65.518  1.00  0.00    -0.175 C  
HETATM    6  C   UNL     1     -10.684  11.161  64.285  1.00  0.00    -0.403 C  
HETATM    7  N   UNL     1      -7.767  11.313  66.558  1.00  0.00    -0.148 N  
HETATM    8  O   UNL     1      -8.262  13.077  68.025  1.00  0.00    -0.140 OA 
HETATM    9  C   UNL     1      -8.525  12.357  67.074  1.00  0.00    -0.170 C  
BRANCH   7  10
HETATM   10  C   UNL     1      -6.428  11.050  66.789  1.00  0.00    -0.124 C  
HETATM   11  O   UNL     1      -5.529  11.699  66.258  1.00  0.00    -0.279 OA 
BRANCH  10  12
HETATM   12  N   UNL     1      -6.182  10.040  67.684  1.00  0.00    -0.058 N  
HETATM   13  H   UNL     1      -6.318   9.076  67.378  1.00  0.00     0.000 HD 
BRANCH  12  14
HETATM   14  C   UNL     1      -5.739  10.277  69.042  1.00  0.00    -0.037 C  
BRANCH  14  15
HETATM   15  C   UNL     1      -6.868  10.758  69.971  1.00  0.00    -0.126 C  
BRANCH  15  16
HETATM   16  C   UNL     1      -7.932   9.713  70.262  1.00  0.00    -0.198 A  
HETATM   17  C   UNL     1      -7.734   8.711  71.224  1.00  0.00    -0.141 A  
HETATM   18  C   UNL     1      -8.696   7.723  71.441  1.00  0.00    -0.142 A  
HETATM   19  C   UNL     1      -9.907   7.756  70.750  1.00  0.00    -0.180 A  
HETATM   20  C   UNL     1     -10.145   8.772  69.820  1.00  0.00    -0.198 A  
HETATM   21  C   UNL     1      -9.164   9.747  69.585  1.00  0.00    -0.239 A  
BRANCH  19  22
HETATM   22  S   UNL     1     -11.059   6.409  70.939  1.00  0.00    -0.315 S  
HETATM   23  O   UNL     1     -10.603   5.609  72.057  1.00  0.00    -0.215 OA 
HETATM   24  O   UNL     1     -12.404   6.942  70.926  1.00  0.00    -0.386 OA 
BRANCH  22  25
HETATM   25  N   UNL     1     -10.827   5.444  69.593  1.00  0.00    -0.217 N  
HETATM   26  H   UNL     1     -11.509   5.499  68.836  1.00  0.00     0.000 HD 
BRANCH  25  27
HETATM   27  C   UNL     1      -9.761   4.578  69.451  1.00  0.00    -0.202 C  
HETATM   28  O   UNL     1      -9.892   3.364  69.469  1.00  0.00    -0.057 OA 
BRANCH  27  29
HETATM   29  N   UNL     1      -8.539   5.185  69.286  1.00  0.00    -0.096 N  
HETATM   30  H   UNL     1      -7.913   5.322  70.079  1.00  0.00     0.000 HD 
BRANCH  29  31
HETATM   31  C   UNL     1      -8.158   5.628  67.946  1.00  0.00    -0.101 C  
HETATM   32  C   UNL     1      -7.148   4.694  67.268  1.00  0.00    -0.065 C  
HETATM   33  C   UNL     1      -7.763   3.497  66.545  1.00  0.00    -0.081 C  
HETATM   34  C   UNL     1      -8.946   3.870  65.643  1.00  0.00    -0.133 C  
HETATM   35  C   UNL     1      -9.985   4.655  66.450  1.00  0.00    -0.267 C  
HETATM   36  C   UNL     1      -8.504   4.632  64.388  1.00  0.00    -0.130 C  
HETATM   37  C   UNL     1      -9.398   5.914  67.086  1.00  0.00    -0.118 C  
ENDBRANCH  29  31
ENDBRANCH  27  29
ENDBRANCH  25  27
ENDBRANCH  22  25
ENDBRANCH  19  22
ENDBRANCH  15  16
ENDBRANCH  14  15
ENDBRANCH  12  14
ENDBRANCH  10  12
ENDBRANCH   7  10
ENDBRANCH   2   3
TORSDOF 11
ENDMDL
MODEL      301
REMARK 921   NORMALIZED FREE ENERGY PREDICTED BY IDOCK:   -2.76 KCAL/MOL
REMARK 922        TOTAL FREE ENERGY PREDICTED BY IDOCK:   -6.84 KCAL/MOL
REMARK 923 INTER-LIGAND FREE ENERGY PREDICTED BY IDOCK:   -5.47 KCAL/MOL
REMARK 924 INTRA-LIGAND FREE ENERGY PREDICTED BY IDOCK:   -1.36 KCAL/MOL
REMARK 927      BINDING AFFINITY PREDICTED BY RF-SCORE:    0.00 PKD
ROOT
HETATM    1  C   UNL     1     -11.129   4.265  63.230  1.00  0.00     0.452 C  
HETATM    2  C   UNL     1     -10.481   3.957  64.572  1.00  0.00    -0.221 C  
ENDROOT
BRANCH   2   3
HETATM    3  C   UNL     1      -9.010   4.175  64.535  1.00  0.00    -0.142 C  
HETATM    4  C   UNL     1      -8.042   3.572  63.830  1.00  0.00    -0.089 C  
HETATM    5  C   UNL     1      -6.689   4.131  64.132  1.00  0.00    -0.044 C  
HETATM    6  C   UNL     1      -8.195   2.503  62.806  1.00  0.00    -0.073 C  
HETATM    7  N   UNL     1      -6.998   5.201  65.040  1.00  0.00    -0.059 N  
HETATM    8  O   UNL     1      -8.926   5.919  66.170  1.00  0.00    -0.145 OA 
HETATM    9  C   UNL     1      -8.351   5.210  65.359  1.00  0.00    -0.132 C  
BRANCH   7  10
HETATM   10  C   UNL     1      -6.060   6.176  65.323  1.00  0.00    -0.030 C  
HETATM   11  O   UNL     1      -5.573   6.317  66.443  1.00  0.00    -0.013 OA 
BRANCH  10  12
HETATM   12  N   UNL     1      -5.683   6.946  64.252  1.00  0.00    -0.031 N  
HETATM   13  H   UNL     1      -4.728   6.859  63.904  1.00  0.00     0.000 HD 
BRANCH  12  14
HETATM   14  C   UNL     1      -6.577   7.875  63.592  1.00  0.00    -0.063 C  
BRANCH  14  15
HETATM   15  C   UNL     1      -6.403   9.326  64.073  1.00  0.00    -0.090 C  
BRANCH  15  16
HETATM   16  C   UNL     1      -7.456   9.792  65.064  1.00  0.00    -0.127 A  
HETATM   17  C   UNL     1      -8.702   9.155  65.165  1.00  0.00    -0.228 A  
HETATM   18  C   UNL     1      -9.682   9.628  66.039  1.00  0.00    -0.331 A  
HETATM   19  C   UNL     1      -9.412  10.707  66.881  1.00  0.00    -0.165 A  
HETATM   20  C   UNL     1      -8.162  11.329  66.830  1.00  0.00    -0.153 A  
HETATM   21  C   UNL     1      -7.189  10.867  65.930  1.00  0.00    -0.037 A  
BRANCH  19  22
HETATM   22  S   UNL     1     -10.722  11.382  67.885  1.00  0.00    -0.214 S  
HETATM   23  O   UNL     1     -11.956  10.757  67.456  1.00  0.00    -0.313 OA 
HETATM   24  O   UNL     1     -10.321  11.323  69.274  1.00  0.00    -0.176 OA 
BRANCH  22  25
HETATM   25  N   UNL     1     -10.857  12.980  67.410  1.00  0.00    -0.248 N  
HETATM   26  H   UNL     1     -10.819  13.192  66.412  1.00  0.00     0.000 HD 
BRANCH  25  27
HETATM   27  C   UNL     1     -11.018  14.027  68.295  1.00  0.00    -0.255 C  
HETATM   28  O   UNL     1     -12.049  14.207  68.923  1.00  0.00    -0.345 OA 
BRANCH  27  29
HETATM   29  N   UNL     1      -9.926  14.854  68.419  1.00  0.00    -0.217 N  
HETATM   30  H   UNL     1      -9.312  14.790  69.230  1.00  0.00     0.000 HD 
BRANCH  29  31
HETATM   31  C   UNL     1      -9.667  15.827  67.360  1.00  0.00    -0.223 C  
HETATM   32  C   UNL     1     -10.632  17.019  67.388  1.00  0.00    -0.289 C  
HETATM   33  C   UNL     1     -10.230  18.150  68.333  1.00  0.00    -0.401 C  
HETATM   34  C   UNL     1      -8.760  18.563  68.201  1.00  0.00    -0.330 C  
HETATM   35  C   UNL     1      -7.860  17.332  68.356  1.00  0.00    -0.254 C  
HETATM   36  C   UNL     1      -8.480  19.313  66.892  1.00  0.00    -0.308 C  
HETATM   37  C   UNL     1      -8.187  16.241  67.339  1.00  0.00    -0.181 C  
ENDBRANCH  29  31
ENDBRANCH  27  29
ENDBRANCH  25  27
ENDBRANCH  22  25
ENDBRANCH  19  22
ENDBRANCH  15  16
ENDBRANCH  14  15
ENDBRANCH  12  14
ENDBRANCH  10  12
ENDBRANCH   7  10
ENDBRANCH   2   3
TORSDOF 11
ENDMDL
MODEL      302
REMARK 921   NORMALIZED FREE ENERGY PREDICTED BY IDOCK:   -2.72 KCAL/MOL
REMARK 922        TOTAL FREE ENERGY PREDICTED BY IDOCK:   -6.78 KCAL/MOL
REMARK 923 INTER-LIGAND FREE ENERGY PREDICTED BY IDOCK:   -5.57 KCAL/MOL
REMARK 924 INTRA-LIGAND FREE ENERGY PREDICTED BY IDOCK:   -1.21 KCAL/MOL
REMARK 927      BINDING AFFINITY PREDICTED BY RF-SCORE:    0.00 PKD
ROOT
HETATM    1  C   UNL     1     -12.157  15.412  69.370  1.00  0.00    -0.308 C  
HETATM    2  C   UNL     1     -10.820  15.500  68.648  1.00  0.00    -0.267 C  
ENDROOT
BRANCH   2   3
HETATM    3  C   UNL     1     -10.965  15.250  67.190  1.00  0.00    -0.331 C  
HETATM    4  C   UNL     1     -10.541  15.946  66.124  1.00  0.00    -0.310 C  
HETATM    5  C   UNL     1     -10.932  15.300  64.834  1.00  0.00    -0.430 C  
HETATM    6  C   UNL     1      -9.728  17.191  66.118  1.00  0.00    -0.263 C  
HETATM    7  N   UNL     1     -11.563  14.088  65.280  1.00  0.00    -0.326 N  
HETATM    8  O   UNL     1     -12.232  13.228  67.358  1.00  0.00    -0.312 OA 
HETATM    9  C   UNL     1     -11.666  14.059  66.665  1.00  0.00    -0.399 C  
BRANCH   7  10
HETATM   10  C   UNL     1     -11.794  13.050  64.396  1.00  0.00    -0.386 C  
HETATM   11  O   UNL     1     -12.642  13.116  63.509  1.00  0.00    -0.722 OA 
BRANCH  10  12
HETATM   12  N   UNL     1     -10.977  11.960  64.557  1.00  0.00    -0.307 N  
HETATM   13  H   UNL     1     -11.394  11.082  64.868  1.00  0.00     0.000 HD 
BRANCH  12  14
HETATM   14  C   UNL     1      -9.550  11.996  64.308  1.00  0.00     0.019 C  
BRANCH  14  15
HETATM   15  C   UNL     1      -8.726  12.326  65.565  1.00  0.00     0.687 C  
BRANCH  15  16
HETATM   16  C   UNL     1      -8.491  11.145  66.492  1.00  0.00    -0.165 A  
HETATM   17  C   UNL     1      -7.230  10.541  66.607  1.00  0.00    -0.119 A  
HETATM   18  C   UNL     1      -7.041   9.421  67.419  1.00  0.00    -0.086 A  
HETATM   19  C   UNL     1      -8.093   8.923  68.186  1.00  0.00    -0.106 A  
HETATM   20  C   UNL     1      -9.347   9.537  68.123  1.00  0.00    -0.141 A  
HETATM   21  C   UNL     1      -9.540  10.646  67.285  1.00  0.00    -0.186 A  
BRANCH  19  22
HETATM   22  S   UNL     1      -7.868   7.412  69.105  1.00  0.00    -0.118 S  
HETATM   23  O   UNL     1      -7.313   6.433  68.191  1.00  0.00    -0.085 OA 
HETATM   24  O   UNL     1      -7.187   7.717  70.344  1.00  0.00    -0.061 OA 
BRANCH  22  25
HETATM   25  N   UNL     1      -9.414   6.868  69.436  1.00  0.00    -0.149 N  
HETATM   26  H   UNL     1     -10.163   7.557  69.511  1.00  0.00     0.000 HD 
BRANCH  25  27
HETATM   27  C   UNL     1      -9.732   5.535  69.612  1.00  0.00    -0.172 C  
HETATM   28  O   UNL     1     -10.878   5.118  69.557  1.00  0.00    -0.103 OA 
BRANCH  27  29
HETATM   29  N   UNL     1      -8.658   4.710  69.851  1.00  0.00    -0.073 N  
HETATM   30  H   UNL     1      -7.940   4.569  69.141  1.00  0.00     0.000 HD 
BRANCH  29  31
HETATM   31  C   UNL     1      -8.571   4.040  71.146  1.00  0.00    -0.081 C  
HETATM   32  C   UNL     1      -7.663   2.804  71.125  1.00  0.00    -0.043 C  
HETATM   33  C   UNL     1      -6.178   3.093  71.332  1.00  0.00    -0.015 C  
HETATM   34  C   UNL     1      -5.897   4.032  72.511  1.00  0.00    -0.008 C  
HETATM   35  C   UNL     1      -6.721   5.315  72.359  1.00  0.00    -0.069 C  
HETATM   36  C   UNL     1      -6.140   3.355  73.866  1.00  0.00    -0.015 C  
HETATM   37  C   UNL     1      -8.219   5.036  72.261  1.00  0.00    -0.120 C  
ENDBRANCH  29  31
ENDBRANCH  27  29
ENDBRANCH  25  27
ENDBRANCH  22  25
ENDBRANCH  19  22
ENDBRANCH  15  16
ENDBRANCH  14  15
ENDBRANCH  12  14
ENDBRANCH  10  12
ENDBRANCH   7  10
ENDBRANCH   2   3
TORSDOF 11
ENDMDL
MODEL      303
REMARK 921   NORMALIZED FREE ENERGY PREDICTED BY IDOCK:   -2.58 KCAL/MOL
REMARK 922        TOTAL FREE ENERGY PREDICTED BY IDOCK:   -6.55 KCAL/MOL
REMARK 923 INTER-LIGAND FREE ENERGY PREDICTED BY IDOCK:   -5.29 KCAL/MOL
REMARK 924 INTRA-LIGAND FREE ENERGY PREDICTED BY IDOCK:   -1.26 KCAL/MOL
REMARK 927      BINDING AFFINITY PREDICTED BY RF-SCORE:    0.00 PKD
ROOT
HETATM    1  C   UNL     1     -11.319  16.457  64.644  1.00  0.00    -0.166 C  
HETATM    2  C   UNL     1     -10.301  15.341  64.829  1.00  0.00    -0.132 C  
ENDROOT
BRANCH   2   3
HETATM    3  C   UNL     1     -10.848  14.227  65.648  1.00  0.00    -0.311 C  
HETATM    4  C   UNL     1     -11.725  13.256  65.352  1.00  0.00    -0.370 C  
HETATM    5  C   UNL     1     -11.981  12.350  66.512  1.00  0.00    -0.252 C  
HETATM    6  C   UNL     1     -12.380  12.993  64.042  1.00  0.00    -0.437 C  
HETATM    7  N   UNL     1     -11.073  12.861  67.502  1.00  0.00    -0.258 N  
HETATM    8  O   UNL     1      -9.690  14.749  67.674  1.00  0.00    -0.211 OA 
HETATM    9  C   UNL     1     -10.441  14.014  67.053  1.00  0.00    -0.275 C  
BRANCH   7  10
HETATM   10  C   UNL     1     -10.765  12.115  68.625  1.00  0.00    -0.233 C  
HETATM   11  O   UNL     1     -11.234  12.368  69.733  1.00  0.00    -0.115 OA 
BRANCH  10  12
HETATM   12  N   UNL     1      -9.932  11.049  68.402  1.00  0.00    -0.179 N  
HETATM   13  H   UNL     1     -10.299  10.108  68.542  1.00  0.00     0.000 HD 
BRANCH  12  14
HETATM   14  C   UNL     1      -8.555  11.197  67.976  1.00  0.00    -0.140 C  
BRANCH  14  15
HETATM   15  C   UNL     1      -8.371  11.029  66.458  1.00  0.00    -0.163 C  
BRANCH  15  16
HETATM   16  C   UNL     1      -8.342   9.586  65.983  1.00  0.00    -0.123 A  
HETATM   17  C   UNL     1      -7.985   9.252  64.668  1.00  0.00    -0.125 A  
HETATM   18  C   UNL     1      -8.018   7.928  64.228  1.00  0.00    -0.130 A  
HETATM   19  C   UNL     1      -8.342   6.900  65.114  1.00  0.00    -0.076 A  
HETATM   20  C   UNL     1      -8.656   7.204  66.442  1.00  0.00    -0.137 A  
HETATM   21  C   UNL     1      -8.648   8.540  66.872  1.00  0.00    -0.121 A  
BRANCH  19  22
HETATM   22  S   UNL     1      -8.514   5.236  64.498  1.00  0.00    -0.105 S  
HETATM   23  O   UNL     1      -9.538   4.589  65.293  1.00  0.00    -0.164 OA 
HETATM   24  O   UNL     1      -8.632   5.282  63.058  1.00  0.00    -0.126 OA 
BRANCH  22  25
HETATM   25  N   UNL     1      -7.090   4.466  64.919  1.00  0.00    -0.061 N  
HETATM   26  H   UNL     1      -6.259   5.038  65.075  1.00  0.00     0.000 HD 
BRANCH  25  27
HETATM   27  C   UNL     1      -6.978   3.098  65.067  1.00  0.00    -0.056 C  
HETATM   28  O   UNL     1      -6.051   2.457  64.596  1.00  0.00    -0.017 OA 
BRANCH  27  29
HETATM   29  N   UNL     1      -7.989   2.508  65.789  1.00  0.00    -0.081 N  
HETATM   30  H   UNL     1      -8.885   2.293  65.352  1.00  0.00     0.000 HD 
BRANCH  29  31
HETATM   31  C   UNL     1      -7.750   2.199  67.196  1.00  0.00    -0.065 C  
HETATM   32  C   UNL     1      -6.749   3.153  67.860  1.00  0.00    -0.041 C  
HETATM   33  C   UNL     1      -7.354   4.451  68.393  1.00  0.00    -0.064 C  
HETATM   34  C   UNL     1      -8.627   4.238  69.219  1.00  0.00    -0.110 C  
HETATM   35  C   UNL     1      -9.638   3.418  68.409  1.00  0.00    -0.144 C  
HETATM   36  C   UNL     1      -8.338   3.600  70.583  1.00  0.00    -0.092 C  
HETATM   37  C   UNL     1      -9.073   2.070  67.967  1.00  0.00    -0.210 C  
ENDBRANCH  29  31
ENDBRANCH  27  29
ENDBRANCH  25  27
ENDBRANCH  22  25
ENDBRANCH  19  22
ENDBRANCH  15  16
ENDBRANCH  14  15
ENDBRANCH  12  14
ENDBRANCH  10  12
ENDBRANCH   7  10
ENDBRANCH   2   3
TORSDOF 11
ENDMDL
MODEL      304
REMARK 921   NORMALIZED FREE ENERGY PREDICTED BY IDOCK:   -2.56 KCAL/MOL
REMARK 922        TOTAL FREE ENERGY PREDICTED BY IDOCK:   -6.52 KCAL/MOL
REMARK 923 INTER-LIGAND FREE ENERGY PREDICTED BY IDOCK:   -5.45 KCAL/MOL
REMARK 924 INTRA-LIGAND FREE ENERGY PREDICTED BY IDOCK:   -1.07 KCAL/MOL
REMARK 927      BINDING AFFINITY PREDICTED BY RF-SCORE:    0.00 PKD
ROOT
HETATM    1  C   UNL     1     -14.408  15.079  71.160  1.00  0.00    -0.379 C  
HETATM    2  C   UNL     1     -12.972  14.925  71.638  1.00  0.00    -0.415 C  
ENDROOT
BRANCH   2   3
HETATM    3  C   UNL     1     -12.060  14.543  70.528  1.00  0.00    -0.395 C  
HETATM    4  C   UNL     1     -11.789  13.354  69.970  1.00  0.00    -0.364 C  
HETATM    5  C   UNL     1     -10.786  13.459  68.868  1.00  0.00    -0.190 C  
HETATM    6  C   UNL     1     -12.400  12.037  70.299  1.00  0.00    -0.275 C  
HETATM    7  N   UNL     1     -10.568  14.878  68.790  1.00  0.00    -0.239 N  
HETATM    8  O   UNL     1     -11.201  16.731  70.083  1.00  0.00    -0.160 OA 
HETATM    9  C   UNL     1     -11.247  15.544  69.803  1.00  0.00    -0.304 C  
BRANCH   7  10
HETATM   10  C   UNL     1      -9.941  15.433  67.689  1.00  0.00    -0.225 C  
HETATM   11  O   UNL     1      -8.749  15.732  67.691  1.00  0.00    -0.167 OA 
BRANCH  10  12
HETATM   12  N   UNL     1     -10.740  15.587  66.585  1.00  0.00    -0.309 N  
HETATM   13  H   UNL     1     -10.453  16.252  65.867  1.00  0.00     0.000 HD 
BRANCH  12  14
HETATM   14  C   UNL     1     -11.971  14.848  66.390  1.00  0.00    -0.064 C  
BRANCH  14  15
HETATM   15  C   UNL     1     -11.952  13.964  65.131  1.00  0.00    -0.394 C  
BRANCH  15  16
HETATM   16  C   UNL     1     -10.978  12.800  65.193  1.00  0.00    -0.323 A  
HETATM   17  C   UNL     1     -11.423  11.474  65.304  1.00  0.00    -0.091 A  
HETATM   18  C   UNL     1     -10.517  10.418  65.418  1.00  0.00    -0.187 A  
HETATM   19  C   UNL     1      -9.145  10.659  65.353  1.00  0.00    -0.189 A  
HETATM   20  C   UNL     1      -8.678  11.968  65.196  1.00  0.00     0.773 A  
HETATM   21  C   UNL     1      -9.593  13.029  65.110  1.00  0.00     0.165 A  
BRANCH  19  22
HETATM   22  S   UNL     1      -8.006   9.318  65.641  1.00  0.00    -0.105 S  
HETATM   23  O   UNL     1      -6.860   9.538  64.783  1.00  0.00    -0.094 OA 
HETATM   24  O   UNL     1      -7.827   9.157  67.067  1.00  0.00    -0.100 OA 
BRANCH  22  25
HETATM   25  N   UNL     1      -8.762   7.963  65.016  1.00  0.00    -0.381 N  
HETATM   26  H   UNL     1      -9.759   8.019  64.807  1.00  0.00     0.000 HD 
BRANCH  25  27
HETATM   27  C   UNL     1      -8.108   6.773  64.766  1.00  0.00    -0.098 C  
HETATM   28  O   UNL     1      -8.015   6.294  63.647  1.00  0.00    -0.113 OA 
BRANCH  27  29
HETATM   29  N   UNL     1      -7.564   6.167  65.874  1.00  0.00    -0.085 N  
HETATM   30  H   UNL     1      -6.555   6.049  65.962  1.00  0.00     0.000 HD 
BRANCH  29  31
HETATM   31  C   UNL     1      -8.466   5.696  66.922  1.00  0.00    -0.111 C  
HETATM   32  C   UNL     1      -9.270   4.456  66.512  1.00  0.00    -0.145 C  
HETATM   33  C   UNL     1      -8.554   3.124  66.725  1.00  0.00    -0.121 C  
HETATM   34  C   UNL     1      -7.903   2.995  68.107  1.00  0.00    -0.058 C  
HETATM   35  C   UNL     1      -6.984   4.194  68.361  1.00  0.00    -0.051 C  
HETATM   36  C   UNL     1      -8.940   2.824  69.225  1.00  0.00    -0.171 C  
HETATM   37  C   UNL     1      -7.723   5.527  68.256  1.00  0.00    -0.085 C  
ENDBRANCH  29  31
ENDBRANCH  27  29
ENDBRANCH  25  27
ENDBRANCH  22  25
ENDBRANCH  19  22
ENDBRANCH  15  16
ENDBRANCH  14  15
ENDBRANCH  12  14
ENDBRANCH  10  12
ENDBRANCH   7  10
ENDBRANCH   2   3
TORSDOF 11
ENDMDL
MODEL      305
REMARK 921   NORMALIZED FREE ENERGY PREDICTED BY IDOCK:   -2.55 KCAL/MOL
REMARK 922        TOTAL FREE ENERGY PREDICTED BY IDOCK:   -6.50 KCAL/MOL
REMARK 923 INTER-LIGAND FREE ENERGY PREDICTED BY IDOCK:   -5.59 KCAL/MOL
REMARK 924 INTRA-LIGAND FREE ENERGY PREDICTED BY IDOCK:   -0.91 KCAL/MOL
REMARK 927      BINDING AFFINITY PREDICTED BY RF-SCORE:    0.00 PKD
ROOT
HETATM    1  C   UNL     1     -10.291  13.751  67.467  1.00  0.00    -0.241 C  
HETATM    2  C   UNL     1     -10.574  14.034  68.935  1.00  0.00    -0.241 C  
ENDROOT
BRANCH   2   3
HETATM    3  C   UNL     1     -11.132  12.841  69.627  1.00  0.00     0.035 C  
HETATM    4  C   UNL     1     -12.235  12.685  70.373  1.00  0.00    -0.368 C  
HETATM    5  C   UNL     1     -12.388  11.284  70.873  1.00  0.00    -0.388 C  
HETATM    6  C   UNL     1     -13.275  13.704  70.682  1.00  0.00     0.062 C  
HETATM    7  N   UNL     1     -11.278  10.617  70.249  1.00  0.00    -0.303 N  
HETATM    8  O   UNL     1      -9.405  11.304  69.012  1.00  0.00    -0.126 OA 
HETATM    9  C   UNL     1     -10.472  11.520  69.565  1.00  0.00     0.154 C  
BRANCH   7  10
HETATM   10  C   UNL     1     -11.226   9.236  70.198  1.00  0.00    -0.208 C  
HETATM   11  O   UNL     1     -11.507   8.530  71.164  1.00  0.00    -0.263 OA 
BRANCH  10  12
HETATM   12  N   UNL     1     -10.880   8.715  68.977  1.00  0.00    -0.429 N  
HETATM   13  H   UNL     1     -10.425   7.801  68.951  1.00  0.00     0.000 HD 
BRANCH  12  14
HETATM   14  C   UNL     1     -11.129   9.399  67.725  1.00  0.00     0.094 C  
BRANCH  14  15
HETATM   15  C   UNL     1     -10.265   8.871  66.566  1.00  0.00    -0.319 C  
BRANCH  15  16
HETATM   16  C   UNL     1      -9.775   7.444  66.744  1.00  0.00    -0.271 A  
HETATM   17  C   UNL     1     -10.638   6.348  66.596  1.00  0.00    -0.253 A  
HETATM   18  C   UNL     1     -10.189   5.045  66.818  1.00  0.00    -0.286 A  
HETATM   19  C   UNL     1      -8.850   4.805  67.127  1.00  0.00    -0.107 A  
HETATM   20  C   UNL     1      -7.962   5.879  67.235  1.00  0.00    -0.102 A  
HETATM   21  C   UNL     1      -8.424   7.189  67.038  1.00  0.00    -0.122 A  
BRANCH  19  22
HETATM   22  S   UNL     1      -8.331   3.152  67.544  1.00  0.00    -0.087 S  
HETATM   23  O   UNL     1      -8.484   2.341  66.353  1.00  0.00    -0.090 OA 
HETATM   24  O   UNL     1      -7.052   3.220  68.217  1.00  0.00    -0.049 OA 
BRANCH  22  25
HETATM   25  N   UNL     1      -9.492   2.585  68.606  1.00  0.00    -0.178 N  
HETATM   26  H   UNL     1     -10.380   2.259  68.223  1.00  0.00     0.000 HD 
BRANCH  25  27
HETATM   27  C   UNL     1      -9.313   2.534  69.975  1.00  0.00    -0.116 C  
HETATM   28  O   UNL     1      -9.605   1.554  70.642  1.00  0.00    -0.109 OA 
BRANCH  27  29
HETATM   29  N   UNL     1      -8.779   3.672  70.532  1.00  0.00    -0.070 N  
HETATM   30  H   UNL     1      -7.782   3.871  70.456  1.00  0.00     0.000 HD 
BRANCH  29  31
HETATM   31  C   UNL     1      -9.674   4.589  71.235  1.00  0.00    -0.182 C  
HETATM   32  C   UNL     1      -9.784   4.290  72.735  1.00  0.00    -0.181 C  
HETATM   33  C   UNL     1      -8.691   4.918  73.598  1.00  0.00    -0.103 C  
HETATM   34  C   UNL     1      -8.446   6.399  73.291  1.00  0.00    -0.123 C  
HETATM   35  C   UNL     1      -8.176   6.580  71.794  1.00  0.00    -0.112 C  
HETATM   36  C   UNL     1      -9.594   7.293  73.776  1.00  0.00    -0.330 C  
HETATM   37  C   UNL     1      -9.318   6.052  70.929  1.00  0.00    -0.175 C  
ENDBRANCH  29  31
ENDBRANCH  27  29
ENDBRANCH  25  27
ENDBRANCH  22  25
ENDBRANCH  19  22
ENDBRANCH  15  16
ENDBRANCH  14  15
ENDBRANCH  12  14
ENDBRANCH  10  12
ENDBRANCH   7  10
ENDBRANCH   2   3
TORSDOF 11
ENDMDL
MODEL      306
REMARK 921   NORMALIZED FREE ENERGY PREDICTED BY IDOCK:   -2.54 KCAL/MOL
REMARK 922        TOTAL FREE ENERGY PREDICTED BY IDOCK:   -6.47 KCAL/MOL
REMARK 923 INTER-LIGAND FREE ENERGY PREDICTED BY IDOCK:   -7.19 KCAL/MOL
REMARK 924 INTRA-LIGAND FREE ENERGY PREDICTED BY IDOCK:    0.71 KCAL/MOL
REMARK 927      BINDING AFFINITY PREDICTED BY RF-SCORE:    0.00 PKD
ROOT
HETATM    1  C   UNL     1     -13.206  15.293  70.340  1.00  0.00    -0.171 C  
HETATM    2  C   UNL     1     -11.833  15.931  70.181  1.00  0.00    -0.327 C  
ENDROOT
BRANCH   2   3
HETATM    3  C   UNL     1     -11.407  15.972  68.757  1.00  0.00    -0.380 C  
HETATM    4  C   UNL     1     -10.728  16.895  68.060  1.00  0.00    -0.364 C  
HETATM    5  C   UNL     1     -10.534  16.499  66.632  1.00  0.00    -0.266 C  
HETATM    6  C   UNL     1     -10.146  18.168  68.566  1.00  0.00    -0.413 C  
HETATM    7  N   UNL     1     -11.111  15.183  66.602  1.00  0.00    -0.327 N  
HETATM    8  O   UNL     1     -12.359  13.878  68.101  1.00  0.00    -0.250 OA 
HETATM    9  C   UNL     1     -11.702  14.867  67.819  1.00  0.00    -0.317 C  
BRANCH   7  10
HETATM   10  C   UNL     1     -10.863  14.331  65.540  1.00  0.00    -0.322 C  
HETATM   11  O   UNL     1     -11.597  14.274  64.556  1.00  0.00    -0.387 OA 
BRANCH  10  12
HETATM   12  N   UNL     1      -9.715  13.588  65.651  1.00  0.00    -0.488 N  
HETATM   13  H   UNL     1      -9.595  12.785  65.033  1.00  0.00     0.000 HD 
BRANCH  12  14
HETATM   14  C   UNL     1      -8.666  13.888  66.604  1.00  0.00    -0.013 C  
BRANCH  14  15
HETATM   15  C   UNL     1      -8.868  13.196  67.963  1.00  0.00    -0.191 C  
BRANCH  15  16
HETATM   16  C   UNL     1      -9.132  11.702  67.876  1.00  0.00    -0.171 A  
HETATM   17  C   UNL     1      -8.109  10.763  68.068  1.00  0.00    -0.114 A  
HETATM   18  C   UNL     1      -8.353   9.395  67.929  1.00  0.00    -0.115 A  
HETATM   19  C   UNL     1      -9.642   8.935  67.662  1.00  0.00    -0.148 A  
HETATM   20  C   UNL     1     -10.687   9.850  67.513  1.00  0.00    -0.333 A  
HETATM   21  C   UNL     1     -10.431  11.226  67.626  1.00  0.00    -0.225 A  
BRANCH  19  22
HETATM   22  S   UNL     1      -9.904   7.199  67.350  1.00  0.00    -0.169 S  
HETATM   23  O   UNL     1     -11.271   7.047  66.895  1.00  0.00    -0.302 OA 
HETATM   24  O   UNL     1      -8.810   6.700  66.546  1.00  0.00    -0.128 OA 
BRANCH  22  25
HETATM   25  N   UNL     1      -9.866   6.475  68.857  1.00  0.00    -0.133 N  
HETATM   26  H   UNL     1     -10.753   6.241  69.304  1.00  0.00     0.000 HD 
BRANCH  25  27
HETATM   27  C   UNL     1      -8.698   6.175  69.529  1.00  0.00    -0.130 C  
HETATM   28  O   UNL     1      -8.352   6.762  70.543  1.00  0.00    -0.126 OA 
BRANCH  27  29
HETATM   29  N   UNL     1      -7.952   5.163  68.973  1.00  0.00    -0.084 N  
HETATM   30  H   UNL     1      -7.214   5.368  68.300  1.00  0.00     0.000 HD 
BRANCH  29  31
HETATM   31  C   UNL     1      -8.242   3.787  69.369  1.00  0.00    -0.053 C  
HETATM   32  C   UNL     1      -7.192   3.200  70.320  1.00  0.00    -0.040 C  
HETATM   33  C   UNL     1      -7.409   3.523  71.797  1.00  0.00    -0.051 C  
HETATM   34  C   UNL     1      -8.849   3.292  72.268  1.00  0.00    -0.116 C  
HETATM   35  C   UNL     1      -9.819   4.055  71.360  1.00  0.00    -0.249 C  
HETATM   36  C   UNL     1      -9.202   1.802  72.355  1.00  0.00    -0.116 C  
HETATM   37  C   UNL     1      -9.680   3.654  69.893  1.00  0.00    -0.166 C  
ENDBRANCH  29  31
ENDBRANCH  27  29
ENDBRANCH  25  27
ENDBRANCH  22  25
ENDBRANCH  19  22
ENDBRANCH  15  16
ENDBRANCH  14  15
ENDBRANCH  12  14
ENDBRANCH  10  12
ENDBRANCH   7  10
ENDBRANCH   2   3
TORSDOF 11
ENDMDL
MODEL      307
REMARK 921   NORMALIZED FREE ENERGY PREDICTED BY IDOCK:   -2.49 KCAL/MOL
REMARK 922        TOTAL FREE ENERGY PREDICTED BY IDOCK:   -6.40 KCAL/MOL
REMARK 923 INTER-LIGAND FREE ENERGY PREDICTED BY IDOCK:   -5.94 KCAL/MOL
REMARK 924 INTRA-LIGAND FREE ENERGY PREDICTED BY IDOCK:   -0.46 KCAL/MOL
REMARK 927      BINDING AFFINITY PREDICTED BY RF-SCORE:    0.00 PKD
ROOT
HETATM    1  C   UNL     1      -5.587  18.036  70.369  1.00  0.00    -0.221 C  
HETATM    2  C   UNL     1      -5.359  16.534  70.293  1.00  0.00    -0.198 C  
ENDROOT
BRANCH   2   3
HETATM    3  C   UNL     1      -6.115  15.919  69.169  1.00  0.00    -0.129 C  
HETATM    4  C   UNL     1      -6.724  16.464  68.106  1.00  0.00    -0.138 C  
HETATM    5  C   UNL     1      -7.369  15.437  67.233  1.00  0.00    -0.204 C  
HETATM    6  C   UNL     1      -6.766  17.901  67.722  1.00  0.00    -0.194 C  
HETATM    7  N   UNL     1      -6.984  14.209  67.873  1.00  0.00    -0.147 N  
HETATM    8  O   UNL     1      -5.926  13.646  69.891  1.00  0.00    -0.115 OA 
HETATM    9  C   UNL     1      -6.304  14.457  69.060  1.00  0.00    -0.097 C  
BRANCH   7  10
HETATM   10  C   UNL     1      -7.112  13.001  67.212  1.00  0.00    -0.044 C  
HETATM   11  O   UNL     1      -6.140  12.327  66.880  1.00  0.00    -0.221 OA 
BRANCH  10  12
HETATM   12  N   UNL     1      -8.403  12.595  66.993  1.00  0.00    -0.301 N  
HETATM   13  H   UNL     1      -8.688  12.376  66.038  1.00  0.00     0.000 HD 
BRANCH  12  14
HETATM   14  C   UNL     1      -9.382  12.464  68.053  1.00  0.00    -0.204 C  
BRANCH  14  15
HETATM   15  C   UNL     1     -10.600  11.616  67.648  1.00  0.00    -0.237 C  
BRANCH  15  16
HETATM   16  C   UNL     1     -10.297  10.144  67.422  1.00  0.00    -0.289 A  
HETATM   17  C   UNL     1     -10.518   9.186  68.423  1.00  0.00    -0.241 A  
HETATM   18  C   UNL     1     -10.182   7.846  68.222  1.00  0.00    -0.240 A  
HETATM   19  C   UNL     1      -9.680   7.424  66.991  1.00  0.00    -0.191 A  
HETATM   20  C   UNL     1      -9.495   8.353  65.963  1.00  0.00    -0.224 A  
HETATM   21  C   UNL     1      -9.809   9.704  66.179  1.00  0.00    -0.334 A  
BRANCH  19  22
HETATM   22  S   UNL     1      -9.127   5.740  66.803  1.00  0.00    -0.130 S  
HETATM   23  O   UNL     1     -10.123   4.890  67.423  1.00  0.00    -0.179 OA 
HETATM   24  O   UNL     1      -8.745   5.526  65.425  1.00  0.00    -0.152 OA 
BRANCH  22  25
HETATM   25  N   UNL     1      -7.778   5.612  67.784  1.00  0.00    -0.095 N  
HETATM   26  H   UNL     1      -6.966   6.190  67.566  1.00  0.00     0.000 HD 
BRANCH  25  27
HETATM   27  C   UNL     1      -7.705   4.766  68.873  1.00  0.00    -0.072 C  
HETATM   28  O   UNL     1      -7.666   3.551  68.762  1.00  0.00    -0.053 OA 
BRANCH  27  29
HETATM   29  N   UNL     1      -7.676   5.396  70.095  1.00  0.00    -0.075 N  
HETATM   30  H   UNL     1      -6.795   5.541  70.587  1.00  0.00     0.000 HD 
BRANCH  29  31
HETATM   31  C   UNL     1      -8.939   5.853  70.672  1.00  0.00    -0.145 C  
HETATM   32  C   UNL     1      -9.629   4.786  71.531  1.00  0.00    -0.220 C  
HETATM   33  C   UNL     1      -9.152   4.720  72.980  1.00  0.00    -0.127 C  
HETATM   34  C   UNL     1      -9.076   6.091  73.661  1.00  0.00    -0.127 C  
HETATM   35  C   UNL     1      -8.224   7.043  72.815  1.00  0.00    -0.118 C  
HETATM   36  C   UNL     1     -10.464   6.675  73.954  1.00  0.00    -0.351 C  
HETATM   37  C   UNL     1      -8.762   7.197  71.394  1.00  0.00    -0.124 C  
ENDBRANCH  29  31
ENDBRANCH  27  29
ENDBRANCH  25  27
ENDBRANCH  22  25
ENDBRANCH  19  22
ENDBRANCH  15  16
ENDBRANCH  14  15
ENDBRANCH  12  14
ENDBRANCH  10  12
ENDBRANCH   7  10
ENDBRANCH   2   3
TORSDOF 11
ENDMDL
MODEL      308
REMARK 921   NORMALIZED FREE ENERGY PREDICTED BY IDOCK:   -2.31 KCAL/MOL
REMARK 922        TOTAL FREE ENERGY PREDICTED BY IDOCK:   -6.11 KCAL/MOL
REMARK 923 INTER-LIGAND FREE ENERGY PREDICTED BY IDOCK:   -5.47 KCAL/MOL
REMARK 924 INTRA-LIGAND FREE ENERGY PREDICTED BY IDOCK:   -0.63 KCAL/MOL
REMARK 927      BINDING AFFINITY PREDICTED BY RF-SCORE:    0.00 PKD
ROOT
HETATM    1  C   UNL     1     -10.340  14.914  66.141  1.00  0.00    -0.312 C  
HETATM    2  C   UNL     1      -9.999  15.173  67.601  1.00  0.00    -0.229 C  
ENDROOT
BRANCH   2   3
HETATM    3  C   UNL     1     -10.622  14.164  68.499  1.00  0.00    -0.257 C  
HETATM    4  C   UNL     1     -11.692  14.235  69.305  1.00  0.00    -0.363 C  
HETATM    5  C   UNL     1     -11.941  12.952  70.030  1.00  0.00    -0.309 C  
HETATM    6  C   UNL     1     -12.616  15.386  69.488  1.00  0.00    -0.006 C  
HETATM    7  N   UNL     1     -10.933  12.090  69.477  1.00  0.00    -0.072 N  
HETATM    8  O   UNL     1      -9.079  12.388  68.069  1.00  0.00    -0.183 OA 
HETATM    9  C   UNL     1     -10.089  12.791  68.624  1.00  0.00    -0.124 C  
BRANCH   7  10
HETATM   10  C   UNL     1     -11.009  10.720  69.647  1.00  0.00    -0.264 C  
HETATM   11  O   UNL     1     -11.570  10.206  70.613  1.00  0.00    -0.291 OA 
BRANCH  10  12
HETATM   12  N   UNL     1     -10.449   9.979  68.638  1.00  0.00    -0.195 N  
HETATM   13  H   UNL     1      -9.629   9.410  68.850  1.00  0.00     0.000 HD 
BRANCH  12  14
HETATM   14  C   UNL     1     -10.967   9.966  67.285  1.00  0.00    -0.117 C  
BRANCH  14  15
HETATM   15  C   UNL     1      -9.908   9.585  66.236  1.00  0.00    -0.334 C  
BRANCH  15  16
HETATM   16  C   UNL     1      -9.069   8.372  66.600  1.00  0.00    -0.202 A  
HETATM   17  C   UNL     1      -9.648   7.108  66.790  1.00  0.00    -0.230 A  
HETATM   18  C   UNL     1      -8.874   6.014  67.180  1.00  0.00    -0.108 A  
HETATM   19  C   UNL     1      -7.492   6.144  67.321  1.00  0.00    -0.081 A  
HETATM   20  C   UNL     1      -6.887   7.383  67.091  1.00  0.00    -0.074 A  
HETATM   21  C   UNL     1      -7.673   8.486  66.726  1.00  0.00    -0.091 A  
BRANCH  19  22
HETATM   22  S   UNL     1      -6.544   4.773  67.954  1.00  0.00    -0.047 S  
HETATM   23  O   UNL     1      -6.599   3.720  66.961  1.00  0.00    -0.043 OA 
HETATM   24  O   UNL     1      -5.268   5.266  68.422  1.00  0.00    -0.003 OA 
BRANCH  22  25
HETATM   25  N   UNL     1      -7.429   4.194  69.250  1.00  0.00    -0.054 N  
HETATM   26  H   UNL     1      -8.439   4.098  69.142  1.00  0.00     0.000 HD 
BRANCH  25  27
HETATM   27  C   UNL     1      -6.865   3.837  70.459  1.00  0.00    -0.033 C  
HETATM   28  O   UNL     1      -6.547   2.688  70.724  1.00  0.00    -0.030 OA 
BRANCH  27  29
HETATM   29  N   UNL     1      -6.684   4.874  71.343  1.00  0.00    -0.038 N  
HETATM   30  H   UNL     1      -5.888   5.504  71.253  1.00  0.00     0.000 HD 
BRANCH  29  31
HETATM   31  C   UNL     1      -7.661   5.051  72.416  1.00  0.00    -0.095 C  
HETATM   32  C   UNL     1      -8.326   6.433  72.401  1.00  0.00    -0.106 C  
HETATM   33  C   UNL     1      -9.533   6.557  71.473  1.00  0.00    -0.162 C  
HETATM   34  C   UNL     1     -10.532   5.403  71.613  1.00  0.00    -0.291 C  
HETATM   35  C   UNL     1      -9.806   4.065  71.443  1.00  0.00    -0.249 C  
HETATM   36  C   UNL     1     -11.313   5.466  72.932  1.00  0.00    -0.365 C  
HETATM   37  C   UNL     1      -8.667   3.890  72.445  1.00  0.00    -0.116 C  
ENDBRANCH  29  31
ENDBRANCH  27  29
ENDBRANCH  25  27
ENDBRANCH  22  25
ENDBRANCH  19  22
ENDBRANCH  15  16
ENDBRANCH  14  15
ENDBRANCH  12  14
ENDBRANCH  10  12
ENDBRANCH   7  10
ENDBRANCH   2   3
TORSDOF 11
ENDMDL
MODEL      309
REMARK 921   NORMALIZED FREE ENERGY PREDICTED BY IDOCK:   -2.25 KCAL/MOL
REMARK 922        TOTAL FREE ENERGY PREDICTED BY IDOCK:   -6.01 KCAL/MOL
REMARK 923 INTER-LIGAND FREE ENERGY PREDICTED BY IDOCK:   -6.38 KCAL/MOL
REMARK 924 INTRA-LIGAND FREE ENERGY PREDICTED BY IDOCK:    0.37 KCAL/MOL
REMARK 927      BINDING AFFINITY PREDICTED BY RF-SCORE:    0.00 PKD
ROOT
HETATM    1  C   UNL     1     -12.771  13.966  66.094  1.00  0.00    -0.336 C  
HETATM    2  C   UNL     1     -11.360  14.065  65.535  1.00  0.00    -0.313 C  
ENDROOT
BRANCH   2   3
HETATM    3  C   UNL     1     -10.827  12.732  65.147  1.00  0.00    -0.318 C  
HETATM    4  C   UNL     1     -11.247  11.838  64.239  1.00  0.00    -0.414 C  
HETATM    5  C   UNL     1     -10.385  10.617  64.205  1.00  0.00    -0.223 C  
HETATM    6  C   UNL     1     -12.387  11.973  63.293  1.00  0.00    -0.553 C  
HETATM    7  N   UNL     1      -9.353  10.948  65.148  1.00  0.00    -0.210 N  
HETATM    8  O   UNL     1      -9.004  12.678  66.695  1.00  0.00    -0.217 OA 
HETATM    9  C   UNL     1      -9.620  12.157  65.779  1.00  0.00    -0.197 C  
BRANCH   7  10
HETATM   10  C   UNL     1      -8.178  10.218  65.189  1.00  0.00    -0.161 C  
HETATM   11  O   UNL     1      -7.396  10.176  64.242  1.00  0.00    -0.135 OA 
BRANCH  10  12
HETATM   12  N   UNL     1      -7.934   9.582  66.379  1.00  0.00    -0.110 N  
HETATM   13  H   UNL     1      -8.555   8.823  66.661  1.00  0.00     0.000 HD 
BRANCH  12  14
HETATM   14  C   UNL     1      -6.835   9.936  67.254  1.00  0.00    -0.083 C  
BRANCH  14  15
HETATM   15  C   UNL     1      -7.293  10.630  68.549  1.00  0.00    -0.090 C  
BRANCH  15  16
HETATM   16  C   UNL     1      -8.376   9.888  69.312  1.00  0.00    -0.151 A  
HETATM   17  C   UNL     1      -8.214   9.534  70.660  1.00  0.00    -0.155 A  
HETATM   18  C   UNL     1      -9.193   8.802  71.334  1.00  0.00    -0.325 A  
HETATM   19  C   UNL     1     -10.386   8.467  70.694  1.00  0.00    -0.199 A  
HETATM   20  C   UNL     1     -10.590   8.849  69.365  1.00  0.00    -0.226 A  
HETATM   21  C   UNL     1      -9.591   9.561  68.683  1.00  0.00    -0.151 A  
BRANCH  19  22
HETATM   22  S   UNL     1     -11.560   7.414  71.526  1.00  0.00    -0.288 S  
HETATM   23  O   UNL     1     -11.989   8.111  72.721  1.00  0.00    -0.365 OA 
HETATM   24  O   UNL     1     -12.536   6.952  70.563  1.00  0.00    -0.270 OA 
BRANCH  22  25
HETATM   25  N   UNL     1     -10.663   6.115  72.080  1.00  0.00    -0.226 N  
HETATM   26  H   UNL     1     -11.110   5.199  72.113  1.00  0.00     0.000 HD 
BRANCH  25  27
HETATM   27  C   UNL     1      -9.350   6.218  72.495  1.00  0.00    -0.146 C  
HETATM   28  O   UNL     1      -9.042   6.506  73.641  1.00  0.00    -0.126 OA 
BRANCH  27  29
HETATM   29  N   UNL     1      -8.413   5.967  71.521  1.00  0.00    -0.127 N  
HETATM   30  H   UNL     1      -7.877   6.728  71.105  1.00  0.00     0.000 HD 
BRANCH  29  31
HETATM   31  C   UNL     1      -8.204   4.585  71.095  1.00  0.00    -0.087 C  
HETATM   32  C   UNL     1      -7.878   4.458  69.602  1.00  0.00    -0.057 C  
HETATM   33  C   UNL     1      -6.404   4.642  69.247  1.00  0.00    -0.031 C  
HETATM   34  C   UNL     1      -5.455   3.842  70.146  1.00  0.00    -0.012 C  
HETATM   35  C   UNL     1      -5.740   4.162  71.616  1.00  0.00    -0.008 C  
HETATM   36  C   UNL     1      -5.521   2.335  69.867  1.00  0.00    -0.016 C  
HETATM   37  C   UNL     1      -7.189   3.875  72.004  1.00  0.00    -0.054 C  
ENDBRANCH  29  31
ENDBRANCH  27  29
ENDBRANCH  25  27
ENDBRANCH  22  25
ENDBRANCH  19  22
ENDBRANCH  15  16
ENDBRANCH  14  15
ENDBRANCH  12  14
ENDBRANCH  10  12
ENDBRANCH   7  10
ENDBRANCH   2   3
TORSDOF 11
ENDMDL
MODEL      310
REMARK 921   NORMALIZED FREE ENERGY PREDICTED BY IDOCK:   -2.19 KCAL/MOL
REMARK 922        TOTAL FREE ENERGY PREDICTED BY IDOCK:   -5.91 KCAL/MOL
REMARK 923 INTER-LIGAND FREE ENERGY PREDICTED BY IDOCK:   -5.30 KCAL/MOL
REMARK 924 INTRA-LIGAND FREE ENERGY PREDICTED BY IDOCK:   -0.61 KCAL/MOL
REMARK 927      BINDING AFFINITY PREDICTED BY RF-SCORE:    0.00 PKD
ROOT
HETATM    1  C   UNL     1      -7.441   6.588  62.702  1.00  0.00    -0.071 C  
HETATM    2  C   UNL     1      -8.438   6.613  63.851  1.00  0.00     0.299 C  
ENDROOT
BRANCH   2   3
HETATM    3  C   UNL     1      -8.031   5.699  64.951  1.00  0.00    -0.117 C  
HETATM    4  C   UNL     1      -6.824   5.264  65.343  1.00  0.00    -0.060 C  
HETATM    5  C   UNL     1      -6.908   4.338  66.513  1.00  0.00    -0.055 C  
HETATM    6  C   UNL     1      -5.498   5.641  64.784  1.00  0.00    -0.013 C  
HETATM    7  N   UNL     1      -8.313   4.354  66.814  1.00  0.00    -0.105 N  
HETATM    8  O   UNL     1     -10.228   5.222  65.770  1.00  0.00    -0.094 OA 
HETATM    9  C   UNL     1      -9.018   5.089  65.867  1.00  0.00    -0.141 C  
BRANCH   7  10
HETATM   10  C   UNL     1      -8.779   3.872  68.023  1.00  0.00    -0.102 C  
HETATM   11  O   UNL     1      -9.104   2.697  68.183  1.00  0.00    -0.141 OA 
BRANCH  10  12
HETATM   12  N   UNL     1      -8.812   4.792  69.040  1.00  0.00    -0.091 N  
HETATM   13  H   UNL     1      -8.589   4.480  69.985  1.00  0.00     0.000 HD 
BRANCH  12  14
HETATM   14  C   UNL     1      -9.148   6.187  68.834  1.00  0.00    -0.123 C  
BRANCH  14  15
HETATM   15  C   UNL     1      -7.919   7.069  68.553  1.00  0.00    -0.123 C  
BRANCH  15  16
HETATM   16  C   UNL     1      -8.247   8.512  68.205  1.00  0.00    -0.120 A  
HETATM   17  C   UNL     1      -7.260   9.508  68.201  1.00  0.00    -0.080 A  
HETATM   18  C   UNL     1      -7.583  10.840  67.935  1.00  0.00    -0.091 A  
HETATM   19  C   UNL     1      -8.891  11.192  67.600  1.00  0.00    -0.136 A  
HETATM   20  C   UNL     1      -9.883  10.208  67.552  1.00  0.00    -0.211 A  
HETATM   21  C   UNL     1      -9.557   8.875  67.847  1.00  0.00    -0.171 A  
BRANCH  19  22
HETATM   22  S   UNL     1      -9.310  12.914  67.403  1.00  0.00    -0.202 S  
HETATM   23  O   UNL     1     -10.120  13.023  66.206  1.00  0.00    -0.270 OA 
HETATM   24  O   UNL     1      -9.804  13.421  68.664  1.00  0.00    -0.205 OA 
BRANCH  22  25
HETATM   25  N   UNL     1      -7.869  13.672  67.021  1.00  0.00    -0.373 N  
HETATM   26  H   UNL     1      -7.367  13.365  66.188  1.00  0.00     0.000 HD 
BRANCH  25  27
HETATM   27  C   UNL     1      -7.323  14.693  67.774  1.00  0.00    -0.173 C  
HETATM   28  O   UNL     1      -6.704  14.491  68.808  1.00  0.00    -0.082 OA 
BRANCH  27  29
HETATM   29  N   UNL     1      -7.524  15.956  67.270  1.00  0.00    -0.189 N  
HETATM   30  H   UNL     1      -6.967  16.301  66.489  1.00  0.00     0.000 HD 
BRANCH  29  31
HETATM   31  C   UNL     1      -8.554  16.793  67.882  1.00  0.00    -0.202 C  
HETATM   32  C   UNL     1      -8.064  18.209  68.207  1.00  0.00    -0.306 C  
HETATM   33  C   UNL     1      -8.146  19.201  67.048  1.00  0.00    -0.279 C  
HETATM   34  C   UNL     1      -9.494  19.177  66.319  1.00  0.00    -0.359 C  
HETATM   35  C   UNL     1      -9.821  17.746  65.881  1.00  0.00    -0.078 C  
HETATM   36  C   UNL     1     -10.622  19.789  67.159  1.00  0.00    -0.577 C  
HETATM   37  C   UNL     1      -9.848  16.770  67.055  1.00  0.00    -0.262 C  
ENDBRANCH  29  31
ENDBRANCH  27  29
ENDBRANCH  25  27
ENDBRANCH  22  25
ENDBRANCH  19  22
ENDBRANCH  15  16
ENDBRANCH  14  15
ENDBRANCH  12  14
ENDBRANCH  10  12
ENDBRANCH   7  10
ENDBRANCH   2   3
TORSDOF 11
ENDMDL
MODEL      311
REMARK 921   NORMALIZED FREE ENERGY PREDICTED BY IDOCK:   -2.19 KCAL/MOL
REMARK 922        TOTAL FREE ENERGY PREDICTED BY IDOCK:   -5.90 KCAL/MOL
REMARK 923 INTER-LIGAND FREE ENERGY PREDICTED BY IDOCK:   -4.67 KCAL/MOL
REMARK 924 INTRA-LIGAND FREE ENERGY PREDICTED BY IDOCK:   -1.23 KCAL/MOL
REMARK 927      BINDING AFFINITY PREDICTED BY RF-SCORE:    0.00 PKD
ROOT
HETATM    1  C   UNL     1     -12.716  15.515  71.030  1.00  0.00    -0.526 C  
HETATM    2  C   UNL     1     -11.349  15.690  70.386  1.00  0.00    -0.373 C  
ENDROOT
BRANCH   2   3
HETATM    3  C   UNL     1     -11.408  15.506  68.912  1.00  0.00    -0.329 C  
HETATM    4  C   UNL     1     -11.181  16.359  67.901  1.00  0.00    -0.184 C  
HETATM    5  C   UNL     1     -11.370  15.718  66.565  1.00  0.00     0.132 C  
HETATM    6  C   UNL     1     -10.736  17.776  67.992  1.00  0.00    -0.317 C  
HETATM    7  N   UNL     1     -11.652  14.354  66.920  1.00  0.00    -0.373 N  
HETATM    8  O   UNL     1     -12.080  13.210  68.924  1.00  0.00    -0.301 OA 
HETATM    9  C   UNL     1     -11.756  14.207  68.298  1.00  0.00    -0.348 C  
BRANCH   7  10
HETATM   10  C   UNL     1     -11.585  13.352  65.968  1.00  0.00    -0.344 C  
HETATM   11  O   UNL     1     -12.588  12.875  65.442  1.00  0.00    -0.543 OA 
BRANCH  10  12
HETATM   12  N   UNL     1     -10.315  12.961  65.628  1.00  0.00    -0.279 N  
HETATM   13  H   UNL     1     -10.165  11.993  65.343  1.00  0.00     0.000 HD 
BRANCH  12  14
HETATM   14  C   UNL     1      -9.178  13.858  65.654  1.00  0.00     0.432 C  
BRANCH  14  15
HETATM   15  C   UNL     1      -8.367  13.768  66.958  1.00  0.00    -0.107 C  
BRANCH  15  16
HETATM   16  C   UNL     1      -8.217  12.360  67.511  1.00  0.00    -0.173 A  
HETATM   17  C   UNL     1      -7.602  11.341  66.769  1.00  0.00    -0.151 A  
HETATM   18  C   UNL     1      -7.522  10.039  67.265  1.00  0.00    -0.091 A  
HETATM   19  C   UNL     1      -7.995   9.743  68.543  1.00  0.00    -0.089 A  
HETATM   20  C   UNL     1      -8.571  10.752  69.319  1.00  0.00    -0.047 A  
HETATM   21  C   UNL     1      -8.674  12.054  68.806  1.00  0.00     0.083 A  
BRANCH  19  22
HETATM   22  S   UNL     1      -8.011   8.049  69.100  1.00  0.00    -0.115 S  
HETATM   23  O   UNL     1      -9.106   7.917  70.039  1.00  0.00    -0.151 OA 
HETATM   24  O   UNL     1      -7.932   7.179  67.947  1.00  0.00    -0.112 OA 
BRANCH  22  25
HETATM   25  N   UNL     1      -6.626   7.881  70.023  1.00  0.00    -0.037 N  
HETATM   26  H   UNL     1      -6.106   8.722  70.272  1.00  0.00     0.000 HD 
BRANCH  25  27
HETATM   27  C   UNL     1      -6.149   6.663  70.465  1.00  0.00    -0.027 C  
HETATM   28  O   UNL     1      -5.151   6.559  71.161  1.00  0.00    -0.018 OA 
BRANCH  27  29
HETATM   29  N   UNL     1      -6.885   5.572  70.066  1.00  0.00    -0.057 N  
HETATM   30  H   UNL     1      -7.903   5.614  70.031  1.00  0.00     0.000 HD 
BRANCH  29  31
HETATM   31  C   UNL     1      -6.173   4.352  69.693  1.00  0.00    -0.027 C  
HETATM   32  C   UNL     1      -7.090   3.127  69.593  1.00  0.00    -0.041 C  
HETATM   33  C   UNL     1      -7.795   2.959  68.249  1.00  0.00    -0.056 C  
HETATM   34  C   UNL     1      -6.860   3.116  67.045  1.00  0.00    -0.046 C  
HETATM   35  C   UNL     1      -6.109   4.448  67.142  1.00  0.00    -0.028 C  
HETATM   36  C   UNL     1      -5.899   1.930  66.894  1.00  0.00    -0.019 C  
HETATM   37  C   UNL     1      -5.313   4.574  68.439  1.00  0.00    -0.011 C  
ENDBRANCH  29  31
ENDBRANCH  27  29
ENDBRANCH  25  27
ENDBRANCH  22  25
ENDBRANCH  19  22
ENDBRANCH  15  16
ENDBRANCH  14  15
ENDBRANCH  12  14
ENDBRANCH  10  12
ENDBRANCH   7  10
ENDBRANCH   2   3
TORSDOF 11
ENDMDL
MODEL      312
REMARK 921   NORMALIZED FREE ENERGY PREDICTED BY IDOCK:   -2.11 KCAL/MOL
REMARK 922        TOTAL FREE ENERGY PREDICTED BY IDOCK:   -5.77 KCAL/MOL
REMARK 923 INTER-LIGAND FREE ENERGY PREDICTED BY IDOCK:   -4.98 KCAL/MOL
REMARK 924 INTRA-LIGAND FREE ENERGY PREDICTED BY IDOCK:   -0.79 KCAL/MOL
REMARK 927      BINDING AFFINITY PREDICTED BY RF-SCORE:    0.00 PKD
ROOT
HETATM    1  C   UNL     1      -9.407  15.172  66.125  1.00  0.00    -0.346 C  
HETATM    2  C   UNL     1     -10.025  13.895  66.675  1.00  0.00    -0.279 C  
ENDROOT
BRANCH   2   3
HETATM    3  C   UNL     1     -10.270  12.896  65.601  1.00  0.00    -0.295 C  
HETATM    4  C   UNL     1     -11.070  12.929  64.524  1.00  0.00    -0.373 C  
HETATM    5  C   UNL     1     -10.989  11.672  63.719  1.00  0.00    -0.422 C  
HETATM    6  C   UNL     1     -11.931  14.053  64.068  1.00  0.00    -0.388 C  
HETATM    7  N   UNL     1      -9.971  10.932  64.414  1.00  0.00    -0.294 N  
HETATM    8  O   UNL     1      -8.808  11.196  66.435  1.00  0.00    -0.167 OA 
HETATM    9  C   UNL     1      -9.576  11.591  65.572  1.00  0.00    -0.227 C  
BRANCH   7  10
HETATM   10  C   UNL     1      -9.367   9.840  63.818  1.00  0.00    -0.120 C  
HETATM   11  O   UNL     1      -9.344   9.683  62.599  1.00  0.00    -0.258 OA 
BRANCH  10  12
HETATM   12  N   UNL     1      -8.760   8.969  64.687  1.00  0.00    -0.296 N  
HETATM   13  H   UNL     1      -9.283   8.150  64.998  1.00  0.00     0.000 HD 
BRANCH  12  14
HETATM   14  C   UNL     1      -7.412   9.157  65.184  1.00  0.00    -0.097 C  
BRANCH  14  15
HETATM   15  C   UNL     1      -6.390   8.210  64.532  1.00  0.00    -0.064 C  
BRANCH  15  16
HETATM   16  C   UNL     1      -6.333   6.823  65.149  1.00  0.00    -0.042 A  
HETATM   17  C   UNL     1      -7.090   5.759  64.638  1.00  0.00    -0.057 A  
HETATM   18  C   UNL     1      -7.072   4.504  65.249  1.00  0.00    -0.063 A  
HETATM   19  C   UNL     1      -6.242   4.268  66.345  1.00  0.00    -0.032 A  
HETATM   20  C   UNL     1      -5.444   5.301  66.845  1.00  0.00    -0.013 A  
HETATM   21  C   UNL     1      -5.486   6.568  66.243  1.00  0.00    -0.014 A  
BRANCH  19  22
HETATM   22  S   UNL     1      -6.340   2.704  67.195  1.00  0.00    -0.032 S  
HETATM   23  O   UNL     1      -6.238   1.664  66.191  1.00  0.00    -0.022 OA 
HETATM   24  O   UNL     1      -5.426   2.725  68.316  1.00  0.00    -0.016 OA 
BRANCH  22  25
HETATM   25  N   UNL     1      -7.912   2.610  67.757  1.00  0.00    -0.063 N  
HETATM   26  H   UNL     1      -8.594   2.093  67.202  1.00  0.00     0.000 HD 
BRANCH  25  27
HETATM   27  C   UNL     1      -8.337   3.197  68.933  1.00  0.00    -0.061 C  
HETATM   28  O   UNL     1      -8.604   2.549  69.934  1.00  0.00    -0.052 OA 
BRANCH  27  29
HETATM   29  N   UNL     1      -8.434   4.568  68.895  1.00  0.00    -0.083 N  
HETATM   30  H   UNL     1      -7.754   5.125  68.379  1.00  0.00     0.000 HD 
BRANCH  29  31
HETATM   31  C   UNL     1      -9.536   5.207  69.612  1.00  0.00    -0.143 C  
HETATM   32  C   UNL     1      -9.096   6.434  70.420  1.00  0.00    -0.155 C  
HETATM   33  C   UNL     1      -9.039   7.739  69.629  1.00  0.00    -0.146 C  
HETATM   34  C   UNL     1     -10.287   7.990  68.775  1.00  0.00    -0.223 C  
HETATM   35  C   UNL     1     -10.551   6.778  67.875  1.00  0.00    -0.296 C  
HETATM   36  C   UNL     1     -11.513   8.348  69.625  1.00  0.00     0.334 C  
HETATM   37  C   UNL     1     -10.718   5.487  68.672  1.00  0.00    -0.176 C  
ENDBRANCH  29  31
ENDBRANCH  27  29
ENDBRANCH  25  27
ENDBRANCH  22  25
ENDBRANCH  19  22
ENDBRANCH  15  16
ENDBRANCH  14  15
ENDBRANCH  12  14
ENDBRANCH  10  12
ENDBRANCH   7  10
ENDBRANCH   2   3
TORSDOF 11
ENDMDL
MODEL      313
REMARK 921   NORMALIZED FREE ENERGY PREDICTED BY IDOCK:   -2.09 KCAL/MOL
REMARK 922        TOTAL FREE ENERGY PREDICTED BY IDOCK:   -5.73 KCAL/MOL
REMARK 923 INTER-LIGAND FREE ENERGY PREDICTED BY IDOCK:   -5.77 KCAL/MOL
REMARK 924 INTRA-LIGAND FREE ENERGY PREDICTED BY IDOCK:    0.04 KCAL/MOL
REMARK 927      BINDING AFFINITY PREDICTED BY RF-SCORE:    0.00 PKD
ROOT
HETATM    1  C   UNL     1      -9.130  15.080  69.258  1.00  0.00    -0.157 C  
HETATM    2  C   UNL     1      -8.547  14.972  67.857  1.00  0.00    -0.155 C  
ENDROOT
BRANCH   2   3
HETATM    3  C   UNL     1      -8.229  13.564  67.500  1.00  0.00    -0.186 C  
HETATM    4  C   UNL     1      -9.016  12.491  67.334  1.00  0.00    -0.188 C  
HETATM    5  C   UNL     1      -8.238  11.266  66.979  1.00  0.00    -0.151 C  
HETATM    6  C   UNL     1     -10.501  12.433  67.417  1.00  0.00    -0.229 C  
HETATM    7  N   UNL     1      -6.899  11.778  66.870  1.00  0.00    -0.132 N  
HETATM    8  O   UNL     1      -5.855  13.822  67.359  1.00  0.00    -0.353 OA 
HETATM    9  C   UNL     1      -6.844  13.115  67.243  1.00  0.00     0.013 C  
BRANCH   7  10
HETATM   10  C   UNL     1      -5.910  11.034  66.252  1.00  0.00    -0.148 C  
HETATM   11  O   UNL     1      -5.499  11.293  65.123  1.00  0.00    -0.140 OA 
BRANCH  10  12
HETATM   12  N   UNL     1      -5.394  10.014  67.010  1.00  0.00    -0.041 N  
HETATM   13  H   UNL     1      -4.799   9.322  66.553  1.00  0.00     0.000 HD 
BRANCH  12  14
HETATM   14  C   UNL     1      -5.654   9.872  68.428  1.00  0.00    -0.042 C  
BRANCH  14  15
HETATM   15  C   UNL     1      -6.267   8.510  68.797  1.00  0.00    -0.045 C  
BRANCH  15  16
HETATM   16  C   UNL     1      -7.666   8.587  69.385  1.00  0.00    -0.092 A  
HETATM   17  C   UNL     1      -7.896   9.112  70.665  1.00  0.00    -0.165 A  
HETATM   18  C   UNL     1      -9.178   9.125  71.217  1.00  0.00    -0.261 A  
HETATM   19  C   UNL     1     -10.269   8.676  70.473  1.00  0.00    -0.197 A  
HETATM   20  C   UNL     1     -10.070   8.191  69.177  1.00  0.00    -0.204 A  
HETATM   21  C   UNL     1      -8.775   8.155  68.637  1.00  0.00    -0.134 A  
BRANCH  19  22
HETATM   22  S   UNL     1     -11.872   8.570  71.245  1.00  0.00    -0.294 S  
HETATM   23  O   UNL     1     -12.396   9.918  71.331  1.00  0.00    -0.346 OA 
HETATM   24  O   UNL     1     -12.638   7.532  70.591  1.00  0.00    -0.062 OA 
BRANCH  22  25
HETATM   25  N   UNL     1     -11.565   8.124  72.828  1.00  0.00    -0.480 N  
HETATM   26  H   UNL     1     -11.637   8.838  73.554  1.00  0.00     0.000 HD 
BRANCH  25  27
HETATM   27  C   UNL     1     -11.218   6.842  73.204  1.00  0.00    -0.101 C  
HETATM   28  O   UNL     1     -11.832   5.856  72.828  1.00  0.00    -0.207 OA 
BRANCH  27  29
HETATM   29  N   UNL     1     -10.125   6.757  74.035  1.00  0.00    -0.333 N  
HETATM   30  H   UNL     1     -10.145   7.170  74.967  1.00  0.00     0.000 HD 
BRANCH  29  31
HETATM   31  C   UNL     1      -8.936   6.060  73.550  1.00  0.00    -0.124 C  
HETATM   32  C   UNL     1      -8.554   4.851  74.413  1.00  0.00    -0.113 C  
HETATM   33  C   UNL     1      -9.284   3.555  74.065  1.00  0.00    -0.099 C  
HETATM   34  C   UNL     1      -9.300   3.247  72.564  1.00  0.00    -0.155 C  
HETATM   35  C   UNL     1      -9.857   4.450  71.795  1.00  0.00    -0.253 C  
HETATM   36  C   UNL     1      -7.922   2.824  72.040  1.00  0.00    -0.054 C  
HETATM   37  C   UNL     1      -9.061   5.727  72.056  1.00  0.00    -0.143 C  
ENDBRANCH  29  31
ENDBRANCH  27  29
ENDBRANCH  25  27
ENDBRANCH  22  25
ENDBRANCH  19  22
ENDBRANCH  15  16
ENDBRANCH  14  15
ENDBRANCH  12  14
ENDBRANCH  10  12
ENDBRANCH   7  10
ENDBRANCH   2   3
TORSDOF 11
ENDMDL
MODEL      314
REMARK 921   NORMALIZED FREE ENERGY PREDICTED BY IDOCK:   -1.87 KCAL/MOL
REMARK 922        TOTAL FREE ENERGY PREDICTED BY IDOCK:   -5.39 KCAL/MOL
REMARK 923 INTER-LIGAND FREE ENERGY PREDICTED BY IDOCK:   -5.87 KCAL/MOL
REMARK 924 INTRA-LIGAND FREE ENERGY PREDICTED BY IDOCK:    0.48 KCAL/MOL
REMARK 927      BINDING AFFINITY PREDICTED BY RF-SCORE:    0.00 PKD
ROOT
HETATM    1  C   UNL     1      -5.790  15.846  68.502  1.00  0.00    -0.103 C  
HETATM    2  C   UNL     1      -7.002  16.222  69.341  1.00  0.00    -0.212 C  
ENDROOT
BRANCH   2   3
HETATM    3  C   UNL     1      -8.185  16.527  68.494  1.00  0.00    -0.212 C  
HETATM    4  C   UNL     1      -8.390  17.469  67.562  1.00  0.00    -0.220 C  
HETATM    5  C   UNL     1      -9.760  17.392  66.969  1.00  0.00    -0.276 C  
HETATM    6  C   UNL     1      -7.419  18.482  67.067  1.00  0.00    -0.228 C  
HETATM    7  N   UNL     1     -10.303  16.226  67.610  1.00  0.00    -0.277 N  
HETATM    8  O   UNL     1      -9.619  14.818  69.359  1.00  0.00    -0.125 OA 
HETATM    9  C   UNL     1      -9.429  15.731  68.571  1.00  0.00    -0.201 C  
BRANCH   7  10
HETATM   10  C   UNL     1     -11.441  15.617  67.114  1.00  0.00     0.009 C  
HETATM   11  O   UNL     1     -12.245  15.034  67.838  1.00  0.00    -0.112 OA 
BRANCH  10  12
HETATM   12  N   UNL     1     -11.626  15.749  65.761  1.00  0.00     0.232 N  
HETATM   13  H   UNL     1     -12.073  16.596  65.412  1.00  0.00     0.000 HD 
BRANCH  12  14
HETATM   14  C   UNL     1     -11.215  14.741  64.805  1.00  0.00    -0.385 C  
BRANCH  14  15
HETATM   15  C   UNL     1      -9.746  14.313  64.971  1.00  0.00     0.130 C  
BRANCH  15  16
HETATM   16  C   UNL     1      -9.556  12.873  65.416  1.00  0.00     0.063 A  
HETATM   17  C   UNL     1      -9.875  11.796  64.576  1.00  0.00    -0.228 A  
HETATM   18  C   UNL     1      -9.750  10.477  65.017  1.00  0.00    -0.351 A  
HETATM   19  C   UNL     1      -9.238  10.206  66.286  1.00  0.00    -0.157 A  
HETATM   20  C   UNL     1      -8.870  11.263  67.125  1.00  0.00    -0.153 A  
HETATM   21  C   UNL     1      -9.024  12.587  66.686  1.00  0.00    -0.174 A  
BRANCH  19  22
HETATM   22  S   UNL     1      -9.219   8.526  66.881  1.00  0.00    -0.168 S  
HETATM   23  O   UNL     1      -9.300   7.660  65.722  1.00  0.00    -0.015 OA 
HETATM   24  O   UNL     1      -8.132   8.378  67.825  1.00  0.00    -0.119 OA 
BRANCH  22  25
HETATM   25  N   UNL     1     -10.678   8.327  67.673  1.00  0.00    -0.479 N  
HETATM   26  H   UNL     1     -11.057   7.384  67.760  1.00  0.00     0.000 HD 
BRANCH  25  27
HETATM   27  C   UNL     1     -11.398   9.373  68.218  1.00  0.00     0.365 C  
HETATM   28  O   UNL     1     -11.840  10.290  67.544  1.00  0.00     0.078 OA 
BRANCH  27  29
HETATM   29  N   UNL     1     -11.583   9.303  69.579  1.00  0.00    -0.370 N  
HETATM   30  H   UNL     1     -12.437   9.657  70.008  1.00  0.00     0.000 HD 
BRANCH  29  31
HETATM   31  C   UNL     1     -10.526   8.709  70.394  1.00  0.00    -0.208 C  
HETATM   32  C   UNL     1     -10.753   8.892  71.900  1.00  0.00    -0.426 C  
HETATM   33  C   UNL     1     -11.651   7.839  72.548  1.00  0.00    -0.422 C  
HETATM   34  C   UNL     1     -11.285   6.402  72.159  1.00  0.00    -0.319 C  
HETATM   35  C   UNL     1     -11.248   6.272  70.633  1.00  0.00    -0.401 C  
HETATM   36  C   UNL     1      -9.972   5.941  72.803  1.00  0.00    -0.197 C  
HETATM   37  C   UNL     1     -10.268   7.250  69.989  1.00  0.00    -0.206 C  
ENDBRANCH  29  31
ENDBRANCH  27  29
ENDBRANCH  25  27
ENDBRANCH  22  25
ENDBRANCH  19  22
ENDBRANCH  15  16
ENDBRANCH  14  15
ENDBRANCH  12  14
ENDBRANCH  10  12
ENDBRANCH   7  10
ENDBRANCH   2   3
TORSDOF 11
ENDMDL
MODEL      315
REMARK 921   NORMALIZED FREE ENERGY PREDICTED BY IDOCK:   -1.85 KCAL/MOL
REMARK 922        TOTAL FREE ENERGY PREDICTED BY IDOCK:   -5.35 KCAL/MOL
REMARK 923 INTER-LIGAND FREE ENERGY PREDICTED BY IDOCK:   -3.95 KCAL/MOL
REMARK 924 INTRA-LIGAND FREE ENERGY PREDICTED BY IDOCK:   -1.40 KCAL/MOL
REMARK 927      BINDING AFFINITY PREDICTED BY RF-SCORE:    0.00 PKD
ROOT
HETATM    1  C   UNL     1     -10.602   1.467  71.569  1.00  0.00     0.335 C  
HETATM    2  C   UNL     1     -10.644   2.263  72.865  1.00  0.00    -0.238 C  
ENDROOT
BRANCH   2   3
HETATM    3  C   UNL     1      -9.843   3.513  72.769  1.00  0.00    -0.206 C  
HETATM    4  C   UNL     1      -8.573   3.726  72.396  1.00  0.00    -0.097 C  
HETATM    5  C   UNL     1      -8.197   5.171  72.464  1.00  0.00    -0.117 C  
HETATM    6  C   UNL     1      -7.590   2.722  71.906  1.00  0.00    -0.048 C  
HETATM    7  N   UNL     1      -9.438   5.790  72.840  1.00  0.00    -0.154 N  
HETATM    8  O   UNL     1     -11.542   5.014  73.533  1.00  0.00    -0.222 OA 
HETATM    9  C   UNL     1     -10.414   4.835  73.101  1.00  0.00    -0.201 C  
BRANCH   7  10
HETATM   10  C   UNL     1      -9.610   7.156  72.710  1.00  0.00    -0.152 C  
HETATM   11  O   UNL     1      -9.705   7.903  73.682  1.00  0.00    -0.273 OA 
BRANCH  10  12
HETATM   12  N   UNL     1      -9.623   7.618  71.419  1.00  0.00    -0.158 N  
HETATM   13  H   UNL     1      -9.056   7.132  70.724  1.00  0.00     0.000 HD 
BRANCH  12  14
HETATM   14  C   UNL     1     -10.403   8.763  70.996  1.00  0.00    -0.233 C  
BRANCH  14  15
HETATM   15  C   UNL     1     -11.049   8.576  69.612  1.00  0.00    -0.018 C  
BRANCH  15  16
HETATM   16  C   UNL     1     -10.094   8.745  68.443  1.00  0.00    -0.217 A  
HETATM   17  C   UNL     1     -10.463   8.394  67.136  1.00  0.00    -0.380 A  
HETATM   18  C   UNL     1      -9.557   8.501  66.080  1.00  0.00    -0.236 A  
HETATM   19  C   UNL     1      -8.283   9.026  66.296  1.00  0.00    -0.115 A  
HETATM   20  C   UNL     1      -7.908   9.425  67.582  1.00  0.00    -0.095 A  
HETATM   21  C   UNL     1      -8.814   9.290  68.646  1.00  0.00    -0.132 A  
BRANCH  19  22
HETATM   22  S   UNL     1      -7.097   9.022  64.965  1.00  0.00    -0.088 S  
HETATM   23  O   UNL     1      -7.718   8.354  63.840  1.00  0.00    -0.127 OA 
HETATM   24  O   UNL     1      -6.562  10.357  64.814  1.00  0.00    -0.116 OA 
BRANCH  22  25
HETATM   25  N   UNL     1      -5.882   7.986  65.467  1.00  0.00    -0.037 N  
HETATM   26  H   UNL     1      -5.090   8.381  65.975  1.00  0.00     0.000 HD 
BRANCH  25  27
HETATM   27  C   UNL     1      -5.895   6.626  65.230  1.00  0.00    -0.030 C  
HETATM   28  O   UNL     1      -6.149   6.150  64.134  1.00  0.00    -0.025 OA 
BRANCH  27  29
HETATM   29  N   UNL     1      -5.596   5.845  66.321  1.00  0.00    -0.013 N  
HETATM   30  H   UNL     1      -4.954   6.176  67.040  1.00  0.00     0.000 HD 
BRANCH  29  31
HETATM   31  C   UNL     1      -6.221   4.528  66.426  1.00  0.00    -0.032 C  
HETATM   32  C   UNL     1      -5.923   3.824  67.755  1.00  0.00    -0.027 C  
HETATM   33  C   UNL     1      -6.852   4.202  68.907  1.00  0.00    -0.047 C  
HETATM   34  C   UNL     1      -8.337   4.176  68.527  1.00  0.00    -0.092 C  
HETATM   35  C   UNL     1      -8.569   5.045  67.286  1.00  0.00    -0.104 C  
HETATM   36  C   UNL     1      -8.863   2.748  68.330  1.00  0.00    -0.165 C  
HETATM   37  C   UNL     1      -7.720   4.600  66.097  1.00  0.00    -0.091 C  
ENDBRANCH  29  31
ENDBRANCH  27  29
ENDBRANCH  25  27
ENDBRANCH  22  25
ENDBRANCH  19  22
ENDBRANCH  15  16
ENDBRANCH  14  15
ENDBRANCH  12  14
ENDBRANCH  10  12
ENDBRANCH   7  10
ENDBRANCH   2   3
TORSDOF 11
ENDMDL
MODEL      316
REMARK 921   NORMALIZED FREE ENERGY PREDICTED BY IDOCK:   -1.66 KCAL/MOL
REMARK 922        TOTAL FREE ENERGY PREDICTED BY IDOCK:   -5.04 KCAL/MOL
REMARK 923 INTER-LIGAND FREE ENERGY PREDICTED BY IDOCK:   -5.23 KCAL/MOL
REMARK 924 INTRA-LIGAND FREE ENERGY PREDICTED BY IDOCK:    0.19 KCAL/MOL
REMARK 927      BINDING AFFINITY PREDICTED BY RF-SCORE:    0.00 PKD
ROOT
HETATM    1  C   UNL     1     -14.401  14.349  71.529  1.00  0.00    -0.442 C  
HETATM    2  C   UNL     1     -13.083  14.453  72.282  1.00  0.00    -0.474 C  
ENDROOT
BRANCH   2   3
HETATM    3  C   UNL     1     -11.917  14.288  71.374  1.00  0.00    -0.270 C  
HETATM    4  C   UNL     1     -11.515  13.249  70.627  1.00  0.00     0.502 C  
HETATM    5  C   UNL     1     -10.262  13.547  69.869  1.00  0.00     1.307 C  
HETATM    6  C   UNL     1     -12.193  11.935  70.459  1.00  0.00    -0.426 C  
HETATM    7  N   UNL     1     -10.028  14.926  70.200  1.00  0.00     0.136 N  
HETATM    8  O   UNL     1     -10.967  16.458  71.710  1.00  0.00     0.336 OA 
HETATM    9  C   UNL     1     -10.943  15.376  71.144  1.00  0.00    -0.225 C  
BRANCH   7  10
HETATM   10  C   UNL     1      -9.138  15.685  69.461  1.00  0.00    -0.240 C  
HETATM   11  O   UNL     1      -7.920  15.560  69.567  1.00  0.00    -0.228 OA 
BRANCH  10  12
HETATM   12  N   UNL     1      -9.717  16.556  68.574  1.00  0.00    -0.231 N  
HETATM   13  H   UNL     1      -9.203  17.398  68.315  1.00  0.00     0.000 HD 
BRANCH  12  14
HETATM   14  C   UNL     1     -11.024  16.336  67.989  1.00  0.00    -0.328 C  
BRANCH  14  15
HETATM   15  C   UNL     1     -10.958  15.773  66.558  1.00  0.00    -0.165 C  
BRANCH  15  16
HETATM   16  C   UNL     1     -10.467  14.338  66.469  1.00  0.00    -0.287 A  
HETATM   17  C   UNL     1     -11.313  13.296  66.063  1.00  0.00    -0.329 A  
HETATM   18  C   UNL     1     -10.865  11.974  66.039  1.00  0.00    -0.329 A  
HETATM   19  C   UNL     1      -9.540  11.674  66.356  1.00  0.00    -0.217 A  
HETATM   20  C   UNL     1      -8.666  12.703  66.719  1.00  0.00    -0.135 A  
HETATM   21  C   UNL     1      -9.128  14.027  66.767  1.00  0.00    -0.250 A  
BRANCH  19  22
HETATM   22  S   UNL     1      -9.027   9.970  66.456  1.00  0.00    -0.145 S  
HETATM   23  O   UNL     1      -8.528   9.595  65.148  1.00  0.00    -0.134 OA 
HETATM   24  O   UNL     1      -8.196   9.801  67.628  1.00  0.00    -0.113 OA 
BRANCH  22  25
HETATM   25  N   UNL     1     -10.443   9.100  66.644  1.00  0.00    -0.214 N  
HETATM   26  H   UNL     1     -11.256   9.375  66.093  1.00  0.00     0.000 HD 
BRANCH  25  27
HETATM   27  C   UNL     1     -10.570   8.028  67.506  1.00  0.00    -0.232 C  
HETATM   28  O   UNL     1     -11.160   7.003  67.201  1.00  0.00    -0.350 OA 
BRANCH  27  29
HETATM   29  N   UNL     1      -9.978   8.200  68.736  1.00  0.00    -0.184 N  
HETATM   30  H   UNL     1      -9.037   8.583  68.813  1.00  0.00     0.000 HD 
BRANCH  29  31
HETATM   31  C   UNL     1     -10.731   7.820  69.929  1.00  0.00    -0.245 C  
HETATM   32  C   UNL     1     -11.596   6.570  69.721  1.00  0.00    -0.392 C  
HETATM   33  C   UNL     1     -10.870   5.243  69.928  1.00  0.00    -0.047 C  
HETATM   34  C   UNL     1     -10.036   5.197  71.213  1.00  0.00    -0.257 C  
HETATM   35  C   UNL     1      -9.079   6.393  71.253  1.00  0.00    -0.148 C  
HETATM   36  C   UNL     1     -10.909   5.122  72.472  1.00  0.00    -0.282 C  
HETATM   37  C   UNL     1      -9.813   7.728  71.156  1.00  0.00    -0.187 C  
ENDBRANCH  29  31
ENDBRANCH  27  29
ENDBRANCH  25  27
ENDBRANCH  22  25
ENDBRANCH  19  22
ENDBRANCH  15  16
ENDBRANCH  14  15
ENDBRANCH  12  14
ENDBRANCH  10  12
ENDBRANCH   7  10
ENDBRANCH   2   3
TORSDOF 11
ENDMDL
MODEL      317
REMARK 921   NORMALIZED FREE ENERGY PREDICTED BY IDOCK:   -1.48 KCAL/MOL
REMARK 922        TOTAL FREE ENERGY PREDICTED BY IDOCK:   -4.74 KCAL/MOL
REMARK 923 INTER-LIGAND FREE ENERGY PREDICTED BY IDOCK:   -6.90 KCAL/MOL
REMARK 924 INTRA-LIGAND FREE ENERGY PREDICTED BY IDOCK:    2.16 KCAL/MOL
REMARK 927      BINDING AFFINITY PREDICTED BY RF-SCORE:    0.00 PKD
ROOT
HETATM    1  C   UNL     1     -11.969  15.491  69.779  1.00  0.00    -0.384 C  
HETATM    2  C   UNL     1     -12.174  14.547  70.954  1.00  0.00    -0.409 C  
ENDROOT
BRANCH   2   3
HETATM    3  C   UNL     1     -12.053  13.123  70.543  1.00  0.00    -0.385 C  
HETATM    4  C   UNL     1     -11.368  12.543  69.546  1.00  0.00    -0.240 C  
HETATM    5  C   UNL     1     -11.556  11.060  69.517  1.00  0.00    -0.313 C  
HETATM    6  C   UNL     1     -10.461  13.198  68.566  1.00  0.00    -0.262 C  
HETATM    7  N   UNL     1     -12.368  10.834  70.681  1.00  0.00    -0.340 N  
HETATM    8  O   UNL     1     -13.505  12.207  72.209  1.00  0.00    -0.491 OA 
HETATM    9  C   UNL     1     -12.743  12.036  71.270  1.00  0.00    -0.279 C  
BRANCH   7  10
HETATM   10  C   UNL     1     -12.514   9.561  71.200  1.00  0.00    -0.315 C  
HETATM   11  O   UNL     1     -12.991   9.354  72.314  1.00  0.00    -0.401 OA 
BRANCH  10  12
HETATM   12  N   UNL     1     -12.126   8.546  70.363  1.00  0.00    -0.449 N  
HETATM   13  H   UNL     1     -11.646   8.789  69.496  1.00  0.00     0.000 HD 
BRANCH  12  14
HETATM   14  C   UNL     1     -12.365   7.147  70.651  1.00  0.00    -0.156 C  
BRANCH  14  15
HETATM   15  C   UNL     1     -11.344   6.550  71.635  1.00  0.00    -0.332 C  
BRANCH  15  16
HETATM   16  C   UNL     1     -10.084   6.006  70.983  1.00  0.00    -0.241 A  
HETATM   17  C   UNL     1      -9.170   6.850  70.335  1.00  0.00    -0.156 A  
HETATM   18  C   UNL     1      -8.045   6.331  69.690  1.00  0.00    -0.120 A  
HETATM   19  C   UNL     1      -7.774   4.964  69.739  1.00  0.00    -0.056 A  
HETATM   20  C   UNL     1      -8.647   4.109  70.419  1.00  0.00    -0.107 A  
HETATM   21  C   UNL     1      -9.791   4.632  71.042  1.00  0.00    -0.268 A  
BRANCH  19  22
HETATM   22  S   UNL     1      -6.413   4.307  68.793  1.00  0.00    -0.038 S  
HETATM   23  O   UNL     1      -5.236   4.369  69.636  1.00  0.00    -0.006 OA 
HETATM   24  O   UNL     1      -6.820   3.050  68.204  1.00  0.00    -0.047 OA 
BRANCH  22  25
HETATM   25  N   UNL     1      -6.141   5.430  67.585  1.00  0.00    -0.025 N  
HETATM   26  H   UNL     1      -5.194   5.521  67.214  1.00  0.00     0.000 HD 
BRANCH  25  27
HETATM   27  C   UNL     1      -7.128   6.240  67.060  1.00  0.00    -0.073 C  
HETATM   28  O   UNL     1      -7.356   7.362  67.486  1.00  0.00    -0.096 OA 
BRANCH  27  29
HETATM   29  N   UNL     1      -7.837   5.690  66.018  1.00  0.00    -0.099 N  
HETATM   30  H   UNL     1      -8.183   6.273  65.257  1.00  0.00     0.000 HD 
BRANCH  29  31
HETATM   31  C   UNL     1      -8.081   4.249  66.027  1.00  0.00    -0.102 C  
HETATM   32  C   UNL     1      -9.556   3.891  66.248  1.00  0.00    -0.198 C  
HETATM   33  C   UNL     1     -10.413   3.886  64.984  1.00  0.00    -0.078 C  
HETATM   34  C   UNL     1      -9.773   3.130  63.814  1.00  0.00    -0.140 C  
HETATM   35  C   UNL     1      -8.364   3.672  63.556  1.00  0.00    -0.090 C  
HETATM   36  C   UNL     1      -9.769   1.612  64.035  1.00  0.00    -0.131 C  
HETATM   37  C   UNL     1      -7.469   3.577  64.789  1.00  0.00    -0.073 C  
ENDBRANCH  29  31
ENDBRANCH  27  29
ENDBRANCH  25  27
ENDBRANCH  22  25
ENDBRANCH  19  22
ENDBRANCH  15  16
ENDBRANCH  14  15
ENDBRANCH  12  14
ENDBRANCH  10  12
ENDBRANCH   7  10
ENDBRANCH   2   3
TORSDOF 11
ENDMDL
MODEL      318
REMARK 921   NORMALIZED FREE ENERGY PREDICTED BY IDOCK:   -1.38 KCAL/MOL
REMARK 922        TOTAL FREE ENERGY PREDICTED BY IDOCK:   -4.58 KCAL/MOL
REMARK 923 INTER-LIGAND FREE ENERGY PREDICTED BY IDOCK:   -6.60 KCAL/MOL
REMARK 924 INTRA-LIGAND FREE ENERGY PREDICTED BY IDOCK:    2.03 KCAL/MOL
REMARK 927      BINDING AFFINITY PREDICTED BY RF-SCORE:    0.00 PKD
ROOT
HETATM    1  C   UNL     1     -11.943  15.947  69.504  1.00  0.00    -0.274 C  
HETATM    2  C   UNL     1     -12.186  15.094  70.740  1.00  0.00    -0.392 C  
ENDROOT
BRANCH   2   3
HETATM    3  C   UNL     1     -12.258  13.647  70.404  1.00  0.00    -0.434 C  
HETATM    4  C   UNL     1     -11.755  12.949  69.375  1.00  0.00    -0.382 C  
HETATM    5  C   UNL     1     -12.094  11.496  69.457  1.00  0.00    -0.284 C  
HETATM    6  C   UNL     1     -10.905  13.455  68.264  1.00  0.00    -0.275 C  
HETATM    7  N   UNL     1     -12.785  11.415  70.714  1.00  0.00    -0.290 N  
HETATM    8  O   UNL     1     -13.594  12.974  72.272  1.00  0.00    -0.549 OA 
HETATM    9  C   UNL     1     -12.966  12.678  71.267  1.00  0.00    -0.214 C  
BRANCH   7  10
HETATM   10  C   UNL     1     -12.999  10.191  71.322  1.00  0.00    -0.413 C  
HETATM   11  O   UNL     1     -13.522  10.088  72.430  1.00  0.00    -0.364 OA 
BRANCH  10  12
HETATM   12  N   UNL     1     -12.622   9.102  70.579  1.00  0.00    -0.410 N  
HETATM   13  H   UNL     1     -12.131   9.261  69.698  1.00  0.00     0.000 HD 
BRANCH  12  14
HETATM   14  C   UNL     1     -12.888   7.737  70.984  1.00  0.00    -0.057 C  
BRANCH  14  15
HETATM   15  C   UNL     1     -11.840   7.182  71.964  1.00  0.00    -0.333 C  
BRANCH  15  16
HETATM   16  C   UNL     1     -10.594   6.620  71.301  1.00  0.00    -0.256 A  
HETATM   17  C   UNL     1      -9.550   7.453  70.874  1.00  0.00    -0.166 A  
HETATM   18  C   UNL     1      -8.436   6.930  70.215  1.00  0.00    -0.139 A  
HETATM   19  C   UNL     1      -8.310   5.553  70.032  1.00  0.00    -0.116 A  
HETATM   20  C   UNL     1      -9.317   4.698  70.491  1.00  0.00    -0.222 A  
HETATM   21  C   UNL     1     -10.448   5.232  71.128  1.00  0.00    -0.275 A  
BRANCH  19  22
HETATM   22  S   UNL     1      -6.952   4.919  69.067  1.00  0.00    -0.053 S  
HETATM   23  O   UNL     1      -6.595   3.630  69.625  1.00  0.00    -0.032 OA 
HETATM   24  O   UNL     1      -7.281   5.038  67.663  1.00  0.00    -0.068 OA 
BRANCH  22  25
HETATM   25  N   UNL     1      -5.659   5.918  69.424  1.00  0.00    -0.011 N  
HETATM   26  H   UNL     1      -4.716   5.548  69.309  1.00  0.00     0.000 HD 
BRANCH  25  27
HETATM   27  C   UNL     1      -5.802   7.219  69.867  1.00  0.00    -0.024 C  
HETATM   28  O   UNL     1      -5.945   7.501  71.046  1.00  0.00    -0.035 OA 
BRANCH  27  29
HETATM   29  N   UNL     1      -5.766   8.175  68.879  1.00  0.00    -0.034 N  
HETATM   30  H   UNL     1      -5.303   9.069  69.035  1.00  0.00     0.000 HD 
BRANCH  29  31
HETATM   31  C   UNL     1      -6.408   7.877  67.601  1.00  0.00    -0.052 C  
HETATM   32  C   UNL     1      -7.657   8.729  67.342  1.00  0.00    -0.090 C  
HETATM   33  C   UNL     1      -7.384  10.100  66.726  1.00  0.00    -0.104 C  
HETATM   34  C   UNL     1      -6.423  10.054  65.533  1.00  0.00    -0.095 C  
HETATM   35  C   UNL     1      -5.133   9.333  65.935  1.00  0.00    -0.036 C  
HETATM   36  C   UNL     1      -7.066   9.423  64.291  1.00  0.00    -0.102 C  
HETATM   37  C   UNL     1      -5.392   7.919  66.449  1.00  0.00    -0.025 C  
ENDBRANCH  29  31
ENDBRANCH  27  29
ENDBRANCH  25  27
ENDBRANCH  22  25
ENDBRANCH  19  22
ENDBRANCH  15  16
ENDBRANCH  14  15
ENDBRANCH  12  14
ENDBRANCH  10  12
ENDBRANCH   7  10
ENDBRANCH   2   3
TORSDOF 11
ENDMDL
MODEL      319
REMARK 921   NORMALIZED FREE ENERGY PREDICTED BY IDOCK:   -1.26 KCAL/MOL
REMARK 922        TOTAL FREE ENERGY PREDICTED BY IDOCK:   -4.37 KCAL/MOL
REMARK 923 INTER-LIGAND FREE ENERGY PREDICTED BY IDOCK:   -6.52 KCAL/MOL
REMARK 924 INTRA-LIGAND FREE ENERGY PREDICTED BY IDOCK:    2.15 KCAL/MOL
REMARK 927      BINDING AFFINITY PREDICTED BY RF-SCORE:    0.00 PKD
ROOT
HETATM    1  C   UNL     1      -6.733  17.576  66.047  1.00  0.00    -0.256 C  
HETATM    2  C   UNL     1      -7.983  16.726  66.217  1.00  0.00    -0.352 C  
ENDROOT
BRANCH   2   3
HETATM    3  C   UNL     1      -7.719  15.518  67.044  1.00  0.00    -0.246 C  
HETATM    4  C   UNL     1      -6.772  15.258  67.957  1.00  0.00    -0.156 C  
HETATM    5  C   UNL     1      -6.902  13.886  68.534  1.00  0.00    -0.098 C  
HETATM    6  C   UNL     1      -5.708  16.176  68.448  1.00  0.00    -0.108 C  
HETATM    7  N   UNL     1      -8.102  13.405  67.905  1.00  0.00    -0.147 N  
HETATM    8  O   UNL     1      -9.504  14.175  66.188  1.00  0.00    -0.272 OA 
HETATM    9  C   UNL     1      -8.571  14.313  66.964  1.00  0.00    -0.192 C  
BRANCH   7  10
HETATM   10  C   UNL     1      -8.753  12.288  68.396  1.00  0.00    -0.139 C  
HETATM   11  O   UNL     1      -8.187  11.207  68.543  1.00  0.00    -0.135 OA 
BRANCH  10  12
HETATM   12  N   UNL     1     -10.064  12.489  68.745  1.00  0.00    -0.412 N  
HETATM   13  H   UNL     1     -10.344  12.309  69.710  1.00  0.00     0.000 HD 
BRANCH  12  14
HETATM   14  C   UNL     1     -11.071  12.946  67.809  1.00  0.00    -0.259 C  
BRANCH  14  15
HETATM   15  C   UNL     1     -11.720  11.800  67.012  1.00  0.00    -0.247 C  
BRANCH  15  16
HETATM   16  C   UNL     1     -10.772  10.668  66.652  1.00  0.00    -0.246 A  
HETATM   17  C   UNL     1      -9.879  10.773  65.576  1.00  0.00    -0.309 A  
HETATM   18  C   UNL     1      -9.053   9.705  65.220  1.00  0.00    -0.269 A  
HETATM   19  C   UNL     1      -9.054   8.533  65.976  1.00  0.00    -0.194 A  
HETATM   20  C   UNL     1      -9.903   8.423  67.082  1.00  0.00    -0.279 A  
HETATM   21  C   UNL     1     -10.750   9.490  67.419  1.00  0.00    -0.297 A  
BRANCH  19  22
HETATM   22  S   UNL     1      -8.099   7.133  65.423  1.00  0.00    -0.138 S  
HETATM   23  O   UNL     1      -8.090   7.166  63.975  1.00  0.00    -0.110 OA 
HETATM   24  O   UNL     1      -6.853   7.100  66.157  1.00  0.00    -0.055 OA 
BRANCH  22  25
HETATM   25  N   UNL     1      -9.018   5.793  65.821  1.00  0.00    -0.196 N  
HETATM   26  H   UNL     1      -9.105   5.045  65.132  1.00  0.00     0.000 HD 
BRANCH  25  27
HETATM   27  C   UNL     1      -9.666   5.646  67.031  1.00  0.00    -0.143 C  
HETATM   28  O   UNL     1     -10.870   5.804  67.158  1.00  0.00    -0.280 OA 
BRANCH  27  29
HETATM   29  N   UNL     1      -8.852   5.303  68.086  1.00  0.00    -0.105 N  
HETATM   30  H   UNL     1      -7.894   4.995  67.926  1.00  0.00     0.000 HD 
BRANCH  29  31
HETATM   31  C   UNL     1      -9.395   5.391  69.440  1.00  0.00    -0.124 C  
HETATM   32  C   UNL     1      -9.566   4.021  70.109  1.00  0.00    -0.270 C  
HETATM   33  C   UNL     1      -8.313   3.481  70.797  1.00  0.00    -0.090 C  
HETATM   34  C   UNL     1      -7.615   4.511  71.692  1.00  0.00    -0.078 C  
HETATM   35  C   UNL     1      -7.331   5.785  70.890  1.00  0.00    -0.085 C  
HETATM   36  C   UNL     1      -8.410   4.806  72.970  1.00  0.00    -0.101 C  
HETATM   37  C   UNL     1      -8.598   6.391  70.291  1.00  0.00    -0.135 C  
ENDBRANCH  29  31
ENDBRANCH  27  29
ENDBRANCH  25  27
ENDBRANCH  22  25
ENDBRANCH  19  22
ENDBRANCH  15  16
ENDBRANCH  14  15
ENDBRANCH  12  14
ENDBRANCH  10  12
ENDBRANCH   7  10
ENDBRANCH   2   3
TORSDOF 11
ENDMDL
MODEL      320
REMARK 921   NORMALIZED FREE ENERGY PREDICTED BY IDOCK:   -1.26 KCAL/MOL
REMARK 922        TOTAL FREE ENERGY PREDICTED BY IDOCK:   -4.37 KCAL/MOL
REMARK 923 INTER-LIGAND FREE ENERGY PREDICTED BY IDOCK:   -3.59 KCAL/MOL
REMARK 924 INTRA-LIGAND FREE ENERGY PREDICTED BY IDOCK:   -0.78 KCAL/MOL
REMARK 927      BINDING AFFINITY PREDICTED BY RF-SCORE:    0.00 PKD
ROOT
HETATM    1  C   UNL     1     -11.164   2.011  71.220  1.00  0.00     2.691 C  
HETATM    2  C   UNL     1     -10.479   2.114  72.574  1.00  0.00    -0.198 C  
ENDROOT
BRANCH   2   3
HETATM    3  C   UNL     1      -9.043   2.475  72.439  1.00  0.00    -0.121 C  
HETATM    4  C   UNL     1      -8.161   2.251  71.454  1.00  0.00    -0.055 C  
HETATM    5  C   UNL     1      -6.808   2.803  71.767  1.00  0.00    -0.026 C  
HETATM    6  C   UNL     1      -8.411   1.591  70.144  1.00  0.00    -0.076 C  
HETATM    7  N   UNL     1      -7.032   3.459  73.026  1.00  0.00    -0.038 N  
HETATM    8  O   UNL     1      -8.804   3.550  74.563  1.00  0.00    -0.086 OA 
HETATM    9  C   UNL     1      -8.321   3.224  73.490  1.00  0.00    -0.075 C  
BRANCH   7  10
HETATM   10  C   UNL     1      -6.112   4.365  73.521  1.00  0.00    -0.028 C  
HETATM   11  O   UNL     1      -5.134   4.018  74.179  1.00  0.00    -0.003 OA 
BRANCH  10  12
HETATM   12  N   UNL     1      -6.350   5.674  73.186  1.00  0.00    -0.060 N  
HETATM   13  H   UNL     1      -6.988   5.869  72.414  1.00  0.00     0.000 HD 
BRANCH  12  14
HETATM   14  C   UNL     1      -5.739   6.792  73.876  1.00  0.00    -0.055 C  
BRANCH  14  15
HETATM   15  C   UNL     1      -6.747   7.890  74.259  1.00  0.00    -0.129 C  
BRANCH  15  16
HETATM   16  C   UNL     1      -8.115   7.741  73.614  1.00  0.00    -0.226 A  
HETATM   17  C   UNL     1      -9.073   6.851  74.121  1.00  0.00    -0.238 A  
HETATM   18  C   UNL     1     -10.305   6.683  73.486  1.00  0.00    -0.318 A  
HETATM   19  C   UNL     1     -10.631   7.452  72.369  1.00  0.00    -0.244 A  
HETATM   20  C   UNL     1      -9.710   8.379  71.874  1.00  0.00    -0.331 A  
HETATM   21  C   UNL     1      -8.462   8.525  72.500  1.00  0.00    -0.181 A  
BRANCH  19  22
HETATM   22  S   UNL     1     -12.148   7.122  71.492  1.00  0.00    -0.362 S  
HETATM   23  O   UNL     1     -11.845   7.177  70.076  1.00  0.00    -0.129 OA 
HETATM   24  O   UNL     1     -12.767   5.944  72.058  1.00  0.00     0.106 OA 
BRANCH  22  25
HETATM   25  N   UNL     1     -13.116   8.455  71.779  1.00  0.00    -0.341 N  
HETATM   26  H   UNL     1     -14.027   8.307  72.215  1.00  0.00     0.000 HD 
BRANCH  25  27
HETATM   27  C   UNL     1     -12.749   9.747  71.458  1.00  0.00    -0.406 C  
HETATM   28  O   UNL     1     -12.668  10.636  72.291  1.00  0.00    -0.196 OA 
BRANCH  27  29
HETATM   29  N   UNL     1     -12.476   9.958  70.127  1.00  0.00    -0.495 N  
HETATM   30  H   UNL     1     -13.097   9.597  69.403  1.00  0.00     0.000 HD 
BRANCH  29  31
HETATM   31  C   UNL     1     -11.276  10.713  69.774  1.00  0.00    -0.297 C  
HETATM   32  C   UNL     1     -10.241   9.876  69.011  1.00  0.00    -0.213 C  
HETATM   33  C   UNL     1     -10.464   9.796  67.502  1.00  0.00    -0.309 C  
HETATM   34  C   UNL     1     -10.742  11.156  66.853  1.00  0.00    -0.322 C  
HETATM   35  C   UNL     1     -11.904  11.847  67.574  1.00  0.00    -0.249 C  
HETATM   36  C   UNL     1      -9.492  12.044  66.804  1.00  0.00    -0.212 C  
HETATM   37  C   UNL     1     -11.637  12.028  69.067  1.00  0.00    -0.370 C  
ENDBRANCH  29  31
ENDBRANCH  27  29
ENDBRANCH  25  27
ENDBRANCH  22  25
ENDBRANCH  19  22
ENDBRANCH  15  16
ENDBRANCH  14  15
ENDBRANCH  12  14
ENDBRANCH  10  12
ENDBRANCH   7  10
ENDBRANCH   2   3
TORSDOF 11
ENDMDL
MODEL      321
REMARK 921   NORMALIZED FREE ENERGY PREDICTED BY IDOCK:   -1.05 KCAL/MOL
REMARK 922        TOTAL FREE ENERGY PREDICTED BY IDOCK:   -4.02 KCAL/MOL
REMARK 923 INTER-LIGAND FREE ENERGY PREDICTED BY IDOCK:   -4.52 KCAL/MOL
REMARK 924 INTRA-LIGAND FREE ENERGY PREDICTED BY IDOCK:    0.50 KCAL/MOL
REMARK 927      BINDING AFFINITY PREDICTED BY RF-SCORE:    0.00 PKD
ROOT
HETATM    1  C   UNL     1     -14.411  14.354  71.516  1.00  0.00    -0.442 C  
HETATM    2  C   UNL     1     -13.086  14.660  72.197  1.00  0.00    -0.430 C  
ENDROOT
BRANCH   2   3
HETATM    3  C   UNL     1     -11.956  14.653  71.231  1.00  0.00    -0.401 C  
HETATM    4  C   UNL     1     -11.382  13.653  70.544  1.00  0.00     0.310 C  
HETATM    5  C   UNL     1     -10.256  14.129  69.684  1.00  0.00     0.370 C  
HETATM    6  C   UNL     1     -11.778  12.219  70.528  1.00  0.00     0.009 C  
HETATM    7  N   UNL     1     -10.300  15.551  69.887  1.00  0.00    -0.304 N  
HETATM    8  O   UNL     1     -11.465  16.992  71.328  1.00  0.00     0.226 OA 
HETATM    9  C   UNL     1     -11.242  15.890  70.850  1.00  0.00    -0.351 C  
BRANCH   7  10
HETATM   10  C   UNL     1      -9.624  16.404  69.033  1.00  0.00    -0.264 C  
HETATM   11  O   UNL     1      -8.545  16.913  69.328  1.00  0.00    -0.114 OA 
BRANCH  10  12
HETATM   12  N   UNL     1     -10.229  16.605  67.818  1.00  0.00    -0.282 N  
HETATM   13  H   UNL     1      -9.880  17.354  67.220  1.00  0.00     0.000 HD 
BRANCH  12  14
HETATM   14  C   UNL     1     -11.340  15.804  67.345  1.00  0.00    -0.106 C  
BRANCH  14  15
HETATM   15  C   UNL     1     -10.964  14.885  66.169  1.00  0.00    -0.334 C  
BRANCH  15  16
HETATM   16  C   UNL     1      -9.889  13.861  66.489  1.00  0.00    -0.296 A  
HETATM   17  C   UNL     1     -10.102  12.488  66.299  1.00  0.00    -0.264 A  
HETATM   18  C   UNL     1      -9.127  11.553  66.650  1.00  0.00    -0.193 A  
HETATM   19  C   UNL     1      -7.890  11.976  67.136  1.00  0.00    -0.168 A  
HETATM   20  C   UNL     1      -7.637  13.342  67.291  1.00  0.00    -0.076 A  
HETATM   21  C   UNL     1      -8.631  14.277  66.962  1.00  0.00    -0.213 A  
BRANCH  19  22
HETATM   22  S   UNL     1      -6.714  10.765  67.709  1.00  0.00    -0.069 S  
HETATM   23  O   UNL     1      -5.411  11.167  67.219  1.00  0.00    -0.040 OA 
HETATM   24  O   UNL     1      -6.923  10.546  69.124  1.00  0.00    -0.064 OA 
BRANCH  22  25
HETATM   25  N   UNL     1      -7.081   9.368  66.866  1.00  0.00    -0.085 N  
HETATM   26  H   UNL     1      -7.920   9.360  66.285  1.00  0.00     0.000 HD 
BRANCH  25  27
HETATM   27  C   UNL     1      -6.309   8.224  66.914  1.00  0.00    -0.056 C  
HETATM   28  O   UNL     1      -5.804   7.727  65.919  1.00  0.00    -0.036 OA 
BRANCH  27  29
HETATM   29  N   UNL     1      -6.148   7.686  68.169  1.00  0.00    -0.039 N  
HETATM   30  H   UNL     1      -5.218   7.573  68.573  1.00  0.00     0.000 HD 
BRANCH  29  31
HETATM   31  C   UNL     1      -7.340   7.279  68.910  1.00  0.00    -0.095 C  
HETATM   32  C   UNL     1      -8.582   7.143  68.022  1.00  0.00    -0.128 C  
HETATM   33  C   UNL     1      -8.729   5.794  67.321  1.00  0.00    -0.108 C  
HETATM   34  C   UNL     1      -8.515   4.595  68.252  1.00  0.00    -0.101 C  
HETATM   35  C   UNL     1      -7.168   4.732  68.971  1.00  0.00    -0.053 C  
HETATM   36  C   UNL     1      -9.673   4.412  69.241  1.00  0.00    -0.252 C  
HETATM   37  C   UNL     1      -7.061   6.032  69.763  1.00  0.00    -0.072 C  
ENDBRANCH  29  31
ENDBRANCH  27  29
ENDBRANCH  25  27
ENDBRANCH  22  25
ENDBRANCH  19  22
ENDBRANCH  15  16
ENDBRANCH  14  15
ENDBRANCH  12  14
ENDBRANCH  10  12
ENDBRANCH   7  10
ENDBRANCH   2   3
TORSDOF 11
ENDMDL
MODEL      322
REMARK 921   NORMALIZED FREE ENERGY PREDICTED BY IDOCK:   -0.83 KCAL/MOL
REMARK 922        TOTAL FREE ENERGY PREDICTED BY IDOCK:   -3.67 KCAL/MOL
REMARK 923 INTER-LIGAND FREE ENERGY PREDICTED BY IDOCK:   -5.36 KCAL/MOL
REMARK 924 INTRA-LIGAND FREE ENERGY PREDICTED BY IDOCK:    1.69 KCAL/MOL
REMARK 927      BINDING AFFINITY PREDICTED BY RF-SCORE:    0.00 PKD
ROOT
HETATM    1  C   UNL     1      -9.531  12.891  66.342  1.00  0.00    -0.228 C  
HETATM    2  C   UNL     1      -9.138  14.065  65.458  1.00  0.00     0.809 C  
ENDROOT
BRANCH   2   3
HETATM    3  C   UNL     1      -9.862  15.307  65.838  1.00  0.00    -0.385 C  
HETATM    4  C   UNL     1     -10.971  15.875  65.342  1.00  0.00    -0.293 C  
HETATM    5  C   UNL     1     -11.327  17.141  66.052  1.00  0.00     0.927 C  
HETATM    6  C   UNL     1     -11.846  15.359  64.255  1.00  0.00    -0.207 C  
HETATM    7  N   UNL     1     -10.332  17.198  67.088  1.00  0.00    -0.309 N  
HETATM    8  O   UNL     1      -8.387  15.986  67.595  1.00  0.00    -0.148 OA 
HETATM    9  C   UNL     1      -9.406  16.171  66.948  1.00  0.00    -0.227 C  
BRANCH   7  10
HETATM   10  C   UNL     1     -10.486  18.052  68.165  1.00  0.00    -0.361 C  
HETATM   11  O   UNL     1     -10.559  19.272  68.032  1.00  0.00    -0.396 OA 
BRANCH  10  12
HETATM   12  N   UNL     1     -10.593  17.433  69.384  1.00  0.00    -0.361 N  
HETATM   13  H   UNL     1      -9.931  17.687  70.118  1.00  0.00     0.000 HD 
BRANCH  12  14
HETATM   14  C   UNL     1     -11.602  16.435  69.679  1.00  0.00    -0.018 C  
BRANCH  14  15
HETATM   15  C   UNL     1     -11.598  15.260  68.685  1.00  0.00    -0.370 C  
BRANCH  15  16
HETATM   16  C   UNL     1     -11.955  13.916  69.297  1.00  0.00    -0.402 A  
HETATM   17  C   UNL     1     -12.302  13.795  70.651  1.00  0.00    -0.445 A  
HETATM   18  C   UNL     1     -12.573  12.546  71.215  1.00  0.00    -0.332 A  
HETATM   19  C   UNL     1     -12.569  11.400  70.419  1.00  0.00    -0.185 A  
HETATM   20  C   UNL     1     -12.272  11.503  69.058  1.00  0.00    -0.186 A  
HETATM   21  C   UNL     1     -11.974  12.757  68.502  1.00  0.00    -0.265 A  
BRANCH  19  22
HETATM   22  S   UNL     1     -12.778   9.804  71.185  1.00  0.00    -0.332 S  
HETATM   23  O   UNL     1     -12.382   9.939  72.572  1.00  0.00     0.076 OA 
HETATM   24  O   UNL     1     -14.089   9.294  70.849  1.00  0.00    -0.065 OA 
BRANCH  22  25
HETATM   25  N   UNL     1     -11.606   8.832  70.493  1.00  0.00    -0.421 N  
HETATM   26  H   UNL     1     -10.706   9.252  70.259  1.00  0.00     0.000 HD 
BRANCH  25  27
HETATM   27  C   UNL     1     -11.791   7.491  70.221  1.00  0.00     0.048 C  
HETATM   28  O   UNL     1     -11.863   6.644  71.098  1.00  0.00    -0.332 OA 
BRANCH  27  29
HETATM   29  N   UNL     1     -11.892   7.178  68.885  1.00  0.00     0.186 N  
HETATM   30  H   UNL     1     -12.512   7.707  68.272  1.00  0.00     0.000 HD 
BRANCH  29  31
HETATM   31  C   UNL     1     -11.091   6.072  68.367  1.00  0.00    -0.177 C  
HETATM   32  C   UNL     1     -10.032   6.519  67.352  1.00  0.00    -0.180 C  
HETATM   33  C   UNL     1      -8.718   7.000  67.963  1.00  0.00    -0.126 C  
HETATM   34  C   UNL     1      -8.166   6.061  69.042  1.00  0.00    -0.108 C  
HETATM   35  C   UNL     1      -9.239   5.806  70.105  1.00  0.00    -0.173 C  
HETATM   36  C   UNL     1      -7.623   4.753  68.453  1.00  0.00    -0.077 C  
HETATM   37  C   UNL     1     -10.519   5.221  69.511  1.00  0.00    -0.304 C  
ENDBRANCH  29  31
ENDBRANCH  27  29
ENDBRANCH  25  27
ENDBRANCH  22  25
ENDBRANCH  19  22
ENDBRANCH  15  16
ENDBRANCH  14  15
ENDBRANCH  12  14
ENDBRANCH  10  12
ENDBRANCH   7  10
ENDBRANCH   2   3
TORSDOF 11
ENDMDL
MODEL      323
REMARK 921   NORMALIZED FREE ENERGY PREDICTED BY IDOCK:   -0.37 KCAL/MOL
REMARK 922        TOTAL FREE ENERGY PREDICTED BY IDOCK:   -2.92 KCAL/MOL
REMARK 923 INTER-LIGAND FREE ENERGY PREDICTED BY IDOCK:   -1.77 KCAL/MOL
REMARK 924 INTRA-LIGAND FREE ENERGY PREDICTED BY IDOCK:   -1.15 KCAL/MOL
REMARK 927      BINDING AFFINITY PREDICTED BY RF-SCORE:    0.00 PKD
ROOT
HETATM    1  C   UNL     1     -11.201   2.015  71.182  1.00  0.00     2.993 C  
HETATM    2  C   UNL     1     -10.520   2.075  72.541  1.00  0.00    -0.211 C  
ENDROOT
BRANCH   2   3
HETATM    3  C   UNL     1      -9.074   2.398  72.417  1.00  0.00    -0.120 C  
HETATM    4  C   UNL     1      -8.196   2.172  71.429  1.00  0.00    -0.060 C  
HETATM    5  C   UNL     1      -6.828   2.677  71.758  1.00  0.00    -0.026 C  
HETATM    6  C   UNL     1      -8.461   1.549  70.104  1.00  0.00    -0.076 C  
HETATM    7  N   UNL     1      -7.037   3.310  73.032  1.00  0.00    -0.043 N  
HETATM    8  O   UNL     1      -8.811   3.416  74.566  1.00  0.00    -0.085 OA 
HETATM    9  C   UNL     1      -8.334   3.102  73.486  1.00  0.00    -0.074 C  
BRANCH   7  10
HETATM   10  C   UNL     1      -6.093   4.178  73.549  1.00  0.00    -0.016 C  
HETATM   11  O   UNL     1      -5.129   3.788  74.204  1.00  0.00     0.000 OA 
BRANCH  10  12
HETATM   12  N   UNL     1      -6.291   5.500  73.241  1.00  0.00    -0.059 N  
HETATM   13  H   UNL     1      -6.886   5.729  72.445  1.00  0.00     0.000 HD 
BRANCH  12  14
HETATM   14  C   UNL     1      -5.695   6.585  73.993  1.00  0.00    -0.055 C  
BRANCH  14  15
HETATM   15  C   UNL     1      -6.701   7.692  74.356  1.00  0.00    -0.112 C  
BRANCH  15  16
HETATM   16  C   UNL     1      -8.018   7.619  73.602  1.00  0.00    -0.188 A  
HETATM   17  C   UNL     1      -8.962   6.616  73.869  1.00  0.00    -0.170 A  
HETATM   18  C   UNL     1     -10.143   6.526  73.130  1.00  0.00    -0.208 A  
HETATM   19  C   UNL     1     -10.436   7.478  72.154  1.00  0.00    -0.214 A  
HETATM   20  C   UNL     1      -9.531   8.513  71.903  1.00  0.00    -0.350 A  
HETATM   21  C   UNL     1      -8.333   8.584  72.629  1.00  0.00    -0.151 A  
BRANCH  19  22
HETATM   22  S   UNL     1     -11.879   7.265  71.128  1.00  0.00    -0.325 S  
HETATM   23  O   UNL     1     -11.705   6.026  70.397  1.00  0.00    -0.214 OA 
HETATM   24  O   UNL     1     -13.060   7.472  71.937  1.00  0.00    -0.311 OA 
BRANCH  22  25
HETATM   25  N   UNL     1     -11.774   8.468  69.972  1.00  0.00    -0.407 N  
HETATM   26  H   UNL     1     -12.575   9.087  69.844  1.00  0.00     0.000 HD 
BRANCH  25  27
HETATM   27  C   UNL     1     -10.659   8.671  69.182  1.00  0.00    -0.178 C  
HETATM   28  O   UNL     1     -10.079   9.744  69.122  1.00  0.00    -0.173 OA 
BRANCH  27  29
HETATM   29  N   UNL     1     -10.248   7.570  68.468  1.00  0.00    -0.192 N  
HETATM   30  H   UNL     1     -10.893   7.076  67.853  1.00  0.00     0.000 HD 
BRANCH  29  31
HETATM   31  C   UNL     1      -8.863   7.126  68.611  1.00  0.00    -0.126 C  
HETATM   32  C   UNL     1      -8.739   5.751  69.279  1.00  0.00    -0.113 C  
HETATM   33  C   UNL     1      -8.875   4.560  68.331  1.00  0.00    -0.126 C  
HETATM   34  C   UNL     1      -8.033   4.695  67.057  1.00  0.00    -0.102 C  
HETATM   35  C   UNL     1      -8.349   6.024  66.365  1.00  0.00    -0.118 C  
HETATM   36  C   UNL     1      -6.532   4.537  67.331  1.00  0.00    -0.045 C  
HETATM   37  C   UNL     1      -8.109   7.226  67.277  1.00  0.00    -0.112 C  
ENDBRANCH  29  31
ENDBRANCH  27  29
ENDBRANCH  25  27
ENDBRANCH  22  25
ENDBRANCH  19  22
ENDBRANCH  15  16
ENDBRANCH  14  15
ENDBRANCH  12  14
ENDBRANCH  10  12
ENDBRANCH   7  10
ENDBRANCH   2   3
TORSDOF 11
ENDMDL
MODEL      324
REMARK 921   NORMALIZED FREE ENERGY PREDICTED BY IDOCK:   -0.34 KCAL/MOL
REMARK 922        TOTAL FREE ENERGY PREDICTED BY IDOCK:   -2.87 KCAL/MOL
REMARK 923 INTER-LIGAND FREE ENERGY PREDICTED BY IDOCK:   -4.82 KCAL/MOL
REMARK 924 INTRA-LIGAND FREE ENERGY PREDICTED BY IDOCK:    1.95 KCAL/MOL
REMARK 927      BINDING AFFINITY PREDICTED BY RF-SCORE:    0.00 PKD
ROOT
HETATM    1  C   UNL     1     -11.491  12.444  65.221  1.00  0.00    -0.389 C  
HETATM    2  C   UNL     1     -11.947  12.246  66.659  1.00  0.00    -0.257 C  
ENDROOT
BRANCH   2   3
HETATM    3  C   UNL     1     -11.277  11.080  67.293  1.00  0.00    -0.330 C  
HETATM    4  C   UNL     1     -10.410  10.181  66.804  1.00  0.00    -0.285 C  
HETATM    5  C   UNL     1     -10.005   9.170  67.827  1.00  0.00    -0.189 C  
HETATM    6  C   UNL     1      -9.820  10.139  65.439  1.00  0.00    -0.375 C  
HETATM    7  N   UNL     1     -10.677   9.644  69.006  1.00  0.00    -0.220 N  
HETATM    8  O   UNL     1     -12.275  11.303  69.456  1.00  0.00    -0.308 OA 
HETATM    9  C   UNL     1     -11.496  10.727  68.712  1.00  0.00    -0.295 C  
BRANCH   7  10
HETATM   10  C   UNL     1     -10.321   9.171  70.256  1.00  0.00    -0.214 C  
HETATM   11  O   UNL     1     -10.042   9.922  71.188  1.00  0.00    -0.041 OA 
BRANCH  10  12
HETATM   12  N   UNL     1     -10.342   7.806  70.387  1.00  0.00    -0.208 N  
HETATM   13  H   UNL     1     -10.711   7.250  69.615  1.00  0.00     0.000 HD 
BRANCH  12  14
HETATM   14  C   UNL     1      -9.866   7.117  71.569  1.00  0.00    -0.171 C  
BRANCH  14  15
HETATM   15  C   UNL     1      -8.337   6.944  71.593  1.00  0.00    -0.109 C  
BRANCH  15  16
HETATM   16  C   UNL     1      -7.822   5.785  70.756  1.00  0.00    -0.101 A  
HETATM   17  C   UNL     1      -7.410   5.964  69.427  1.00  0.00    -0.075 A  
HETATM   18  C   UNL     1      -6.992   4.881  68.652  1.00  0.00    -0.053 A  
HETATM   19  C   UNL     1      -6.912   3.606  69.210  1.00  0.00    -0.045 A  
HETATM   20  C   UNL     1      -7.273   3.411  70.547  1.00  0.00    -0.037 A  
HETATM   21  C   UNL     1      -7.718   4.498  71.314  1.00  0.00    -0.077 A  
BRANCH  19  22
HETATM   22  S   UNL     1      -6.512   2.217  68.167  1.00  0.00    -0.029 S  
HETATM   23  O   UNL     1      -5.370   1.551  68.759  1.00  0.00    -0.011 OA 
HETATM   24  O   UNL     1      -7.724   1.477  67.891  1.00  0.00    -0.056 OA 
BRANCH  22  25
HETATM   25  N   UNL     1      -5.933   2.890  66.749  1.00  0.00    -0.023 N  
HETATM   26  H   UNL     1      -5.405   2.293  66.111  1.00  0.00     0.000 HD 
BRANCH  25  27
HETATM   27  C   UNL     1      -6.131   4.210  66.396  1.00  0.00    -0.031 C  
HETATM   28  O   UNL     1      -5.305   5.082  66.613  1.00  0.00    -0.008 OA 
BRANCH  27  29
HETATM   29  N   UNL     1      -7.331   4.470  65.775  1.00  0.00    -0.076 N  
HETATM   30  H   UNL     1      -7.790   5.373  65.885  1.00  0.00     0.000 HD 
BRANCH  29  31
HETATM   31  C   UNL     1      -7.932   3.420  64.956  1.00  0.00    -0.086 C  
HETATM   32  C   UNL     1      -9.368   3.079  65.372  1.00  0.00    -0.114 C  
HETATM   33  C   UNL     1     -10.444   3.975  64.764  1.00  0.00    -0.194 C  
HETATM   34  C   UNL     1     -10.284   4.184  63.253  1.00  0.00    -0.068 C  
HETATM   35  C   UNL     1      -8.870   4.688  62.948  1.00  0.00    -0.126 C  
HETATM   36  C   UNL     1     -10.625   2.922  62.451  1.00  0.00    -0.142 C  
HETATM   37  C   UNL     1      -7.790   3.737  63.459  1.00  0.00    -0.075 C  
ENDBRANCH  29  31
ENDBRANCH  27  29
ENDBRANCH  25  27
ENDBRANCH  22  25
ENDBRANCH  19  22
ENDBRANCH  15  16
ENDBRANCH  14  15
ENDBRANCH  12  14
ENDBRANCH  10  12
ENDBRANCH   7  10
ENDBRANCH   2   3
TORSDOF 11
ENDMDL
MODEL      325
REMARK 921   NORMALIZED FREE ENERGY PREDICTED BY IDOCK:   -0.23 KCAL/MOL
REMARK 922        TOTAL FREE ENERGY PREDICTED BY IDOCK:   -2.68 KCAL/MOL
REMARK 923 INTER-LIGAND FREE ENERGY PREDICTED BY IDOCK:   -5.58 KCAL/MOL
REMARK 924 INTRA-LIGAND FREE ENERGY PREDICTED BY IDOCK:    2.90 KCAL/MOL
REMARK 927      BINDING AFFINITY PREDICTED BY RF-SCORE:    0.00 PKD
ROOT
HETATM    1  C   UNL     1     -13.908   9.365  70.828  1.00  0.00     0.209 C  
HETATM    2  C   UNL     1     -12.585   9.765  71.464  1.00  0.00    -0.493 C  
ENDROOT
BRANCH   2   3
HETATM    3  C   UNL     1     -11.524   8.756  71.205  1.00  0.00    -0.355 C  
HETATM    4  C   UNL     1     -10.905   8.390  70.073  1.00  0.00    -0.225 C  
HETATM    5  C   UNL     1      -9.894   7.314  70.302  1.00  0.00    -0.179 C  
HETATM    6  C   UNL     1     -11.090   8.961  68.711  1.00  0.00     0.178 C  
HETATM    7  N   UNL     1      -9.935   7.158  71.730  1.00  0.00    -0.176 N  
HETATM    8  O   UNL     1     -11.305   7.971  73.454  1.00  0.00    -0.181 OA 
HETATM    9  C   UNL     1     -10.938   7.941  72.290  1.00  0.00    -0.300 C  
BRANCH   7  10
HETATM   10  C   UNL     1      -8.929   6.478  72.392  1.00  0.00    -0.133 C  
HETATM   11  O   UNL     1      -9.129   5.854  73.432  1.00  0.00    -0.133 OA 
BRANCH  10  12
HETATM   12  N   UNL     1      -7.702   6.519  71.780  1.00  0.00    -0.094 N  
HETATM   13  H   UNL     1      -6.941   7.010  72.250  1.00  0.00     0.000 HD 
BRANCH  12  14
HETATM   14  C   UNL     1      -7.437   5.899  70.498  1.00  0.00    -0.090 C  
BRANCH  14  15
HETATM   15  C   UNL     1      -6.189   6.466  69.799  1.00  0.00    -0.034 C  
BRANCH  15  16
HETATM   16  C   UNL     1      -6.285   7.937  69.433  1.00  0.00    -0.034 A  
HETATM   17  C   UNL     1      -7.514   8.614  69.431  1.00  0.00    -0.080 A  
HETATM   18  C   UNL     1      -7.597   9.951  69.038  1.00  0.00    -0.086 A  
HETATM   19  C   UNL     1      -6.443  10.659  68.704  1.00  0.00    -0.051 A  
HETATM   20  C   UNL     1      -5.201  10.018  68.744  1.00  0.00    -0.035 A  
HETATM   21  C   UNL     1      -5.126   8.666  69.113  1.00  0.00    -0.035 A  
BRANCH  19  22
HETATM   22  S   UNL     1      -6.587  12.320  68.071  1.00  0.00    -0.088 S  
HETATM   23  O   UNL     1      -5.958  13.201  69.034  1.00  0.00    -0.075 OA 
HETATM   24  O   UNL     1      -6.161  12.330  66.689  1.00  0.00    -0.130 OA 
BRANCH  22  25
HETATM   25  N   UNL     1      -8.218  12.678  68.157  1.00  0.00    -0.163 N  
HETATM   26  H   UNL     1      -8.865  11.931  68.411  1.00  0.00     0.000 HD 
BRANCH  25  27
HETATM   27  C   UNL     1      -8.737  13.933  67.902  1.00  0.00    -0.184 C  
HETATM   28  O   UNL     1      -9.394  14.553  68.724  1.00  0.00    -0.204 OA 
BRANCH  27  29
HETATM   29  N   UNL     1      -8.455  14.434  66.653  1.00  0.00    -0.421 N  
HETATM   30  H   UNL     1      -7.954  13.872  65.966  1.00  0.00     0.000 HD 
BRANCH  29  31
HETATM   31  C   UNL     1      -8.891  15.792  66.334  1.00  0.00    -0.336 C  
HETATM   32  C   UNL     1     -10.011  16.295  67.253  1.00  0.00    -0.250 C  
HETATM   33  C   UNL     1      -9.538  16.907  68.570  1.00  0.00    -0.262 C  
HETATM   34  C   UNL     1      -8.395  17.914  68.400  1.00  0.00    -0.307 C  
HETATM   35  C   UNL     1      -7.248  17.267  67.616  1.00  0.00    -0.176 C  
HETATM   36  C   UNL     1      -8.863  19.222  67.750  1.00  0.00    -0.348 C  
HETATM   37  C   UNL     1      -7.694  16.751  66.250  1.00  0.00    -0.310 C  
ENDBRANCH  29  31
ENDBRANCH  27  29
ENDBRANCH  25  27
ENDBRANCH  22  25
ENDBRANCH  19  22
ENDBRANCH  15  16
ENDBRANCH  14  15
ENDBRANCH  12  14
ENDBRANCH  10  12
ENDBRANCH   7  10
ENDBRANCH   2   3
TORSDOF 11
ENDMDL
MODEL      326
REMARK 921   NORMALIZED FREE ENERGY PREDICTED BY IDOCK:    0.15 KCAL/MOL
REMARK 922        TOTAL FREE ENERGY PREDICTED BY IDOCK:   -2.06 KCAL/MOL
REMARK 923 INTER-LIGAND FREE ENERGY PREDICTED BY IDOCK:   -2.16 KCAL/MOL
REMARK 924 INTRA-LIGAND FREE ENERGY PREDICTED BY IDOCK:    0.10 KCAL/MOL
REMARK 927      BINDING AFFINITY PREDICTED BY RF-SCORE:    0.00 PKD
ROOT
HETATM    1  C   UNL     1     -11.269   2.050  71.131  1.00  0.00     2.993 C  
HETATM    2  C   UNL     1     -10.521   2.075  72.456  1.00  0.00    -0.211 C  
ENDROOT
BRANCH   2   3
HETATM    3  C   UNL     1      -9.105   2.494  72.280  1.00  0.00    -0.129 C  
HETATM    4  C   UNL     1      -8.285   2.427  71.221  1.00  0.00    -0.070 C  
HETATM    5  C   UNL     1      -6.926   2.974  71.520  1.00  0.00    -0.031 C  
HETATM    6  C   UNL     1      -8.606   1.934  69.854  1.00  0.00    -0.096 C  
HETATM    7  N   UNL     1      -7.082   3.454  72.866  1.00  0.00    -0.043 N  
HETATM    8  O   UNL     1      -8.751   3.291  74.508  1.00  0.00    -0.079 OA 
HETATM    9  C   UNL     1      -8.332   3.122  73.373  1.00  0.00    -0.074 C  
BRANCH   7  10
HETATM   10  C   UNL     1      -6.151   4.315  73.417  1.00  0.00    -0.020 C  
HETATM   11  O   UNL     1      -5.135   3.914  73.981  1.00  0.00    -0.003 OA 
BRANCH  10  12
HETATM   12  N   UNL     1      -6.426   5.648  73.250  1.00  0.00    -0.066 N  
HETATM   13  H   UNL     1      -7.094   5.920  72.528  1.00  0.00     0.000 HD 
BRANCH  12  14
HETATM   14  C   UNL     1      -5.812   6.689  74.049  1.00  0.00    -0.062 C  
BRANCH  14  15
HETATM   15  C   UNL     1      -6.774   7.843  74.381  1.00  0.00    -0.132 C  
BRANCH  15  16
HETATM   16  C   UNL     1      -8.025   7.887  73.520  1.00  0.00    -0.225 A  
HETATM   17  C   UNL     1      -9.239   7.336  73.958  1.00  0.00    -0.292 A  
HETATM   18  C   UNL     1     -10.366   7.332  73.135  1.00  0.00    -0.359 A  
HETATM   19  C   UNL     1     -10.322   7.941  71.880  1.00  0.00    -0.215 A  
HETATM   20  C   UNL     1      -9.137   8.537  71.440  1.00  0.00    -0.266 A  
HETATM   21  C   UNL     1      -7.999   8.514  72.261  1.00  0.00    -0.135 A  
BRANCH  19  22
HETATM   22  S   UNL     1     -11.727   7.801  70.791  1.00  0.00    -0.171 S  
HETATM   23  O   UNL     1     -11.936   6.389  70.540  1.00  0.00    -0.341 OA 
HETATM   24  O   UNL     1     -12.803   8.615  71.311  1.00  0.00    -0.287 OA 
BRANCH  22  25
HETATM   25  N   UNL     1     -11.208   8.428  69.329  1.00  0.00    -0.410 N  
HETATM   26  H   UNL     1     -11.425   9.402  69.117  1.00  0.00     0.000 HD 
BRANCH  25  27
HETATM   27  C   UNL     1     -10.502   7.697  68.394  1.00  0.00    -0.169 C  
HETATM   28  O   UNL     1     -10.755   6.529  68.143  1.00  0.00    -0.225 OA 
BRANCH  27  29
HETATM   29  N   UNL     1      -9.492   8.384  67.763  1.00  0.00    -0.147 N  
HETATM   30  H   UNL     1      -8.592   7.940  67.583  1.00  0.00     0.000 HD 
BRANCH  29  31
HETATM   31  C   UNL     1      -9.740   9.766  67.357  1.00  0.00    -0.163 C  
HETATM   32  C   UNL     1      -9.801  10.739  68.541  1.00  0.00    -0.182 C  
HETATM   33  C   UNL     1      -8.447  11.267  69.011  1.00  0.00     0.002 C  
HETATM   34  C   UNL     1      -7.553  11.759  67.867  1.00  0.00    -0.121 C  
HETATM   35  C   UNL     1      -7.410  10.658  66.811  1.00  0.00    -0.120 C  
HETATM   36  C   UNL     1      -8.057  13.073  67.256  1.00  0.00    -0.164 C  
HETATM   37  C   UNL     1      -8.759  10.203  66.259  1.00  0.00    -0.152 C  
ENDBRANCH  29  31
ENDBRANCH  27  29
ENDBRANCH  25  27
ENDBRANCH  22  25
ENDBRANCH  19  22
ENDBRANCH  15  16
ENDBRANCH  14  15
ENDBRANCH  12  14
ENDBRANCH  10  12
ENDBRANCH   7  10
ENDBRANCH   2   3
TORSDOF 11
ENDMDL
MODEL      327
REMARK 921   NORMALIZED FREE ENERGY PREDICTED BY IDOCK:    0.16 KCAL/MOL
REMARK 922        TOTAL FREE ENERGY PREDICTED BY IDOCK:   -2.05 KCAL/MOL
REMARK 923 INTER-LIGAND FREE ENERGY PREDICTED BY IDOCK:   -4.97 KCAL/MOL
REMARK 924 INTRA-LIGAND FREE ENERGY PREDICTED BY IDOCK:    2.92 KCAL/MOL
REMARK 927      BINDING AFFINITY PREDICTED BY RF-SCORE:    0.00 PKD
ROOT
HETATM    1  C   UNL     1      -8.340  17.349  67.899  1.00  0.00    -0.230 C  
HETATM    2  C   UNL     1      -8.731  16.669  66.595  1.00  0.00    -0.280 C  
ENDROOT
BRANCH   2   3
HETATM    3  C   UNL     1      -9.892  15.757  66.777  1.00  0.00    -0.256 C  
HETATM    4  C   UNL     1     -10.460  15.254  67.883  1.00  0.00    -0.253 C  
HETATM    5  C   UNL     1     -11.618  14.364  67.571  1.00  0.00    -0.373 C  
HETATM    6  C   UNL     1     -10.092  15.530  69.298  1.00  0.00    -0.256 C  
HETATM    7  N   UNL     1     -11.713  14.479  66.141  1.00  0.00    -0.367 N  
HETATM    8  O   UNL     1     -10.392  15.445  64.459  1.00  0.00    -0.171 OA 
HETATM    9  C   UNL     1     -10.665  15.235  65.630  1.00  0.00    -0.365 C  
BRANCH   7  10
HETATM   10  C   UNL     1     -12.850  14.057  65.475  1.00  0.00    -0.419 C  
HETATM   11  O   UNL     1     -13.981  14.259  65.911  1.00  0.00     0.817 OA 
BRANCH  10  12
HETATM   12  N   UNL     1     -12.620  13.435  64.275  1.00  0.00    -0.653 N  
HETATM   13  H   UNL     1     -12.749  13.972  63.417  1.00  0.00     0.000 HD 
BRANCH  12  14
HETATM   14  C   UNL     1     -12.203  12.052  64.167  1.00  0.00    -0.359 C  
BRANCH  14  15
HETATM   15  C   UNL     1     -10.734  11.831  64.565  1.00  0.00    -0.369 C  
BRANCH  15  16
HETATM   16  C   UNL     1     -10.540  11.171  65.920  1.00  0.00    -0.294 A  
HETATM   17  C   UNL     1      -9.264  10.985  66.471  1.00  0.00    -0.187 A  
HETATM   18  C   UNL     1      -9.096  10.326  67.691  1.00  0.00    -0.144 A  
HETATM   19  C   UNL     1     -10.207   9.901  68.419  1.00  0.00    -0.178 A  
HETATM   20  C   UNL     1     -11.492  10.117  67.911  1.00  0.00     0.067 A  
HETATM   21  C   UNL     1     -11.654  10.755  66.672  1.00  0.00     0.657 A  
BRANCH  19  22
HETATM   22  S   UNL     1      -9.967   8.940  69.901  1.00  0.00    -0.196 S  
HETATM   23  O   UNL     1     -10.726   9.581  70.955  1.00  0.00    -0.300 OA 
HETATM   24  O   UNL     1     -10.187   7.544  69.592  1.00  0.00    -0.195 OA 
BRANCH  22  25
HETATM   25  N   UNL     1      -8.364   9.174  70.317  1.00  0.00    -0.153 N  
HETATM   26  H   UNL     1      -8.124   9.228  71.307  1.00  0.00     0.000 HD 
BRANCH  25  27
HETATM   27  C   UNL     1      -7.347   9.299  69.391  1.00  0.00    -0.077 C  
HETATM   28  O   UNL     1      -7.133  10.336  68.783  1.00  0.00    -0.067 OA 
BRANCH  27  29
HETATM   29  N   UNL     1      -6.589   8.167  69.206  1.00  0.00    -0.035 N  
HETATM   30  H   UNL     1      -5.803   8.165  68.557  1.00  0.00     0.000 HD 
BRANCH  29  31
HETATM   31  C   UNL     1      -6.936   6.966  69.964  1.00  0.00    -0.062 C  
HETATM   32  C   UNL     1      -7.998   6.104  69.271  1.00  0.00    -0.108 C  
HETATM   33  C   UNL     1      -7.455   5.123  68.234  1.00  0.00    -0.075 C  
HETATM   34  C   UNL     1      -6.248   4.317  68.730  1.00  0.00    -0.032 C  
HETATM   35  C   UNL     1      -5.167   5.271  69.247  1.00  0.00     0.000 C  
HETATM   36  C   UNL     1      -6.638   3.271  69.781  1.00  0.00    -0.033 C  
HETATM   37  C   UNL     1      -5.678   6.180  70.362  1.00  0.00    -0.018 C  
ENDBRANCH  29  31
ENDBRANCH  27  29
ENDBRANCH  25  27
ENDBRANCH  22  25
ENDBRANCH  19  22
ENDBRANCH  15  16
ENDBRANCH  14  15
ENDBRANCH  12  14
ENDBRANCH  10  12
ENDBRANCH   7  10
ENDBRANCH   2   3
TORSDOF 11
ENDMDL
MODEL      328
REMARK 921   NORMALIZED FREE ENERGY PREDICTED BY IDOCK:    0.20 KCAL/MOL
REMARK 922        TOTAL FREE ENERGY PREDICTED BY IDOCK:   -1.97 KCAL/MOL
REMARK 923 INTER-LIGAND FREE ENERGY PREDICTED BY IDOCK:   -2.26 KCAL/MOL
REMARK 924 INTRA-LIGAND FREE ENERGY PREDICTED BY IDOCK:    0.29 KCAL/MOL
REMARK 927      BINDING AFFINITY PREDICTED BY RF-SCORE:    0.00 PKD
ROOT
HETATM    1  C   UNL     1      -9.654  15.428  71.009  1.00  0.00     1.767 C  
HETATM    2  C   UNL     1      -9.733  15.779  69.531  1.00  0.00    -0.276 C  
ENDROOT
BRANCH   2   3
HETATM    3  C   UNL     1      -8.599  15.195  68.766  1.00  0.00    -0.182 C  
HETATM    4  C   UNL     1      -7.539  15.766  68.176  1.00  0.00    -0.128 C  
HETATM    5  C   UNL     1      -6.653  14.764  67.509  1.00  0.00    -0.096 C  
HETATM    6  C   UNL     1      -7.168  17.207  68.174  1.00  0.00    -0.193 C  
HETATM    7  N   UNL     1      -7.283  13.521  67.859  1.00  0.00    -0.121 N  
HETATM    8  O   UNL     1      -9.301  12.911  68.891  1.00  0.00     0.076 OA 
HETATM    9  C   UNL     1      -8.476  13.739  68.539  1.00  0.00    -0.117 C  
BRANCH   7  10
HETATM   10  C   UNL     1      -6.610  12.323  67.704  1.00  0.00    -0.122 C  
HETATM   11  O   UNL     1      -5.643  12.015  68.398  1.00  0.00    -0.052 OA 
BRANCH  10  12
HETATM   12  N   UNL     1      -7.127  11.488  66.746  1.00  0.00    -0.246 N  
HETATM   13  H   UNL     1      -6.635  10.617  66.544  1.00  0.00     0.000 HD 
BRANCH  12  14
HETATM   14  C   UNL     1      -8.338  11.785  66.008  1.00  0.00     0.189 C  
BRANCH  14  15
HETATM   15  C   UNL     1      -8.691  10.707  64.968  1.00  0.00    -0.186 C  
BRANCH  15  16
HETATM   16  C   UNL     1      -8.829   9.305  65.537  1.00  0.00    -0.224 A  
HETATM   17  C   UNL     1      -7.760   8.397  65.520  1.00  0.00    -0.097 A  
HETATM   18  C   UNL     1      -7.916   7.093  65.994  1.00  0.00    -0.112 A  
HETATM   19  C   UNL     1      -9.126   6.690  66.558  1.00  0.00    -0.149 A  
HETATM   20  C   UNL     1     -10.192   7.592  66.627  1.00  0.00    -0.261 A  
HETATM   21  C   UNL     1     -10.038   8.893  66.125  1.00  0.00    -0.209 A  
BRANCH  19  22
HETATM   22  S   UNL     1      -9.349   4.984  67.026  1.00  0.00    -0.136 S  
HETATM   23  O   UNL     1     -10.462   4.470  66.255  1.00  0.00    -0.259 OA 
HETATM   24  O   UNL     1      -8.065   4.318  66.984  1.00  0.00    -0.100 OA 
BRANCH  22  25
HETATM   25  N   UNL     1      -9.901   5.034  68.604  1.00  0.00    -0.161 N  
HETATM   26  H   UNL     1     -10.721   4.478  68.847  1.00  0.00     0.000 HD 
BRANCH  25  27
HETATM   27  C   UNL     1      -9.306   5.789  69.596  1.00  0.00    -0.139 C  
HETATM   28  O   UNL     1      -9.430   5.532  70.783  1.00  0.00    -0.158 OA 
BRANCH  27  29
HETATM   29  N   UNL     1      -8.558   6.852  69.146  1.00  0.00    -0.128 N  
HETATM   30  H   UNL     1      -8.259   6.904  68.173  1.00  0.00     0.000 HD 
BRANCH  29  31
HETATM   31  C   UNL     1      -8.204   7.904  70.096  1.00  0.00    -0.125 C  
HETATM   32  C   UNL     1      -7.647   7.359  71.417  1.00  0.00    -0.082 C  
HETATM   33  C   UNL     1      -6.150   7.057  71.408  1.00  0.00    -0.037 C  
HETATM   34  C   UNL     1      -5.302   8.186  70.812  1.00  0.00    -0.025 C  
HETATM   35  C   UNL     1      -5.827   8.548  69.420  1.00  0.00    -0.030 C  
HETATM   36  C   UNL     1      -5.233   9.411  71.733  1.00  0.00    -0.068 C  
HETATM   37  C   UNL     1      -7.298   8.958  69.441  1.00  0.00    -0.075 C  
ENDBRANCH  29  31
ENDBRANCH  27  29
ENDBRANCH  25  27
ENDBRANCH  22  25
ENDBRANCH  19  22
ENDBRANCH  15  16
ENDBRANCH  14  15
ENDBRANCH  12  14
ENDBRANCH  10  12
ENDBRANCH   7  10
ENDBRANCH   2   3
TORSDOF 11
ENDMDL
MODEL      329
REMARK 921   NORMALIZED FREE ENERGY PREDICTED BY IDOCK:    0.56 KCAL/MOL
REMARK 922        TOTAL FREE ENERGY PREDICTED BY IDOCK:   -1.38 KCAL/MOL
REMARK 923 INTER-LIGAND FREE ENERGY PREDICTED BY IDOCK:   -1.06 KCAL/MOL
REMARK 924 INTRA-LIGAND FREE ENERGY PREDICTED BY IDOCK:   -0.32 KCAL/MOL
REMARK 927      BINDING AFFINITY PREDICTED BY RF-SCORE:    0.00 PKD
ROOT
HETATM    1  C   UNL     1     -11.718   1.494  70.854  1.00  0.00     4.450 C  
HETATM    2  C   UNL     1     -10.905   1.509  72.139  1.00  0.00     0.069 C  
ENDROOT
BRANCH   2   3
HETATM    3  C   UNL     1      -9.508   1.959  71.901  1.00  0.00    -0.177 C  
HETATM    4  C   UNL     1      -8.790   2.064  70.773  1.00  0.00    -0.121 C  
HETATM    5  C   UNL     1      -7.405   2.566  71.027  1.00  0.00    -0.033 C  
HETATM    6  C   UNL     1      -9.240   1.789  69.382  1.00  0.00    -0.173 C  
HETATM    7  N   UNL     1      -7.432   2.828  72.440  1.00  0.00    -0.050 N  
HETATM    8  O   UNL     1      -8.943   2.400  74.183  1.00  0.00    -0.073 OA 
HETATM    9  C   UNL     1      -8.633   2.413  73.003  1.00  0.00    -0.070 C  
BRANCH   7  10
HETATM   10  C   UNL     1      -6.447   3.599  73.030  1.00  0.00    -0.024 C  
HETATM   11  O   UNL     1      -5.368   3.129  73.387  1.00  0.00     0.000 OA 
BRANCH  10  12
HETATM   12  N   UNL     1      -6.748   4.932  73.148  1.00  0.00    -0.065 N  
HETATM   13  H   UNL     1      -7.564   5.291  72.653  1.00  0.00     0.000 HD 
BRANCH  12  14
HETATM   14  C   UNL     1      -5.961   5.854  73.943  1.00  0.00    -0.062 C  
BRANCH  14  15
HETATM   15  C   UNL     1      -6.773   7.056  74.454  1.00  0.00    -0.086 C  
BRANCH  15  16
HETATM   16  C   UNL     1      -7.816   7.573  73.477  1.00  0.00    -0.147 A  
HETATM   17  C   UNL     1      -9.177   7.267  73.626  1.00  0.00    -0.262 A  
HETATM   18  C   UNL     1     -10.118   7.700  72.690  1.00  0.00    -0.298 A  
HETATM   19  C   UNL     1      -9.726   8.508  71.622  1.00  0.00    -0.252 A  
HETATM   20  C   UNL     1      -8.382   8.864  71.479  1.00  0.00    -0.163 A  
HETATM   21  C   UNL     1      -7.436   8.403  72.407  1.00  0.00    -0.129 A  
BRANCH  19  22
HETATM   22  S   UNL     1     -10.916   8.932  70.364  1.00  0.00    -0.243 S  
HETATM   23  O   UNL     1     -11.035   7.788  69.483  1.00  0.00    -0.198 OA 
HETATM   24  O   UNL     1     -12.091   9.484  71.001  1.00  0.00    -0.298 OA 
BRANCH  22  25
HETATM   25  N   UNL     1     -10.173  10.113  69.441  1.00  0.00    -0.214 N  
HETATM   26  H   UNL     1      -9.237  10.418  69.710  1.00  0.00     0.000 HD 
BRANCH  25  27
HETATM   27  C   UNL     1     -10.759  10.697  68.336  1.00  0.00    -0.222 C  
HETATM   28  O   UNL     1     -11.773  10.256  67.817  1.00  0.00    -0.247 OA 
BRANCH  27  29
HETATM   29  N   UNL     1     -10.115  11.816  67.862  1.00  0.00    -0.182 N  
HETATM   30  H   UNL     1      -9.175  12.049  68.177  1.00  0.00     0.000 HD 
BRANCH  29  31
HETATM   31  C   UNL     1     -10.812  12.662  66.896  1.00  0.00    -0.254 C  
HETATM   32  C   UNL     1     -11.598  13.804  67.553  1.00  0.00    -0.387 C  
HETATM   33  C   UNL     1     -10.781  15.059  67.851  1.00  0.00    -0.268 C  
HETATM   34  C   UNL     1      -9.914  15.518  66.673  1.00  0.00    -0.272 C  
HETATM   35  C   UNL     1      -9.038  14.358  66.192  1.00  0.00    -0.043 C  
HETATM   36  C   UNL     1     -10.749  16.114  65.533  1.00  0.00    -0.355 C  
HETATM   37  C   UNL     1      -9.860  13.136  65.788  1.00  0.00    -0.214 C  
ENDBRANCH  29  31
ENDBRANCH  27  29
ENDBRANCH  25  27
ENDBRANCH  22  25
ENDBRANCH  19  22
ENDBRANCH  15  16
ENDBRANCH  14  15
ENDBRANCH  12  14
ENDBRANCH  10  12
ENDBRANCH   7  10
ENDBRANCH   2   3
TORSDOF 11
ENDMDL
MODEL      330
REMARK 921   NORMALIZED FREE ENERGY PREDICTED BY IDOCK:    0.87 KCAL/MOL
REMARK 922        TOTAL FREE ENERGY PREDICTED BY IDOCK:   -0.88 KCAL/MOL
REMARK 923 INTER-LIGAND FREE ENERGY PREDICTED BY IDOCK:   -2.57 KCAL/MOL
REMARK 924 INTRA-LIGAND FREE ENERGY PREDICTED BY IDOCK:    1.69 KCAL/MOL
REMARK 927      BINDING AFFINITY PREDICTED BY RF-SCORE:    0.00 PKD
ROOT
HETATM    1  C   UNL     1      -7.710   7.066  64.889  1.00  0.00    -0.114 C  
HETATM    2  C   UNL     1      -8.848   8.075  64.850  1.00  0.00     0.190 C  
ENDROOT
BRANCH   2   3
HETATM    3  C   UNL     1      -8.539   9.285  65.658  1.00  0.00    -0.172 C  
HETATM    4  C   UNL     1      -9.007  10.540  65.590  1.00  0.00    -0.200 C  
HETATM    5  C   UNL     1      -8.392  11.431  66.620  1.00  0.00    -0.172 C  
HETATM    6  C   UNL     1     -10.053  11.071  64.674  1.00  0.00    -0.370 C  
HETATM    7  N   UNL     1      -7.567  10.515  67.360  1.00  0.00    -0.094 N  
HETATM    8  O   UNL     1      -6.907   8.279  67.089  1.00  0.00    -0.068 OA 
HETATM    9  C   UNL     1      -7.571   9.254  66.775  1.00  0.00    -0.090 C  
BRANCH   7  10
HETATM   10  C   UNL     1      -7.061  10.867  68.598  1.00  0.00    -0.080 C  
HETATM   11  O   UNL     1      -7.280  11.962  69.112  1.00  0.00    -0.096 OA 
BRANCH  10  12
HETATM   12  N   UNL     1      -6.332   9.889  69.225  1.00  0.00    -0.044 N  
HETATM   13  H   UNL     1      -5.623   9.391  68.686  1.00  0.00     0.000 HD 
BRANCH  12  14
HETATM   14  C   UNL     1      -6.521   9.530  70.616  1.00  0.00    -0.093 C  
BRANCH  14  15
HETATM   15  C   UNL     1      -7.336   8.239  70.801  1.00  0.00    -0.056 C  
BRANCH  15  16
HETATM   16  C   UNL     1      -8.834   8.454  70.939  1.00  0.00    -0.185 A  
HETATM   17  C   UNL     1      -9.544   9.275  70.051  1.00  0.00    -0.235 A  
HETATM   18  C   UNL     1     -10.909   9.510  70.222  1.00  0.00    -0.319 A  
HETATM   19  C   UNL     1     -11.608   8.872  71.247  1.00  0.00    -0.304 A  
HETATM   20  C   UNL     1     -10.932   8.013  72.117  1.00  0.00    -0.357 A  
HETATM   21  C   UNL     1      -9.553   7.802  71.957  1.00  0.00    -0.217 A  
BRANCH  19  22
HETATM   22  S   UNL     1     -13.317   9.294  71.534  1.00  0.00    -0.352 S  
HETATM   23  O   UNL     1     -14.123   8.344  70.793  1.00  0.00     0.144 OA 
HETATM   24  O   UNL     1     -13.521   9.468  72.956  1.00  0.00    -0.023 OA 
BRANCH  22  25
HETATM   25  N   UNL     1     -13.542  10.755  70.753  1.00  0.00     0.351 N  
HETATM   26  H   UNL     1     -13.996  10.750  69.839  1.00  0.00     0.000 HD 
BRANCH  25  27
HETATM   27  C   UNL     1     -13.147  11.969  71.280  1.00  0.00    -0.115 C  
HETATM   28  O   UNL     1     -12.065  12.132  71.821  1.00  0.00     0.476 OA 
BRANCH  27  29
HETATM   29  N   UNL     1     -14.064  12.985  71.146  1.00  0.00     1.202 N  
HETATM   30  H   UNL     1     -14.770  12.957  70.411  1.00  0.00     0.000 HD 
BRANCH  29  31
HETATM   31  C   UNL     1     -14.003  14.105  72.082  1.00  0.00    -0.531 C  
HETATM   32  C   UNL     1     -12.813  14.019  73.046  1.00  0.00    -0.282 C  
HETATM   33  C   UNL     1     -11.502  14.583  72.503  1.00  0.00     0.609 C  
HETATM   34  C   UNL     1     -11.654  15.961  71.850  1.00  0.00    -0.542 C  
HETATM   35  C   UNL     1     -12.749  15.909  70.779  1.00  0.00    -0.206 C  
HETATM   36  C   UNL     1     -11.914  17.068  72.879  1.00  0.00     0.315 C  
HETATM   37  C   UNL     1     -14.092  15.449  71.343  1.00  0.00    -0.539 C  
ENDBRANCH  29  31
ENDBRANCH  27  29
ENDBRANCH  25  27
ENDBRANCH  22  25
ENDBRANCH  19  22
ENDBRANCH  15  16
ENDBRANCH  14  15
ENDBRANCH  12  14
ENDBRANCH  10  12
ENDBRANCH   7  10
ENDBRANCH   2   3
TORSDOF 11
ENDMDL
MODEL      331
REMARK 921   NORMALIZED FREE ENERGY PREDICTED BY IDOCK:    1.18 KCAL/MOL
REMARK 922        TOTAL FREE ENERGY PREDICTED BY IDOCK:   -0.37 KCAL/MOL
REMARK 923 INTER-LIGAND FREE ENERGY PREDICTED BY IDOCK:   -3.24 KCAL/MOL
REMARK 924 INTRA-LIGAND FREE ENERGY PREDICTED BY IDOCK:    2.87 KCAL/MOL
REMARK 927      BINDING AFFINITY PREDICTED BY RF-SCORE:    0.00 PKD
ROOT
HETATM    1  C   UNL     1      -9.428  13.096  66.247  1.00  0.00    -0.194 C  
HETATM    2  C   UNL     1      -9.035  14.178  65.253  1.00  0.00     1.659 C  
ENDROOT
BRANCH   2   3
HETATM    3  C   UNL     1      -9.752  15.453  65.515  1.00  0.00    -0.318 C  
HETATM    4  C   UNL     1     -10.935  15.912  65.079  1.00  0.00    -0.426 C  
HETATM    5  C   UNL     1     -11.247  17.273  65.612  1.00  0.00     0.559 C  
HETATM    6  C   UNL     1     -11.918  15.208  64.212  1.00  0.00    -0.276 C  
HETATM    7  N   UNL     1     -10.135  17.517  66.489  1.00  0.00    -0.319 N  
HETATM    8  O   UNL     1      -8.098  16.440  66.933  1.00  0.00    -0.179 OA 
HETATM    9  C   UNL     1      -9.195  16.497  66.402  1.00  0.00    -0.295 C  
BRANCH   7  10
HETATM   10  C   UNL     1     -10.187  18.536  67.423  1.00  0.00    -0.373 C  
HETATM   11  O   UNL     1     -10.193  19.723  67.103  1.00  0.00    -0.387 OA 
BRANCH  10  12
HETATM   12  N   UNL     1     -10.273  18.122  68.728  1.00  0.00    -0.374 N  
HETATM   13  H   UNL     1      -9.612  18.505  69.404  1.00  0.00     0.000 HD 
BRANCH  12  14
HETATM   14  C   UNL     1     -11.258  17.166  69.191  1.00  0.00     0.375 C  
BRANCH  14  15
HETATM   15  C   UNL     1     -11.533  16.042  68.176  1.00  0.00    -0.250 C  
BRANCH  15  16
HETATM   16  C   UNL     1     -11.667  14.658  68.790  1.00  0.00    -0.357 A  
HETATM   17  C   UNL     1     -11.305  14.407  70.122  1.00  0.00    -0.221 A  
HETATM   18  C   UNL     1     -11.380  13.120  70.656  1.00  0.00     0.866 A  
HETATM   19  C   UNL     1     -11.883  12.068  69.890  1.00  0.00    -0.331 A  
HETATM   20  C   UNL     1     -12.293  12.304  68.575  1.00  0.00     0.363 A  
HETATM   21  C   UNL     1     -12.191  13.595  68.033  1.00  0.00    -0.175 A  
BRANCH  19  22
HETATM   22  S   UNL     1     -11.838  10.410  70.544  1.00  0.00    -0.363 S  
HETATM   23  O   UNL     1     -10.942  10.422  71.682  1.00  0.00     0.659 OA 
HETATM   24  O   UNL     1     -13.194   9.930  70.691  1.00  0.00    -0.245 OA 
BRANCH  22  25
HETATM   25  N   UNL     1     -11.047   9.505  69.380  1.00  0.00    -0.402 N  
HETATM   26  H   UNL     1     -11.086   9.823  68.412  1.00  0.00     0.000 HD 
BRANCH  25  27
HETATM   27  C   UNL     1     -10.345   8.349  69.661  1.00  0.00    -0.218 C  
HETATM   28  O   UNL     1     -10.521   7.306  69.050  1.00  0.00    -0.204 OA 
BRANCH  27  29
HETATM   29  N   UNL     1      -9.429   8.461  70.680  1.00  0.00    -0.163 N  
HETATM   30  H   UNL     1      -8.877   9.311  70.795  1.00  0.00     0.000 HD 
BRANCH  29  31
HETATM   31  C   UNL     1      -9.265   7.333  71.595  1.00  0.00    -0.146 C  
HETATM   32  C   UNL     1      -9.719   7.648  73.026  1.00  0.00    -0.301 C  
HETATM   33  C   UNL     1     -11.213   7.459  73.284  1.00  0.00    -0.203 C  
HETATM   34  C   UNL     1     -11.761   6.130  72.752  1.00  0.00    -0.110 C  
HETATM   35  C   UNL     1     -11.406   5.980  71.269  1.00  0.00    -0.296 C  
HETATM   36  C   UNL     1     -11.282   4.930  73.578  1.00  0.00    -0.375 C  
HETATM   37  C   UNL     1      -9.902   6.059  71.020  1.00  0.00    -0.220 C  
ENDBRANCH  29  31
ENDBRANCH  27  29
ENDBRANCH  25  27
ENDBRANCH  22  25
ENDBRANCH  19  22
ENDBRANCH  15  16
ENDBRANCH  14  15
ENDBRANCH  12  14
ENDBRANCH  10  12
ENDBRANCH   7  10
ENDBRANCH   2   3
TORSDOF 11
ENDMDL
MODEL      332
REMARK 921   NORMALIZED FREE ENERGY PREDICTED BY IDOCK:    1.80 KCAL/MOL
REMARK 922        TOTAL FREE ENERGY PREDICTED BY IDOCK:    0.65 KCAL/MOL
REMARK 923 INTER-LIGAND FREE ENERGY PREDICTED BY IDOCK:   -1.72 KCAL/MOL
REMARK 924 INTRA-LIGAND FREE ENERGY PREDICTED BY IDOCK:    2.38 KCAL/MOL
REMARK 927      BINDING AFFINITY PREDICTED BY RF-SCORE:    0.00 PKD
ROOT
HETATM    1  C   UNL     1     -10.508  16.720  64.508  1.00  0.00     1.255 C  
HETATM    2  C   UNL     1      -9.776  16.089  65.683  1.00  0.00    -0.273 C  
ENDROOT
BRANCH   2   3
HETATM    3  C   UNL     1     -10.683  15.246  66.507  1.00  0.00    -0.311 C  
HETATM    4  C   UNL     1     -11.284  14.076  66.249  1.00  0.00    -0.320 C  
HETATM    5  C   UNL     1     -12.120  13.603  67.394  1.00  0.00    -0.337 C  
HETATM    6  C   UNL     1     -11.156  13.241  65.024  1.00  0.00    -0.327 C  
HETATM    7  N   UNL     1     -11.861  14.604  68.392  1.00  0.00    -0.313 N  
HETATM    8  O   UNL     1     -10.755  16.673  68.426  1.00  0.00    -0.319 OA 
HETATM    9  C   UNL     1     -11.076  15.629  67.880  1.00  0.00    -0.324 C  
BRANCH   7  10
HETATM   10  C   UNL     1     -12.196  14.380  69.716  1.00  0.00    -0.321 C  
HETATM   11  O   UNL     1     -13.114  14.977  70.273  1.00  0.00    -0.225 OA 
BRANCH  10  12
HETATM   12  N   UNL     1     -11.454  13.413  70.345  1.00  0.00    -0.493 N  
HETATM   13  H   UNL     1     -11.901  12.854  71.072  1.00  0.00     0.000 HD 
BRANCH  12  14
HETATM   14  C   UNL     1     -10.066  13.148  70.026  1.00  0.00     2.183 C  
BRANCH  14  15
HETATM   15  C   UNL     1      -9.889  12.323  68.739  1.00  0.00    -0.018 C  
BRANCH  15  16
HETATM   16  C   UNL     1     -10.122  10.831  68.910  1.00  0.00    -0.217 A  
HETATM   17  C   UNL     1      -9.799   9.916  67.897  1.00  0.00    -0.170 A  
HETATM   18  C   UNL     1     -10.071   8.555  68.045  1.00  0.00    -0.245 A  
HETATM   19  C   UNL     1     -10.608   8.070  69.237  1.00  0.00    -0.184 A  
HETATM   20  C   UNL     1     -10.895   8.957  70.278  1.00  0.00    -0.265 A  
HETATM   21  C   UNL     1     -10.645  10.328  70.115  1.00  0.00    -0.303 A  
BRANCH  19  22
HETATM   22  S   UNL     1     -11.077   6.354  69.352  1.00  0.00    -0.390 S  
HETATM   23  O   UNL     1      -9.854   5.578  69.407  1.00  0.00    -0.150 OA 
HETATM   24  O   UNL     1     -12.076   6.212  70.389  1.00  0.00    -0.028 OA 
BRANCH  22  25
HETATM   25  N   UNL     1     -11.756   5.987  67.868  1.00  0.00     0.234 N  
HETATM   26  H   UNL     1     -12.773   5.986  67.788  1.00  0.00     0.000 HD 
BRANCH  25  27
HETATM   27  C   UNL     1     -11.012   5.686  66.744  1.00  0.00    -0.093 C  
HETATM   28  O   UNL     1     -11.501   5.627  65.626  1.00  0.00     0.940 OA 
BRANCH  27  29
HETATM   29  N   UNL     1      -9.676   5.460  66.976  1.00  0.00    -0.137 N  
HETATM   30  H   UNL     1      -9.135   6.092  67.566  1.00  0.00     0.000 HD 
BRANCH  29  31
HETATM   31  C   UNL     1      -9.050   4.294  66.357  1.00  0.00    -0.130 C  
HETATM   32  C   UNL     1      -9.930   3.635  65.289  1.00  0.00    -0.054 C  
HETATM   33  C   UNL     1      -9.827   4.254  63.896  1.00  0.00    -0.048 C  
HETATM   34  C   UNL     1      -8.383   4.483  63.435  1.00  0.00    -0.108 C  
HETATM   35  C   UNL     1      -7.626   5.298  64.489  1.00  0.00    -0.077 C  
HETATM   36  C   UNL     1      -7.663   3.171  63.103  1.00  0.00    -0.067 C  
HETATM   37  C   UNL     1      -7.634   4.625  65.860  1.00  0.00    -0.090 C  
ENDBRANCH  29  31
ENDBRANCH  27  29
ENDBRANCH  25  27
ENDBRANCH  22  25
ENDBRANCH  19  22
ENDBRANCH  15  16
ENDBRANCH  14  15
ENDBRANCH  12  14
ENDBRANCH  10  12
ENDBRANCH   7  10
ENDBRANCH   2   3
TORSDOF 11
ENDMDL
MODEL      333
REMARK 921   NORMALIZED FREE ENERGY PREDICTED BY IDOCK:    2.35 KCAL/MOL
REMARK 922        TOTAL FREE ENERGY PREDICTED BY IDOCK:    1.56 KCAL/MOL
REMARK 923 INTER-LIGAND FREE ENERGY PREDICTED BY IDOCK:   -0.30 KCAL/MOL
REMARK 924 INTRA-LIGAND FREE ENERGY PREDICTED BY IDOCK:    1.86 KCAL/MOL
REMARK 927      BINDING AFFINITY PREDICTED BY RF-SCORE:    0.00 PKD
ROOT
HETATM    1  C   UNL     1     -11.141  10.563  65.351  1.00  0.00     0.461 C  
HETATM    2  C   UNL     1     -10.535   9.585  64.356  1.00  0.00     2.445 C  
ENDROOT
BRANCH   2   3
HETATM    3  C   UNL     1      -9.049   9.591  64.416  1.00  0.00    -0.234 C  
HETATM    4  C   UNL     1      -8.133  10.223  63.667  1.00  0.00    -0.149 C  
HETATM    5  C   UNL     1      -6.736   9.918  64.101  1.00  0.00    -0.126 C  
HETATM    6  C   UNL     1      -8.375  11.177  62.551  1.00  0.00    -0.182 C  
HETATM    7  N   UNL     1      -6.952   9.094  65.259  1.00  0.00    -0.083 N  
HETATM    8  O   UNL     1      -8.818   8.076  66.253  1.00  0.00    -0.145 OA 
HETATM    9  C   UNL     1      -8.303   8.819  65.432  1.00  0.00    -0.151 C  
BRANCH   7  10
HETATM   10  C   UNL     1      -5.922   8.848  66.149  1.00  0.00    -0.055 C  
HETATM   11  O   UNL     1      -5.126   9.720  66.492  1.00  0.00    -0.038 OA 
BRANCH  10  12
HETATM   12  N   UNL     1      -5.881   7.572  66.649  1.00  0.00    -0.038 N  
HETATM   13  H   UNL     1      -5.529   6.826  66.048  1.00  0.00     0.000 HD 
BRANCH  12  14
HETATM   14  C   UNL     1      -6.313   7.233  67.990  1.00  0.00    -0.044 C  
BRANCH  14  15
HETATM   15  C   UNL     1      -7.617   7.939  68.400  1.00  0.00    -0.108 C  
BRANCH  15  16
HETATM   16  C   UNL     1      -7.455   9.408  68.752  1.00  0.00    -0.075 A  
HETATM   17  C   UNL     1      -8.562  10.228  69.011  1.00  0.00    -0.162 A  
HETATM   18  C   UNL     1      -8.403  11.589  69.277  1.00  0.00     0.321 A  
HETATM   19  C   UNL     1      -7.126  12.145  69.357  1.00  0.00     0.112 A  
HETATM   20  C   UNL     1      -6.005  11.337  69.148  1.00  0.00    -0.049 A  
HETATM   21  C   UNL     1      -6.172   9.975  68.854  1.00  0.00    -0.044 A  
BRANCH  19  22
HETATM   22  S   UNL     1      -6.950  13.908  69.557  1.00  0.00     0.093 S  
HETATM   23  O   UNL     1      -8.195  14.403  70.110  1.00  0.00     0.691 OA 
HETATM   24  O   UNL     1      -5.698  14.178  70.229  1.00  0.00    -0.113 OA 
BRANCH  22  25
HETATM   25  N   UNL     1      -6.894  14.520  68.002  1.00  0.00    -0.128 N  
HETATM   26  H   UNL     1      -6.004  14.494  67.504  1.00  0.00     0.000 HD 
BRANCH  25  27
HETATM   27  C   UNL     1      -7.989  15.059  67.355  1.00  0.00    -0.194 C  
HETATM   28  O   UNL     1      -8.694  14.408  66.600  1.00  0.00    -0.203 OA 
BRANCH  27  29
HETATM   29  N   UNL     1      -8.228  16.385  67.627  1.00  0.00    -0.152 N  
HETATM   30  H   UNL     1      -9.097  16.678  68.071  1.00  0.00     0.000 HD 
BRANCH  29  31
HETATM   31  C   UNL     1      -7.206  17.365  67.264  1.00  0.00    -0.167 C  
HETATM   32  C   UNL     1      -7.503  18.082  65.941  1.00  0.00    -0.213 C  
HETATM   33  C   UNL     1      -8.424  19.295  66.059  1.00  0.00    -0.174 C  
HETATM   34  C   UNL     1      -8.033  20.250  67.192  1.00  0.00    -0.378 C  
HETATM   35  C   UNL     1      -7.926  19.474  68.509  1.00  0.00    -0.383 C  
HETATM   36  C   UNL     1      -6.749  21.028  66.882  1.00  0.00    -0.388 C  
HETATM   37  C   UNL     1      -6.923  18.326  68.428  1.00  0.00    -0.251 C  
ENDBRANCH  29  31
ENDBRANCH  27  29
ENDBRANCH  25  27
ENDBRANCH  22  25
ENDBRANCH  19  22
ENDBRANCH  15  16
ENDBRANCH  14  15
ENDBRANCH  12  14
ENDBRANCH  10  12
ENDBRANCH   7  10
ENDBRANCH   2   3
TORSDOF 11
ENDMDL
MODEL      334
REMARK 921   NORMALIZED FREE ENERGY PREDICTED BY IDOCK:    2.89 KCAL/MOL
REMARK 922        TOTAL FREE ENERGY PREDICTED BY IDOCK:    2.44 KCAL/MOL
REMARK 923 INTER-LIGAND FREE ENERGY PREDICTED BY IDOCK:    0.18 KCAL/MOL
REMARK 924 INTRA-LIGAND FREE ENERGY PREDICTED BY IDOCK:    2.27 KCAL/MOL
REMARK 927      BINDING AFFINITY PREDICTED BY RF-SCORE:    0.00 PKD
ROOT
HETATM    1  C   UNL     1     -11.697  12.472  64.985  1.00  0.00    -0.407 C  
HETATM    2  C   UNL     1     -12.494  12.494  66.281  1.00  0.00     0.341 C  
ENDROOT
BRANCH   2   3
HETATM    3  C   UNL     1     -12.031  11.447  67.230  1.00  0.00     0.258 C  
HETATM    4  C   UNL     1     -11.286  10.348  67.043  1.00  0.00    -0.015 C  
HETATM    5  C   UNL     1     -11.078   9.581  68.309  1.00  0.00     0.009 C  
HETATM    6  C   UNL     1     -10.650   9.886  65.779  1.00  0.00     0.127 C  
HETATM    7  N   UNL     1     -11.723  10.421  69.281  1.00  0.00    -0.188 N  
HETATM    8  O   UNL     1     -13.076  12.337  69.189  1.00  0.00     1.237 OA 
HETATM    9  C   UNL     1     -12.360  11.495  68.670  1.00  0.00     0.293 C  
BRANCH   7  10
HETATM   10  C   UNL     1     -11.494  10.236  70.633  1.00  0.00    -0.349 C  
HETATM   11  O   UNL     1     -11.243  11.169  71.392  1.00  0.00     1.132 OA 
BRANCH  10  12
HETATM   12  N   UNL     1     -11.610   8.940  71.067  1.00  0.00    -0.284 N  
HETATM   13  H   UNL     1     -12.014   8.250  70.433  1.00  0.00     0.000 HD 
BRANCH  12  14
HETATM   14  C   UNL     1     -11.185   8.506  72.382  1.00  0.00    -0.329 C  
BRANCH  14  15
HETATM   15  C   UNL     1      -9.656   8.429  72.529  1.00  0.00    -0.358 C  
BRANCH  15  16
HETATM   16  C   UNL     1      -9.011   7.264  71.797  1.00  0.00    -0.136 A  
HETATM   17  C   UNL     1      -7.836   7.427  71.047  1.00  0.00    -0.092 A  
HETATM   18  C   UNL     1      -7.285   6.362  70.333  1.00  0.00    -0.083 A  
HETATM   19  C   UNL     1      -7.859   5.093  70.409  1.00  0.00    -0.075 A  
HETATM   20  C   UNL     1      -9.003   4.896  71.187  1.00  0.00    -0.167 A  
HETATM   21  C   UNL     1      -9.569   5.976  71.881  1.00  0.00    -0.166 A  
BRANCH  19  22
HETATM   22  S   UNL     1      -7.224   3.782  69.381  1.00  0.00    -0.046 S  
HETATM   23  O   UNL     1      -6.663   2.779  70.263  1.00  0.00    -0.032 OA 
HETATM   24  O   UNL     1      -8.235   3.417  68.414  1.00  0.00    -0.072 OA 
BRANCH  22  25
HETATM   25  N   UNL     1      -5.909   4.447  68.590  1.00  0.00    -0.024 N  
HETATM   26  H   UNL     1      -5.209   3.815  68.200  1.00  0.00     0.000 HD 
BRANCH  25  27
HETATM   27  C   UNL     1      -5.720   5.807  68.436  1.00  0.00    -0.012 C  
HETATM   28  O   UNL     1      -5.200   6.501  69.296  1.00  0.00    -0.012 OA 
BRANCH  27  29
HETATM   29  N   UNL     1      -6.158   6.321  67.239  1.00  0.00    -0.021 N  
HETATM   30  H   UNL     1      -6.372   7.313  67.144  1.00  0.00     0.000 HD 
BRANCH  29  31
HETATM   31  C   UNL     1      -6.311   5.411  66.106  1.00  0.00    -0.035 C  
HETATM   32  C   UNL     1      -7.768   5.257  65.651  1.00  0.00    -0.087 C  
HETATM   33  C   UNL     1      -8.255   6.328  64.676  1.00  0.00    -0.080 C  
HETATM   34  C   UNL     1      -7.283   6.590  63.521  1.00  0.00    -0.064 C  
HETATM   35  C   UNL     1      -5.890   6.903  64.077  1.00  0.00    -0.032 C  
HETATM   36  C   UNL     1      -7.248   5.433  62.514  1.00  0.00    -0.045 C  
HETATM   37  C   UNL     1      -5.352   5.783  64.965  1.00  0.00    -0.010 C  
ENDBRANCH  29  31
ENDBRANCH  27  29
ENDBRANCH  25  27
ENDBRANCH  22  25
ENDBRANCH  19  22
ENDBRANCH  15  16
ENDBRANCH  14  15
ENDBRANCH  12  14
ENDBRANCH  10  12
ENDBRANCH   7  10
ENDBRANCH   2   3
TORSDOF 11
ENDMDL
MODEL      335
REMARK 921   NORMALIZED FREE ENERGY PREDICTED BY IDOCK:    3.61 KCAL/MOL
REMARK 922        TOTAL FREE ENERGY PREDICTED BY IDOCK:    3.63 KCAL/MOL
REMARK 923 INTER-LIGAND FREE ENERGY PREDICTED BY IDOCK:    2.14 KCAL/MOL
REMARK 924 INTRA-LIGAND FREE ENERGY PREDICTED BY IDOCK:    1.49 KCAL/MOL
REMARK 927      BINDING AFFINITY PREDICTED BY RF-SCORE:    0.00 PKD
ROOT
HETATM    1  C   UNL     1      -6.758  10.529  73.085  1.00  0.00     3.781 C  
HETATM    2  C   UNL     1      -6.257  11.136  71.783  1.00  0.00     1.764 C  
ENDROOT
BRANCH   2   3
HETATM    3  C   UNL     1      -6.624  10.299  70.609  1.00  0.00    -0.042 C  
HETATM    4  C   UNL     1      -6.305   9.038  70.284  1.00  0.00    -0.044 C  
HETATM    5  C   UNL     1      -6.911   8.616  68.985  1.00  0.00    -0.056 C  
HETATM    6  C   UNL     1      -5.496   8.073  71.077  1.00  0.00    -0.029 C  
HETATM    7  N   UNL     1      -7.701   9.764  68.632  1.00  0.00    -0.079 N  
HETATM    8  O   UNL     1      -7.936  11.944  69.470  1.00  0.00     0.426 OA 
HETATM    9  C   UNL     1      -7.499  10.805  69.530  1.00  0.00    -0.110 C  
BRANCH   7  10
HETATM   10  C   UNL     1      -8.673   9.674  67.652  1.00  0.00    -0.126 C  
HETATM   11  O   UNL     1      -8.454   9.169  66.552  1.00  0.00    -0.119 OA 
BRANCH  10  12
HETATM   12  N   UNL     1      -9.906  10.152  68.013  1.00  0.00    -0.146 N  
HETATM   13  H   UNL     1     -10.191  10.072  68.990  1.00  0.00     0.000 HD 
BRANCH  12  14
HETATM   14  C   UNL     1     -10.824  10.765  67.074  1.00  0.00    -0.252 C  
BRANCH  14  15
HETATM   15  C   UNL     1     -11.658  11.898  67.697  1.00  0.00    -0.382 C  
BRANCH  15  16
HETATM   16  C   UNL     1     -11.300  13.289  67.203  1.00  0.00    -0.351 A  
HETATM   17  C   UNL     1     -10.609  13.486  65.998  1.00  0.00    -0.285 A  
HETATM   18  C   UNL     1     -10.235  14.766  65.584  1.00  0.00    -0.382 A  
HETATM   19  C   UNL     1     -10.605  15.883  66.333  1.00  0.00    -0.297 A  
HETATM   20  C   UNL     1     -11.334  15.715  67.514  1.00  0.00    -0.198 A  
HETATM   21  C   UNL     1     -11.683  14.424  67.940  1.00  0.00    -0.388 A  
BRANCH  19  22
HETATM   22  S   UNL     1      -9.998  17.492  65.862  1.00  0.00    -0.064 S  
HETATM   23  O   UNL     1      -8.721  17.293  65.208  1.00  0.00     0.434 OA 
HETATM   24  O   UNL     1     -11.057  18.210  65.188  1.00  0.00    -0.540 OA 
BRANCH  22  25
HETATM   25  N   UNL     1      -9.632  18.258  67.303  1.00  0.00    -0.276 N  
HETATM   26  H   UNL     1     -10.325  18.237  68.051  1.00  0.00     0.000 HD 
BRANCH  25  27
HETATM   27  C   UNL     1      -8.441  18.918  67.534  1.00  0.00    -0.274 C  
HETATM   28  O   UNL     1      -7.864  19.559  66.669  1.00  0.00    -0.257 OA 
BRANCH  27  29
HETATM   29  N   UNL     1      -7.952  18.801  68.814  1.00  0.00    -0.324 N  
HETATM   30  H   UNL     1      -8.220  19.467  69.537  1.00  0.00     0.000 HD 
BRANCH  29  31
HETATM   31  C   UNL     1      -7.039  17.700  69.112  1.00  0.00    -0.189 C  
HETATM   32  C   UNL     1      -7.582  16.740  70.177  1.00  0.00     1.622 C  
HETATM   33  C   UNL     1      -8.506  15.645  69.646  1.00  0.00    -0.076 C  
HETATM   34  C   UNL     1      -7.955  14.929  68.408  1.00  0.00    -0.134 C  
HETATM   35  C   UNL     1      -7.598  15.958  67.331  1.00  0.00    -0.208 C  
HETATM   36  C   UNL     1      -6.768  14.017  68.742  1.00  0.00    -0.100 C  
HETATM   37  C   UNL     1      -6.589  16.992  67.825  1.00  0.00    -0.160 C  
ENDBRANCH  29  31
ENDBRANCH  27  29
ENDBRANCH  25  27
ENDBRANCH  22  25
ENDBRANCH  19  22
ENDBRANCH  15  16
ENDBRANCH  14  15
ENDBRANCH  12  14
ENDBRANCH  10  12
ENDBRANCH   7  10
ENDBRANCH   2   3
TORSDOF 11
ENDMDL
MODEL      336
REMARK 921   NORMALIZED FREE ENERGY PREDICTED BY IDOCK:    4.84 KCAL/MOL
REMARK 922        TOTAL FREE ENERGY PREDICTED BY IDOCK:    5.65 KCAL/MOL
REMARK 923 INTER-LIGAND FREE ENERGY PREDICTED BY IDOCK:    2.25 KCAL/MOL
REMARK 924 INTRA-LIGAND FREE ENERGY PREDICTED BY IDOCK:    3.40 KCAL/MOL
REMARK 927      BINDING AFFINITY PREDICTED BY RF-SCORE:    0.00 PKD
ROOT
HETATM    1  C   UNL     1      -7.846   9.624  64.817  1.00  0.00    -0.128 C  
HETATM    2  C   UNL     1      -8.231   8.172  65.054  1.00  0.00    -0.157 C  
ENDROOT
BRANCH   2   3
HETATM    3  C   UNL     1      -7.280   7.493  65.973  1.00  0.00    -0.070 C  
HETATM    4  C   UNL     1      -6.037   7.029  65.779  1.00  0.00    -0.036 C  
HETATM    5  C   UNL     1      -5.464   6.409  67.013  1.00  0.00    -0.012 C  
HETATM    6  C   UNL     1      -5.217   7.118  64.541  1.00  0.00    -0.028 C  
HETATM    7  N   UNL     1      -6.498   6.649  67.981  1.00  0.00    -0.053 N  
HETATM    8  O   UNL     1      -8.698   7.462  67.900  1.00  0.00    -0.124 OA 
HETATM    9  C   UNL     1      -7.617   7.221  67.387  1.00  0.00    -0.105 C  
BRANCH   7  10
HETATM   10  C   UNL     1      -6.241   6.510  69.333  1.00  0.00    -0.034 C  
HETATM   11  O   UNL     1      -5.151   6.787  69.828  1.00  0.00    -0.013 OA 
BRANCH  10  12
HETATM   12  N   UNL     1      -7.306   6.079  70.084  1.00  0.00    -0.076 N  
HETATM   13  H   UNL     1      -8.210   5.969  69.625  1.00  0.00     0.000 HD 
BRANCH  12  14
HETATM   14  C   UNL     1      -7.206   5.775  71.497  1.00  0.00    -0.082 C  
BRANCH  14  15
HETATM   15  C   UNL     1      -7.764   6.892  72.396  1.00  0.00    -0.095 C  
BRANCH  15  16
HETATM   16  C   UNL     1      -8.796   7.784  71.726  1.00  0.00    -0.150 A  
HETATM   17  C   UNL     1      -9.239   8.972  72.325  1.00  0.00     0.227 A  
HETATM   18  C   UNL     1     -10.230   9.753  71.727  1.00  0.00     0.996 A  
HETATM   19  C   UNL     1     -10.749   9.397  70.482  1.00  0.00    -0.276 A  
HETATM   20  C   UNL     1     -10.289   8.241  69.844  1.00  0.00    -0.218 A  
HETATM   21  C   UNL     1      -9.313   7.445  70.463  1.00  0.00    -0.157 A  
BRANCH  19  22
HETATM   22  S   UNL     1     -12.109  10.328  69.803  1.00  0.00     0.025 S  
HETATM   23  O   UNL     1     -11.788  10.608  68.418  1.00  0.00    -0.439 OA 
HETATM   24  O   UNL     1     -13.347   9.660  70.141  1.00  0.00     0.407 OA 
BRANCH  22  25
HETATM   25  N   UNL     1     -12.047  11.813  70.570  1.00  0.00    -0.403 N  
HETATM   26  H   UNL     1     -12.571  11.931  71.437  1.00  0.00     0.000 HD 
BRANCH  25  27
HETATM   27  C   UNL     1     -11.324  12.888  70.092  1.00  0.00     0.245 C  
HETATM   28  O   UNL     1     -11.853  13.874  69.603  1.00  0.00    -0.286 OA 
BRANCH  27  29
HETATM   29  N   UNL     1      -9.959  12.767  70.210  1.00  0.00     2.565 N  
HETATM   30  H   UNL     1      -9.549  12.057  70.815  1.00  0.00     0.000 HD 
BRANCH  29  31
HETATM   31  C   UNL     1      -9.111  13.681  69.448  1.00  0.00     0.901 C  
HETATM   32  C   UNL     1      -8.104  12.957  68.547  1.00  0.00    -0.080 C  
HETATM   33  C   UNL     1      -8.644  12.542  67.180  1.00  0.00    -0.200 C  
HETATM   34  C   UNL     1      -9.408  13.660  66.460  1.00  0.00    -0.242 C  
HETATM   35  C   UNL     1     -10.507  14.208  67.376  1.00  0.00    -0.271 C  
HETATM   36  C   UNL     1      -8.478  14.771  65.957  1.00  0.00     0.855 C  
HETATM   37  C   UNL     1      -9.955  14.726  68.702  1.00  0.00    -0.232 C  
ENDBRANCH  29  31
ENDBRANCH  27  29
ENDBRANCH  25  27
ENDBRANCH  22  25
ENDBRANCH  19  22
ENDBRANCH  15  16
ENDBRANCH  14  15
ENDBRANCH  12  14
ENDBRANCH  10  12
ENDBRANCH   7  10
ENDBRANCH   2   3
TORSDOF 11
ENDMDL
MODEL      337
REMARK 921   NORMALIZED FREE ENERGY PREDICTED BY IDOCK:    6.89 KCAL/MOL
REMARK 922        TOTAL FREE ENERGY PREDICTED BY IDOCK:    9.01 KCAL/MOL
REMARK 923 INTER-LIGAND FREE ENERGY PREDICTED BY IDOCK:    4.05 KCAL/MOL
REMARK 924 INTRA-LIGAND FREE ENERGY PREDICTED BY IDOCK:    4.96 KCAL/MOL
REMARK 927      BINDING AFFINITY PREDICTED BY RF-SCORE:    0.00 PKD
ROOT
HETATM    1  C   UNL     1     -10.289  16.285  63.807  1.00  0.00     4.652 C  
HETATM    2  C   UNL     1      -9.233  15.949  64.850  1.00  0.00     2.085 C  
ENDROOT
BRANCH   2   3
HETATM    3  C   UNL     1      -9.725  14.939  65.825  1.00  0.00    -0.359 C  
HETATM    4  C   UNL     1      -9.848  13.607  65.736  1.00  0.00    -0.230 C  
HETATM    5  C   UNL     1     -10.403  13.004  66.986  1.00  0.00    -0.247 C  
HETATM    6  C   UNL     1      -9.457  12.733  64.597  1.00  0.00     0.417 C  
HETATM    7  N   UNL     1     -10.507  14.145  67.853  1.00  0.00    -0.235 N  
HETATM    8  O   UNL     1     -10.264  16.464  67.588  1.00  0.00    -0.258 OA 
HETATM    9  C   UNL     1     -10.185  15.317  67.179  1.00  0.00    -0.252 C  
BRANCH   7  10
HETATM   10  C   UNL     1     -10.686  13.979  69.215  1.00  0.00    -0.115 C  
HETATM   11  O   UNL     1     -11.607  14.515  69.828  1.00  0.00    -0.266 OA 
BRANCH  10  12
HETATM   12  N   UNL     1      -9.784  13.141  69.819  1.00  0.00     1.017 N  
HETATM   13  H   UNL     1     -10.072  12.645  70.663  1.00  0.00     0.000 HD 
BRANCH  12  14
HETATM   14  C   UNL     1      -8.442  12.927  69.317  1.00  0.00     0.888 C  
BRANCH  14  15
HETATM   15  C   UNL     1      -8.415  12.238  67.942  1.00  0.00    -0.165 C  
BRANCH  15  16
HETATM   16  C   UNL     1      -8.876  10.791  67.953  1.00  0.00    -0.132 A  
HETATM   17  C   UNL     1      -8.545   9.906  66.916  1.00  0.00    -0.131 A  
HETATM   18  C   UNL     1      -9.022   8.594  66.910  1.00  0.00    -0.161 A  
HETATM   19  C   UNL     1      -9.785   8.119  67.977  1.00  0.00    -0.161 A  
HETATM   20  C   UNL     1     -10.089   8.969  69.044  1.00  0.00    -0.204 A  
HETATM   21  C   UNL     1      -9.629  10.295  69.032  1.00  0.00    -0.210 A  
BRANCH  19  22
HETATM   22  S   UNL     1     -10.500   6.488  67.883  1.00  0.00    -0.255 S  
HETATM   23  O   UNL     1     -11.272   6.289  69.093  1.00  0.00    -0.376 OA 
HETATM   24  O   UNL     1     -11.123   6.327  66.588  1.00  0.00    -0.292 OA 
BRANCH  22  25
HETATM   25  N   UNL     1      -9.207   5.436  68.016  1.00  0.00    -0.109 N  
HETATM   26  H   UNL     1      -8.901   4.938  67.180  1.00  0.00     0.000 HD 
BRANCH  25  27
HETATM   27  C   UNL     1      -8.530   5.207  69.198  1.00  0.00    -0.090 C  
HETATM   28  O   UNL     1      -7.487   4.575  69.248  1.00  0.00    -0.055 OA 
BRANCH  27  29
HETATM   29  N   UNL     1      -9.119   5.747  70.318  1.00  0.00    -0.143 N  
HETATM   30  H   UNL     1      -9.580   6.655  70.278  1.00  0.00     0.000 HD 
BRANCH  29  31
HETATM   31  C   UNL     1      -9.070   4.986  71.564  1.00  0.00    -0.140 C  
HETATM   32  C   UNL     1      -8.107   3.794  71.504  1.00  0.00    -0.069 C  
HETATM   33  C   UNL     1      -6.649   4.127  71.812  1.00  0.00    -0.022 C  
HETATM   34  C   UNL     1      -6.472   4.986  73.069  1.00  0.00    -0.059 C  
HETATM   35  C   UNL     1      -7.343   6.242  72.965  1.00  0.00    -0.091 C  
HETATM   36  C   UNL     1      -6.754   4.201  74.356  1.00  0.00    -0.055 C  
HETATM   37  C   UNL     1      -8.820   5.911  72.766  1.00  0.00    -0.124 C  
ENDBRANCH  29  31
ENDBRANCH  27  29
ENDBRANCH  25  27
ENDBRANCH  22  25
ENDBRANCH  19  22
ENDBRANCH  15  16
ENDBRANCH  14  15
ENDBRANCH  12  14
ENDBRANCH  10  12
ENDBRANCH   7  10
ENDBRANCH   2   3
TORSDOF 11
ENDMDL
MODEL      338
REMARK 921   NORMALIZED FREE ENERGY PREDICTED BY IDOCK:    7.10 KCAL/MOL
REMARK 922        TOTAL FREE ENERGY PREDICTED BY IDOCK:    9.36 KCAL/MOL
REMARK 923 INTER-LIGAND FREE ENERGY PREDICTED BY IDOCK:    2.06 KCAL/MOL
REMARK 924 INTRA-LIGAND FREE ENERGY PREDICTED BY IDOCK:    7.29 KCAL/MOL
REMARK 927      BINDING AFFINITY PREDICTED BY RF-SCORE:    0.00 PKD
ROOT
HETATM    1  C   UNL     1      -9.349  13.678  66.425  1.00  0.00    -0.203 C  
HETATM    2  C   UNL     1      -8.443  14.710  65.769  1.00  0.00     1.671 C  
ENDROOT
BRANCH   2   3
HETATM    3  C   UNL     1      -8.916  16.097  66.021  1.00  0.00    -0.334 C  
HETATM    4  C   UNL     1      -9.958  16.782  65.526  1.00  0.00    -0.054 C  
HETATM    5  C   UNL     1     -10.035  18.170  66.074  1.00  0.00    -0.215 C  
HETATM    6  C   UNL     1     -11.000  16.294  64.583  1.00  0.00    -0.212 C  
HETATM    7  N   UNL     1      -8.956  18.182  67.023  1.00  0.00    -0.257 N  
HETATM    8  O   UNL     1      -7.198  16.724  67.562  1.00  0.00    -0.136 OA 
HETATM    9  C   UNL     1      -8.227  17.000  66.966  1.00  0.00    -0.204 C  
BRANCH   7  10
HETATM   10  C   UNL     1      -8.870  19.179  67.978  1.00  0.00    -0.313 C  
HETATM   11  O   UNL     1      -8.157  20.170  67.834  1.00  0.00    -0.288 OA 
BRANCH  10  12
HETATM   12  N   UNL     1      -9.672  18.999  69.077  1.00  0.00    -0.367 N  
HETATM   13  H   UNL     1      -9.485  19.555  69.911  1.00  0.00     0.000 HD 
BRANCH  12  14
HETATM   14  C   UNL     1     -10.771  18.055  69.108  1.00  0.00     0.442 C  
BRANCH  14  15
HETATM   15  C   UNL     1     -10.708  17.017  67.974  1.00  0.00    -0.365 C  
BRANCH  15  16
HETATM   16  C   UNL     1     -11.016  15.593  68.405  1.00  0.00    -0.308 A  
HETATM   17  C   UNL     1     -10.331  14.983  69.466  1.00  0.00    -0.230 A  
HETATM   18  C   UNL     1     -10.583  13.655  69.816  1.00  0.00     0.475 A  
HETATM   19  C   UNL     1     -11.575  12.930  69.155  1.00  0.00    -0.322 A  
HETATM   20  C   UNL     1     -12.302  13.532  68.125  1.00  0.00     0.058 A  
HETATM   21  C   UNL     1     -12.026  14.859  67.759  1.00  0.00    -0.192 A  
BRANCH  19  22
HETATM   22  S   UNL     1     -11.783  11.198  69.521  1.00  0.00    -0.365 S  
HETATM   23  O   UNL     1     -10.555  10.740  70.139  1.00  0.00    -0.133 OA 
HETATM   24  O   UNL     1     -13.050  11.013  70.195  1.00  0.00    -0.050 OA 
BRANCH  22  25
HETATM   25  N   UNL     1     -11.827  10.440  68.031  1.00  0.00    -0.225 N  
HETATM   26  H   UNL     1     -12.131  10.982  67.222  1.00  0.00     0.000 HD 
BRANCH  25  27
HETATM   27  C   UNL     1     -11.472   9.119  67.837  1.00  0.00     1.062 C  
HETATM   28  O   UNL     1     -12.293   8.216  67.795  1.00  0.00     4.402 OA 
BRANCH  27  29
HETATM   29  N   UNL     1     -10.123   8.897  67.692  1.00  0.00    -0.203 N  
HETATM   30  H   UNL     1      -9.539   9.553  67.174  1.00  0.00     0.000 HD 
BRANCH  29  31
HETATM   31  C   UNL     1      -9.547   7.698  68.297  1.00  0.00    -0.153 C  
HETATM   32  C   UNL     1     -10.592   6.620  68.609  1.00  0.00    -0.274 C  
HETATM   33  C   UNL     1     -10.933   5.696  67.441  1.00  0.00    -0.056 C  
HETATM   34  C   UNL     1      -9.699   5.152  66.712  1.00  0.00    -0.178 C  
HETATM   35  C   UNL     1      -8.795   6.313  66.287  1.00  0.00    -0.153 C  
HETATM   36  C   UNL     1      -8.940   4.114  67.548  1.00  0.00    -0.142 C  
HETATM   37  C   UNL     1      -8.362   7.177  67.470  1.00  0.00    -0.116 C  
ENDBRANCH  29  31
ENDBRANCH  27  29
ENDBRANCH  25  27
ENDBRANCH  22  25
ENDBRANCH  19  22
ENDBRANCH  15  16
ENDBRANCH  14  15
ENDBRANCH  12  14
ENDBRANCH  10  12
ENDBRANCH   7  10
ENDBRANCH   2   3
TORSDOF 11
ENDMDL
MODEL      339
REMARK 921   NORMALIZED FREE ENERGY PREDICTED BY IDOCK:    8.84 KCAL/MOL
REMARK 922        TOTAL FREE ENERGY PREDICTED BY IDOCK:   12.21 KCAL/MOL
REMARK 923 INTER-LIGAND FREE ENERGY PREDICTED BY IDOCK:    3.76 KCAL/MOL
REMARK 924 INTRA-LIGAND FREE ENERGY PREDICTED BY IDOCK:    8.45 KCAL/MOL
REMARK 927      BINDING AFFINITY PREDICTED BY RF-SCORE:    0.00 PKD
ROOT
HETATM    1  C   UNL     1      -6.604  10.905  66.638  1.00  0.00    -0.120 C  
HETATM    2  C   UNL     1      -7.928  10.823  65.894  1.00  0.00    -0.140 C  
ENDROOT
BRANCH   2   3
HETATM    3  C   UNL     1      -8.513   9.457  65.961  1.00  0.00    -0.132 C  
HETATM    4  C   UNL     1      -8.331   8.376  65.189  1.00  0.00    -0.177 C  
HETATM    5  C   UNL     1      -9.149   7.210  65.645  1.00  0.00     0.139 C  
HETATM    6  C   UNL     1      -7.410   8.232  64.030  1.00  0.00    -0.103 C  
HETATM    7  N   UNL     1      -9.767   7.721  66.838  1.00  0.00    -0.198 N  
HETATM    8  O   UNL     1      -9.912   9.826  67.866  1.00  0.00    -0.152 OA 
HETATM    9  C   UNL     1      -9.473   9.068  67.016  1.00  0.00    -0.163 C  
BRANCH   7  10
HETATM   10  C   UNL     1     -10.364   6.863  67.743  1.00  0.00    -0.203 C  
HETATM   11  O   UNL     1      -9.965   5.714  67.923  1.00  0.00    -0.126 OA 
BRANCH  10  12
HETATM   12  N   UNL     1     -11.406   7.403  68.453  1.00  0.00    -0.213 N  
HETATM   13  H   UNL     1     -12.352   7.289  68.089  1.00  0.00     0.000 HD 
BRANCH  12  14
HETATM   14  C   UNL     1     -11.226   8.128  69.694  1.00  0.00     0.095 C  
BRANCH  14  15
HETATM   15  C   UNL     1     -10.123   9.198  69.615  1.00  0.00    -0.206 C  
BRANCH  15  16
HETATM   16  C   UNL     1     -10.633  10.611  69.385  1.00  0.00    -0.270 A  
HETATM   17  C   UNL     1     -11.961  10.861  69.011  1.00  0.00    -0.322 A  
HETATM   18  C   UNL     1     -12.402  12.159  68.747  1.00  0.00     0.256 A  
HETATM   19  C   UNL     1     -11.540  13.243  68.918  1.00  0.00    -0.314 A  
HETATM   20  C   UNL     1     -10.224  13.022  69.335  1.00  0.00     0.548 A  
HETATM   21  C   UNL     1      -9.778  11.712  69.573  1.00  0.00     0.747 A  
BRANCH  19  22
HETATM   22  S   UNL     1     -12.079  14.874  68.441  1.00  0.00    -0.031 S  
HETATM   23  O   UNL     1     -11.155  15.353  67.433  1.00  0.00    -0.321 OA 
HETATM   24  O   UNL     1     -13.499  14.834  68.167  1.00  0.00     3.084 OA 
BRANCH  22  25
HETATM   25  N   UNL     1     -11.795  15.835  69.780  1.00  0.00    -0.351 N  
HETATM   26  H   UNL     1     -12.577  16.040  70.403  1.00  0.00     0.000 HD 
BRANCH  25  27
HETATM   27  C   UNL     1     -10.558  16.366  70.088  1.00  0.00    -0.128 C  
HETATM   28  O   UNL     1     -10.341  17.568  70.102  1.00  0.00     0.355 OA 
BRANCH  27  29
HETATM   29  N   UNL     1      -9.586  15.439  70.383  1.00  0.00    -0.121 N  
HETATM   30  H   UNL     1      -9.817  14.583  70.886  1.00  0.00     0.000 HD 
BRANCH  29  31
HETATM   31  C   UNL     1      -8.215  15.709  69.957  1.00  0.00     0.466 C  
HETATM   32  C   UNL     1      -7.163  15.166  70.932  1.00  0.00     1.192 C  
HETATM   33  C   UNL     1      -6.790  13.700  70.725  1.00  0.00     1.136 C  
HETATM   34  C   UNL     1      -6.501  13.344  69.262  1.00  0.00    -0.111 C  
HETATM   35  C   UNL     1      -7.681  13.770  68.383  1.00  0.00    -0.134 C  
HETATM   36  C   UNL     1      -5.177  13.939  68.768  1.00  0.00    -0.083 C  
HETATM   37  C   UNL     1      -7.988  15.261  68.505  1.00  0.00    -0.141 C  
ENDBRANCH  29  31
ENDBRANCH  27  29
ENDBRANCH  25  27
ENDBRANCH  22  25
ENDBRANCH  19  22
ENDBRANCH  15  16
ENDBRANCH  14  15
ENDBRANCH  12  14
ENDBRANCH  10  12
ENDBRANCH   7  10
ENDBRANCH   2   3
TORSDOF 11
ENDMDL
MODEL      340
REMARK 921   NORMALIZED FREE ENERGY PREDICTED BY IDOCK:   11.93 KCAL/MOL
REMARK 922        TOTAL FREE ENERGY PREDICTED BY IDOCK:   17.30 KCAL/MOL
REMARK 923 INTER-LIGAND FREE ENERGY PREDICTED BY IDOCK:    5.32 KCAL/MOL
REMARK 924 INTRA-LIGAND FREE ENERGY PREDICTED BY IDOCK:   11.98 KCAL/MOL
REMARK 927      BINDING AFFINITY PREDICTED BY RF-SCORE:    0.00 PKD
ROOT
HETATM    1  C   UNL     1     -11.345  10.435  65.415  1.00  0.00     1.240 C  
HETATM    2  C   UNL     1     -10.646   9.445  64.496  1.00  0.00     3.251 C  
ENDROOT
BRANCH   2   3
HETATM    3  C   UNL     1      -9.208   9.291  64.845  1.00  0.00    -0.206 C  
HETATM    4  C   UNL     1      -8.127   9.996  64.481  1.00  0.00    -0.156 C  
HETATM    5  C   UNL     1      -6.870   9.460  65.086  1.00  0.00    -0.084 C  
HETATM    6  C   UNL     1      -8.082  11.212  63.624  1.00  0.00     0.528 C  
HETATM    7  N   UNL     1      -7.364   8.403  65.926  1.00  0.00    -0.072 N  
HETATM    8  O   UNL     1      -9.444   7.359  66.236  1.00  0.00    -0.161 OA 
HETATM    9  C   UNL     1      -8.732   8.226  65.754  1.00  0.00    -0.166 C  
BRANCH   7  10
HETATM   10  C   UNL     1      -6.561   7.849  66.906  1.00  0.00    -0.059 C  
HETATM   11  O   UNL     1      -5.656   8.479  67.450  1.00  0.00    -0.037 OA 
BRANCH  10  12
HETATM   12  N   UNL     1      -6.875   6.560  67.252  1.00  0.00    -0.067 N  
HETATM   13  H   UNL     1      -6.497   5.799  66.687  1.00  0.00     0.000 HD 
BRANCH  12  14
HETATM   14  C   UNL     1      -7.720   6.228  68.382  1.00  0.00    -0.104 C  
BRANCH  14  15
HETATM   15  C   UNL     1      -8.748   7.324  68.710  1.00  0.00    -0.125 C  
BRANCH  15  16
HETATM   16  C   UNL     1      -8.143   8.685  69.012  1.00  0.00    -0.121 A  
HETATM   17  C   UNL     1      -8.588   9.463  70.091  1.00  0.00    -0.233 A  
HETATM   18  C   UNL     1      -8.063  10.736  70.323  1.00  0.00     1.187 A  
HETATM   19  C   UNL     1      -7.033  11.229  69.522  1.00  0.00    -0.089 A  
HETATM   20  C   UNL     1      -6.542  10.452  68.470  1.00  0.00    -0.052 A  
HETATM   21  C   UNL     1      -7.092   9.184  68.223  1.00  0.00    -0.077 A  
BRANCH  19  22
HETATM   22  S   UNL     1      -6.477  12.908  69.748  1.00  0.00     0.070 S  
HETATM   23  O   UNL     1      -7.545  13.628  70.410  1.00  0.00     1.426 OA 
HETATM   24  O   UNL     1      -5.149  12.886  70.323  1.00  0.00    -0.086 OA 
BRANCH  22  25
HETATM   25  N   UNL     1      -6.408  13.555  68.207  1.00  0.00    -0.092 N  
HETATM   26  H   UNL     1      -5.597  13.338  67.627  1.00  0.00     0.000 HD 
BRANCH  25  27
HETATM   27  C   UNL     1      -7.391  14.368  67.678  1.00  0.00    -0.180 C  
HETATM   28  O   UNL     1      -7.178  15.519  67.332  1.00  0.00    -0.176 OA 
BRANCH  27  29
HETATM   29  N   UNL     1      -8.630  13.781  67.566  1.00  0.00    -0.181 N  
HETATM   30  H   UNL     1      -8.924  13.347  66.691  1.00  0.00     0.000 HD 
BRANCH  29  31
HETATM   31  C   UNL     1      -9.513  13.795  68.729  1.00  0.00    -0.012 C  
HETATM   32  C   UNL     1     -10.313  15.097  68.861  1.00  0.00    -0.243 C  
HETATM   33  C   UNL     1     -11.608  15.142  68.053  1.00  0.00    -0.345 C  
HETATM   34  C   UNL     1     -12.469  13.883  68.208  1.00  0.00     0.256 C  
HETATM   35  C   UNL     1     -11.630  12.640  67.890  1.00  0.00    -0.401 C  
HETATM   36  C   UNL     1     -13.123  13.791  69.592  1.00  0.00     1.025 C  
HETATM   37  C   UNL     1     -10.389  12.534  68.773  1.00  0.00    -0.138 C  
ENDBRANCH  29  31
ENDBRANCH  27  29
ENDBRANCH  25  27
ENDBRANCH  22  25
ENDBRANCH  19  22
ENDBRANCH  15  16
ENDBRANCH  14  15
ENDBRANCH  12  14
ENDBRANCH  10  12
ENDBRANCH   7  10
ENDBRANCH   2   3
TORSDOF 11
ENDMDL
MODEL      341
REMARK 921   NORMALIZED FREE ENERGY PREDICTED BY IDOCK:   14.57 KCAL/MOL
REMARK 922        TOTAL FREE ENERGY PREDICTED BY IDOCK:   21.64 KCAL/MOL
REMARK 923 INTER-LIGAND FREE ENERGY PREDICTED BY IDOCK:   -1.47 KCAL/MOL
REMARK 924 INTRA-LIGAND FREE ENERGY PREDICTED BY IDOCK:   23.11 KCAL/MOL
REMARK 927      BINDING AFFINITY PREDICTED BY RF-SCORE:    0.00 PKD
ROOT
HETATM    1  C   UNL     1      -9.410  14.372  67.780  1.00  0.00    -0.200 C  
HETATM    2  C   UNL     1      -9.861  15.355  66.709  1.00  0.00    -0.255 C  
ENDROOT
BRANCH   2   3
HETATM    3  C   UNL     1      -9.412  16.740  67.010  1.00  0.00    -0.240 C  
HETATM    4  C   UNL     1     -10.085  17.818  67.438  1.00  0.00    -0.338 C  
HETATM    5  C   UNL     1      -9.201  19.013  67.596  1.00  0.00    -0.294 C  
HETATM    6  C   UNL     1     -11.528  17.905  67.792  1.00  0.00     0.825 C  
HETATM    7  N   UNL     1      -7.904  18.473  67.292  1.00  0.00    -0.233 N  
HETATM    8  O   UNL     1      -7.107  16.435  66.445  1.00  0.00    -0.147 OA 
HETATM    9  C   UNL     1      -7.999  17.153  66.870  1.00  0.00    -0.217 C  
BRANCH   7  10
HETATM   10  C   UNL     1      -6.757  19.172  67.622  1.00  0.00    -0.207 C  
HETATM   11  O   UNL     1      -5.669  18.935  67.103  1.00  0.00    -0.156 OA 
BRANCH  10  12
HETATM   12  N   UNL     1      -6.935  20.174  68.542  1.00  0.00    -0.284 N  
HETATM   13  H   UNL     1      -6.180  20.847  68.678  1.00  0.00     0.000 HD 
BRANCH  12  14
HETATM   14  C   UNL     1      -8.143  20.322  69.328  1.00  0.00     0.586 C  
BRANCH  14  15
HETATM   15  C   UNL     1      -9.041  19.074  69.296  1.00  0.00    -0.004 C  
BRANCH  15  16
HETATM   16  C   UNL     1      -8.305  17.762  69.511  1.00  0.00     0.690 A  
HETATM   17  C   UNL     1      -6.904  17.697  69.509  1.00  0.00    -0.051 A  
HETATM   18  C   UNL     1      -6.241  16.477  69.651  1.00  0.00    -0.220 A  
HETATM   19  C   UNL     1      -6.964  15.305  69.867  1.00  0.00    -0.121 A  
HETATM   20  C   UNL     1      -8.360  15.352  69.920  1.00  0.00     0.159 A  
HETATM   21  C   UNL     1      -9.023  16.577  69.749  1.00  0.00     0.656 A  
BRANCH  19  22
HETATM   22  S   UNL     1      -6.106  13.742  69.906  1.00  0.00    -0.134 S  
HETATM   23  O   UNL     1      -5.148  13.753  68.819  1.00  0.00    -0.071 OA 
HETATM   24  O   UNL     1      -5.668  13.484  71.259  1.00  0.00    -0.211 OA 
BRANCH  22  25
HETATM   25  N   UNL     1      -7.251  12.606  69.462  1.00  0.00    -0.302 N  
HETATM   26  H   UNL     1      -8.219  12.911  69.356  1.00  0.00     0.000 HD 
BRANCH  25  27
HETATM   27  C   UNL     1      -6.956  11.276  69.233  1.00  0.00    -0.119 C  
HETATM   28  O   UNL     1      -7.253  10.390  70.020  1.00  0.00    -0.154 OA 
BRANCH  27  29
HETATM   29  N   UNL     1      -6.305  11.023  68.049  1.00  0.00    -0.056 N  
HETATM   30  H   UNL     1      -5.411  11.466  67.840  1.00  0.00     0.000 HD 
BRANCH  29  31
HETATM   31  C   UNL     1      -6.925  10.104  67.097  1.00  0.00    -0.087 C  
HETATM   32  C   UNL     1      -8.232   9.492  67.616  1.00  0.00    -0.121 C  
HETATM   33  C   UNL     1      -9.478  10.346  67.390  1.00  0.00    -0.170 C  
HETATM   34  C   UNL     1      -9.591  10.895  65.963  1.00  0.00    -0.248 C  
HETATM   35  C   UNL     1      -8.304  11.639  65.592  1.00  0.00     0.367 C  
HETATM   36  C   UNL     1      -9.933   9.802  64.943  1.00  0.00    -0.061 C  
HETATM   37  C   UNL     1      -7.065  10.754  65.712  1.00  0.00    -0.053 C  
ENDBRANCH  29  31
ENDBRANCH  27  29
ENDBRANCH  25  27
ENDBRANCH  22  25
ENDBRANCH  19  22
ENDBRANCH  15  16
ENDBRANCH  14  15
ENDBRANCH  12  14
ENDBRANCH  10  12
ENDBRANCH   7  10
ENDBRANCH   2   3
TORSDOF 11
ENDMDL
MODEL      342
REMARK 921   NORMALIZED FREE ENERGY PREDICTED BY IDOCK:   23.20 KCAL/MOL
REMARK 922        TOTAL FREE ENERGY PREDICTED BY IDOCK:   35.81 KCAL/MOL
REMARK 923 INTER-LIGAND FREE ENERGY PREDICTED BY IDOCK:   35.36 KCAL/MOL
REMARK 924 INTRA-LIGAND FREE ENERGY PREDICTED BY IDOCK:    0.45 KCAL/MOL
REMARK 927      BINDING AFFINITY PREDICTED BY RF-SCORE:    0.00 PKD
ROOT
HETATM    1  C   UNL     1      -7.077  10.750  73.191  1.00  0.00     6.604 C  
HETATM    2  C   UNL     1      -6.650  11.469  71.919  1.00  0.00     4.045 C  
ENDROOT
BRANCH   2   3
HETATM    3  C   UNL     1      -6.955  10.666  70.705  1.00  0.00     0.536 C  
HETATM    4  C   UNL     1      -6.609   9.418  70.358  1.00  0.00    -0.077 C  
HETATM    5  C   UNL     1      -7.150   9.031  69.019  1.00  0.00    -0.064 C  
HETATM    6  C   UNL     1      -5.831   8.435  71.159  1.00  0.00    -0.034 C  
HETATM    7  N   UNL     1      -7.932  10.184  68.664  1.00  0.00    -0.099 N  
HETATM    8  O   UNL     1      -8.225  12.335  69.554  1.00  0.00     0.753 OA 
HETATM    9  C   UNL     1      -7.782  11.198  69.601  1.00  0.00     0.245 C  
BRANCH   7  10
HETATM   10  C   UNL     1      -8.855  10.117  67.636  1.00  0.00    -0.125 C  
HETATM   11  O   UNL     1      -8.621   9.538  66.577  1.00  0.00    -0.131 OA 
BRANCH  10  12
HETATM   12  N   UNL     1     -10.064  10.708  67.904  1.00  0.00    -0.164 N  
HETATM   13  H   UNL     1     -10.356  10.796  68.877  1.00  0.00     0.000 HD 
BRANCH  12  14
HETATM   14  C   UNL     1     -10.944  11.213  66.869  1.00  0.00    -0.273 C  
BRANCH  14  15
HETATM   15  C   UNL     1     -11.698  12.487  67.288  1.00  0.00    -0.431 C  
BRANCH  15  16
HETATM   16  C   UNL     1     -11.277  13.742  66.541  1.00  0.00    -0.319 A  
HETATM   17  C   UNL     1     -10.507  13.677  65.371  1.00  0.00    -0.333 A  
HETATM   18  C   UNL     1     -10.079  14.839  64.726  1.00  0.00    -0.065 A  
HETATM   19  C   UNL     1     -10.470  16.091  65.200  1.00  0.00    -0.303 A  
HETATM   20  C   UNL     1     -11.276  16.179  66.339  1.00  0.00     0.220 A  
HETATM   21  C   UNL     1     -11.681  15.009  66.999  1.00  0.00    -0.199 A  
BRANCH  19  22
HETATM   22  S   UNL     1      -9.799  17.561  64.447  1.00  0.00     6.400 S  
HETATM   23  O   UNL     1      -8.486  17.220  63.939  1.00  0.00     9.792 OA 
HETATM   24  O   UNL     1     -10.795  18.130  63.567  1.00  0.00     5.940 OA 
BRANCH  22  25
HETATM   25  N   UNL     1      -9.511  18.609  65.719  1.00  0.00     0.187 N  
HETATM   26  H   UNL     1     -10.179  18.628  66.490  1.00  0.00     0.000 HD 
BRANCH  25  27
HETATM   27  C   UNL     1      -8.418  19.451  65.780  1.00  0.00     0.128 C  
HETATM   28  O   UNL     1      -8.407  20.556  65.261  1.00  0.00     0.356 OA 
BRANCH  27  29
HETATM   29  N   UNL     1      -7.341  18.952  66.474  1.00  0.00    -0.226 N  
HETATM   30  H   UNL     1      -6.427  18.867  66.029  1.00  0.00     0.000 HD 
BRANCH  29  31
HETATM   31  C   UNL     1      -7.536  18.546  67.864  1.00  0.00    -0.239 C  
HETATM   32  C   UNL     1      -6.836  19.472  68.865  1.00  0.00    -0.376 C  
HETATM   33  C   UNL     1      -7.635  20.712  69.262  1.00  0.00     0.972 C  
HETATM   34  C   UNL     1      -9.091  20.408  69.632  1.00  0.00     1.059 C  
HETATM   35  C   UNL     1      -9.761  19.627  68.498  1.00  0.00    -0.493 C  
HETATM   36  C   UNL     1      -9.211  19.679  70.976  1.00  0.00     2.383 C  
HETATM   37  C   UNL     1      -9.026  18.329  68.172  1.00  0.00    -0.314 C  
ENDBRANCH  29  31
ENDBRANCH  27  29
ENDBRANCH  25  27
ENDBRANCH  22  25
ENDBRANCH  19  22
ENDBRANCH  15  16
ENDBRANCH  14  15
ENDBRANCH  12  14
ENDBRANCH  10  12
ENDBRANCH   7  10
ENDBRANCH   2   3
TORSDOF 11
ENDMDL
MODEL      343
REMARK 921   NORMALIZED FREE ENERGY PREDICTED BY IDOCK:   31.63 KCAL/MOL
REMARK 922        TOTAL FREE ENERGY PREDICTED BY IDOCK:   49.66 KCAL/MOL
REMARK 923 INTER-LIGAND FREE ENERGY PREDICTED BY IDOCK:   28.93 KCAL/MOL
REMARK 924 INTRA-LIGAND FREE ENERGY PREDICTED BY IDOCK:   20.72 KCAL/MOL
REMARK 927      BINDING AFFINITY PREDICTED BY RF-SCORE:    0.00 PKD
ROOT
HETATM    1  C   UNL     1      -7.463  10.516  65.846  1.00  0.00    -0.147 C  
HETATM    2  C   UNL     1      -8.841  10.865  65.304  1.00  0.00    -0.179 C  
ENDROOT
BRANCH   2   3
HETATM    3  C   UNL     1      -9.736   9.677  65.271  1.00  0.00    -0.330 C  
HETATM    4  C   UNL     1     -10.083   8.856  64.269  1.00  0.00     2.986 C  
HETATM    5  C   UNL     1     -11.028   7.787  64.714  1.00  0.00     9.753 C  
HETATM    6  C   UNL     1      -9.601   8.887  62.862  1.00  0.00     1.719 C  
HETATM    7  N   UNL     1     -11.120   8.033  66.127  1.00  0.00     2.010 N  
HETATM    8  O   UNL     1     -10.386   9.730  67.572  1.00  0.00    -0.205 OA 
HETATM    9  C   UNL     1     -10.429   9.186  66.480  1.00  0.00    -0.127 C  
BRANCH   7  10
HETATM   10  C   UNL     1     -11.651   7.077  66.974  1.00  0.00     1.040 C  
HETATM   11  O   UNL     1     -11.758   5.896  66.649  1.00  0.00     0.603 OA 
BRANCH  10  12
HETATM   12  N   UNL     1     -12.011   7.537  68.215  1.00  0.00     1.431 N  
HETATM   13  H   UNL     1     -13.000   7.700  68.405  1.00  0.00     0.000 HD 
BRANCH  12  14
HETATM   14  C   UNL     1     -11.052   7.805  69.268  1.00  0.00     0.113 C  
BRANCH  14  15
HETATM   15  C   UNL     1      -9.754   8.450  68.753  1.00  0.00    -0.168 C  
BRANCH  15  16
HETATM   16  C   UNL     1      -9.689   9.959  68.924  1.00  0.00    -0.176 A  
HETATM   17  C   UNL     1      -8.490  10.667  68.755  1.00  0.00    -0.149 A  
HETATM   18  C   UNL     1      -8.432  12.044  68.971  1.00  0.00     0.302 A  
HETATM   19  C   UNL     1      -9.588  12.755  69.294  1.00  0.00     0.816 A  
HETATM   20  C   UNL     1     -10.804  12.077  69.422  1.00  0.00    -0.059 A  
HETATM   21  C   UNL     1     -10.852  10.688  69.231  1.00  0.00    -0.282 A  
BRANCH  19  22
HETATM   22  S   UNL     1      -9.466  14.486  69.702  1.00  0.00     0.554 S  
HETATM   23  O   UNL     1      -9.540  14.592  71.146  1.00  0.00     2.290 OA 
HETATM   24  O   UNL     1      -8.345  15.056  68.988  1.00  0.00    -0.175 OA 
BRANCH  22  25
HETATM   25  N   UNL     1     -10.889  15.167  69.145  1.00  0.00    -0.240 N  
HETATM   26  H   UNL     1     -10.845  15.780  68.331  1.00  0.00     0.000 HD 
BRANCH  25  27
HETATM   27  C   UNL     1     -12.120  14.942  69.727  1.00  0.00    -0.314 C  
HETATM   28  O   UNL     1     -12.798  15.839  70.203  1.00  0.00    -0.293 OA 
BRANCH  27  29
HETATM   29  N   UNL     1     -12.530  13.629  69.730  1.00  0.00    -0.213 N  
HETATM   30  H   UNL     1     -12.480  13.066  68.881  1.00  0.00     0.000 HD 
BRANCH  29  31
HETATM   31  C   UNL     1     -13.037  13.061  70.976  1.00  0.00    -0.022 C  
HETATM   32  C   UNL     1     -14.068  11.947  70.754  1.00  0.00     3.440 C  
HETATM   33  C   UNL     1     -13.475  10.558  70.526  1.00  0.00     0.273 C  
HETATM   34  C   UNL     1     -12.387  10.184  71.539  1.00  0.00    -0.505 C  
HETATM   35  C   UNL     1     -11.311  11.275  71.569  1.00  0.00     2.193 C  
HETATM   36  C   UNL     1     -12.960   9.909  72.935  1.00  0.00     0.880 C  
HETATM   37  C   UNL     1     -11.885  12.649  71.906  1.00  0.00     2.112 C  
ENDBRANCH  29  31
ENDBRANCH  27  29
ENDBRANCH  25  27
ENDBRANCH  22  25
ENDBRANCH  19  22
ENDBRANCH  15  16
ENDBRANCH  14  15
ENDBRANCH  12  14
ENDBRANCH  10  12
ENDBRANCH   7  10
ENDBRANCH   2   3
TORSDOF 11
ENDMDL
