MODEL        1
REMARK 921   NORMALIZED FREE ENERGY PREDICTED BY IDOCK:   -7.49 KCAL/MOL
REMARK 922        TOTAL FREE ENERGY PREDICTED BY IDOCK:  -12.93 KCAL/MOL
REMARK 923 INTER-LIGAND FREE ENERGY PREDICTED BY IDOCK:  -11.44 KCAL/MOL
REMARK 924 INTRA-LIGAND FREE ENERGY PREDICTED BY IDOCK:   -1.49 KCAL/MOL
REMARK 927      BINDING AFFINITY PREDICTED BY RF-SCORE:    0.00 PKD
ROOT
HETATM    1  C   UNL     1     -14.170  15.512  72.251  1.00  0.00    -0.617 C  
HETATM    2  C   UNL     1     -13.581  14.207  71.817  1.00  0.00    -0.399 A  
HETATM    3  N   UNL     1     -13.972  13.089  72.479  1.00  0.00    -0.608 NA 
HETATM    4  C   UNL     1     -13.389  11.931  72.079  1.00  0.00    -0.320 A  
HETATM    5  C   UNL     1     -12.456  11.884  71.054  1.00  0.00    -0.290 A  
HETATM    6  C   UNL     1     -12.652  14.148  70.777  1.00  0.00    -0.362 A  
HETATM    7  N   UNL     1     -12.064  12.995  70.366  1.00  0.00    -0.355 NA 
ENDROOT
BRANCH   5   8
HETATM    8  C   UNL     1     -11.820  10.583  70.706  1.00  0.00    -0.365 C  
HETATM    9  O   UNL     1     -12.370   9.522  70.979  1.00  0.00    -0.300 OA 
HETATM   10  N   UNL     1     -10.586  10.667  70.089  1.00  0.00    -0.458 N  
HETATM   11  H   UNL     1     -10.226  11.581  69.819  1.00  0.00     0.000 HD 
BRANCH  10  12
HETATM   12  C   UNL     1      -9.793   9.484  69.818  1.00  0.00    -0.215 C  
BRANCH  12  13
HETATM   13  C   UNL     1      -9.057   9.550  68.469  1.00  0.00    -0.131 C  
BRANCH  13  14
HETATM   14  C   UNL     1      -9.663  10.513  67.464  1.00  0.00    -0.190 A  
HETATM   15  C   UNL     1      -9.710  11.895  67.704  1.00  0.00    -0.186 A  
HETATM   16  C   UNL     1     -10.311  12.764  66.791  1.00  0.00    -0.248 A  
HETATM   17  C   UNL     1     -10.820  12.272  65.592  1.00  0.00    -0.285 A  
HETATM   18  C   UNL     1     -10.741  10.905  65.307  1.00  0.00    -0.194 A  
HETATM   19  C   UNL     1     -10.159  10.035  66.237  1.00  0.00    -0.310 A  
BRANCH  17  20
HETATM   20  S   UNL     1     -11.699  13.372  64.507  1.00  0.00    -0.404 S  
HETATM   21  O   UNL     1     -12.948  13.752  65.130  1.00  0.00    -0.738 OA 
HETATM   22  O   UNL     1     -11.696  12.769  63.188  1.00  0.00    -0.472 OA 
BRANCH  20  23
HETATM   23  N   UNL     1     -10.711  14.704  64.366  1.00  0.00    -0.558 N  
HETATM   24  H   UNL     1      -9.840  14.595  63.846  1.00  0.00     0.000 HD 
BRANCH  23  25
HETATM   25  C   UNL     1     -10.986  15.948  64.904  1.00  0.00    -0.411 C  
HETATM   26  O   UNL     1     -11.318  16.911  64.232  1.00  0.00    -1.202 OA 
BRANCH  25  27
HETATM   27  N   UNL     1     -10.872  15.988  66.266  1.00  0.00    -0.228 N  
HETATM   28  H   UNL     1     -11.383  15.312  66.834  1.00  0.00     0.000 HD 
BRANCH  27  29
HETATM   29  C   UNL     1     -10.028  16.987  66.914  1.00  0.00    -0.289 C  
HETATM   30  C   UNL     1     -10.296  17.052  68.422  1.00  0.00    -0.351 C  
HETATM   31  C   UNL     1      -9.700  15.874  69.189  1.00  0.00    -0.249 C  
HETATM   32  C   UNL     1      -8.216  15.695  68.886  1.00  0.00    -0.204 C  
HETATM   33  C   UNL     1      -7.960  15.570  67.388  1.00  0.00    -0.211 C  
HETATM   34  C   UNL     1      -8.541  16.754  66.617  1.00  0.00    -0.287 C  
ENDBRANCH  27  29
ENDBRANCH  25  27
ENDBRANCH  23  25
ENDBRANCH  20  23
ENDBRANCH  17  20
ENDBRANCH  13  14
ENDBRANCH  12  13
ENDBRANCH  10  12
ENDBRANCH   5   8
TORSDOF 9
ENDMDL
MODEL        2
REMARK 921   NORMALIZED FREE ENERGY PREDICTED BY IDOCK:   -7.32 KCAL/MOL
REMARK 922        TOTAL FREE ENERGY PREDICTED BY IDOCK:  -12.66 KCAL/MOL
REMARK 923 INTER-LIGAND FREE ENERGY PREDICTED BY IDOCK:  -11.53 KCAL/MOL
REMARK 924 INTRA-LIGAND FREE ENERGY PREDICTED BY IDOCK:   -1.13 KCAL/MOL
REMARK 927      BINDING AFFINITY PREDICTED BY RF-SCORE:    0.00 PKD
ROOT
HETATM    1  C   UNL     1      -8.576  18.979  68.277  1.00  0.00    -0.366 C  
HETATM    2  C   UNL     1      -9.323  18.124  67.303  1.00  0.00    -0.252 A  
HETATM    3  N   UNL     1      -9.115  16.785  67.354  1.00  0.00    -0.215 NA 
HETATM    4  C   UNL     1      -9.784  16.047  66.432  1.00  0.00    -0.284 A  
HETATM    5  C   UNL     1     -10.633  16.619  65.498  1.00  0.00    -0.258 A  
HETATM    6  C   UNL     1     -10.191  18.689  66.368  1.00  0.00    -0.425 A  
HETATM    7  N   UNL     1     -10.868  17.961  65.443  1.00  0.00    -0.498 NA 
ENDROOT
BRANCH   5   8
HETATM    8  C   UNL     1     -11.292  15.750  64.483  1.00  0.00    -0.316 C  
HETATM    9  O   UNL     1     -12.133  16.207  63.717  1.00  0.00    -0.946 OA 
HETATM   10  N   UNL     1     -10.906  14.423  64.491  1.00  0.00    -0.614 N  
HETATM   11  H   UNL     1     -10.143  14.130  65.100  1.00  0.00     0.000 HD 
BRANCH  10  12
HETATM   12  C   UNL     1     -11.561  13.439  63.652  1.00  0.00    -0.245 C  
BRANCH  12  13
HETATM   13  C   UNL     1     -10.950  12.034  63.784  1.00  0.00    -0.492 C  
BRANCH  13  14
HETATM   14  C   UNL     1     -10.888  11.501  65.204  1.00  0.00    -0.326 A  
HETATM   15  C   UNL     1     -10.019  10.459  65.562  1.00  0.00    -0.348 A  
HETATM   16  C   UNL     1     -10.004   9.947  66.860  1.00  0.00    -0.268 A  
HETATM   17  C   UNL     1     -10.818  10.511  67.840  1.00  0.00    -0.282 A  
HETATM   18  C   UNL     1     -11.658  11.582  67.520  1.00  0.00    -0.322 A  
HETATM   19  C   UNL     1     -11.685  12.076  66.211  1.00  0.00    -0.319 A  
BRANCH  17  20
HETATM   20  S   UNL     1     -10.884   9.758  69.450  1.00  0.00    -0.218 S  
HETATM   21  O   UNL     1      -9.846  10.329  70.280  1.00  0.00    -0.085 OA 
HETATM   22  O   UNL     1     -10.953   8.323  69.251  1.00  0.00    -0.110 OA 
BRANCH  20  23
HETATM   23  N   UNL     1     -12.380  10.175  70.049  1.00  0.00    -0.515 N  
HETATM   24  H   UNL     1     -13.202   9.826  69.557  1.00  0.00     0.000 HD 
BRANCH  23  25
HETATM   25  C   UNL     1     -12.587  10.962  71.167  1.00  0.00    -0.428 C  
HETATM   26  O   UNL     1     -13.126  10.555  72.183  1.00  0.00    -0.459 OA 
BRANCH  25  27
HETATM   27  N   UNL     1     -12.109  12.236  71.031  1.00  0.00    -0.350 N  
HETATM   28  H   UNL     1     -11.105  12.405  71.083  1.00  0.00     0.000 HD 
BRANCH  27  29
HETATM   29  C   UNL     1     -13.021  13.355  70.813  1.00  0.00    -0.061 C  
HETATM   30  C   UNL     1     -13.748  13.745  72.105  1.00  0.00    -0.634 C  
HETATM   31  C   UNL     1     -12.859  14.503  73.088  1.00  0.00    -0.547 C  
HETATM   32  C   UNL     1     -12.189  15.705  72.432  1.00  0.00    -0.538 C  
HETATM   33  C   UNL     1     -11.416  15.304  71.181  1.00  0.00    -0.414 C  
HETATM   34  C   UNL     1     -12.304  14.558  70.186  1.00  0.00    -0.398 C  
ENDBRANCH  27  29
ENDBRANCH  25  27
ENDBRANCH  23  25
ENDBRANCH  20  23
ENDBRANCH  17  20
ENDBRANCH  13  14
ENDBRANCH  12  13
ENDBRANCH  10  12
ENDBRANCH   5   8
TORSDOF 9
ENDMDL
MODEL        3
REMARK 921   NORMALIZED FREE ENERGY PREDICTED BY IDOCK:   -7.18 KCAL/MOL
REMARK 922        TOTAL FREE ENERGY PREDICTED BY IDOCK:  -12.45 KCAL/MOL
REMARK 923 INTER-LIGAND FREE ENERGY PREDICTED BY IDOCK:  -11.20 KCAL/MOL
REMARK 924 INTRA-LIGAND FREE ENERGY PREDICTED BY IDOCK:   -1.25 KCAL/MOL
REMARK 927      BINDING AFFINITY PREDICTED BY RF-SCORE:    0.00 PKD
ROOT
HETATM    1  C   UNL     1     -10.322  18.803  65.955  1.00  0.00    -0.467 C  
HETATM    2  C   UNL     1     -10.507  17.366  65.584  1.00  0.00    -0.165 A  
HETATM    3  N   UNL     1     -11.263  17.091  64.492  1.00  0.00    -1.059 NA 
HETATM    4  C   UNL     1     -11.435  15.775  64.208  1.00  0.00    -0.198 A  
HETATM    5  C   UNL     1     -10.872  14.769  64.978  1.00  0.00    -0.425 A  
HETATM    6  C   UNL     1      -9.931  16.347  66.344  1.00  0.00    -0.303 A  
HETATM    7  N   UNL     1     -10.094  15.027  66.069  1.00  0.00    -0.282 NA 
ENDROOT
BRANCH   5   8
HETATM    8  C   UNL     1     -11.149  13.347  64.636  1.00  0.00    -0.366 C  
HETATM    9  O   UNL     1     -12.227  12.832  64.913  1.00  0.00    -0.410 OA 
HETATM   10  N   UNL     1     -10.115  12.668  64.018  1.00  0.00    -0.589 N  
HETATM   11  H   UNL     1      -9.277  13.179  63.744  1.00  0.00     0.000 HD 
BRANCH  10  12
HETATM   12  C   UNL     1     -10.196  11.245  63.752  1.00  0.00    -0.377 C  
BRANCH  12  13
HETATM   13  C   UNL     1      -9.168  10.425  64.549  1.00  0.00    -0.287 C  
BRANCH  13  14
HETATM   14  C   UNL     1      -9.591  10.086  65.967  1.00  0.00    -0.279 A  
HETATM   15  C   UNL     1     -10.029   8.799  66.317  1.00  0.00    -0.315 A  
HETATM   16  C   UNL     1     -10.459   8.513  67.614  1.00  0.00    -0.308 A  
HETATM   17  C   UNL     1     -10.399   9.494  68.601  1.00  0.00    -0.205 A  
HETATM   18  C   UNL     1      -9.919  10.770  68.289  1.00  0.00    -0.182 A  
HETATM   19  C   UNL     1      -9.513  11.058  66.980  1.00  0.00    -0.191 A  
BRANCH  17  20
HETATM   20  S   UNL     1     -11.074   9.149  70.209  1.00  0.00    -0.219 S  
HETATM   21  O   UNL     1     -10.145   9.605  71.219  1.00  0.00    -0.218 OA 
HETATM   22  O   UNL     1     -11.523   7.770  70.199  1.00  0.00    -0.185 OA 
BRANCH  20  23
HETATM   23  N   UNL     1     -12.473  10.050  70.280  1.00  0.00    -0.512 N  
HETATM   24  H   UNL     1     -13.172   9.898  69.553  1.00  0.00     0.000 HD 
BRANCH  23  25
HETATM   25  C   UNL     1     -12.753  10.989  71.256  1.00  0.00    -0.432 C  
HETATM   26  O   UNL     1     -13.411  10.743  72.254  1.00  0.00    -0.385 OA 
BRANCH  25  27
HETATM   27  N   UNL     1     -12.204  12.215  71.004  1.00  0.00    -0.364 N  
HETATM   28  H   UNL     1     -11.190  12.323  71.006  1.00  0.00     0.000 HD 
BRANCH  27  29
HETATM   29  C   UNL     1     -13.052  13.371  70.731  1.00  0.00     0.036 C  
HETATM   30  C   UNL     1     -13.815  13.814  71.985  1.00  0.00    -0.576 C  
HETATM   31  C   UNL     1     -12.934  14.546  72.996  1.00  0.00    -0.596 C  
HETATM   32  C   UNL     1     -12.182  15.706  72.352  1.00  0.00    -0.538 C  
HETATM   33  C   UNL     1     -11.376  15.250  71.141  1.00  0.00    -0.402 C  
HETATM   34  C   UNL     1     -12.255  14.530  70.119  1.00  0.00    -0.399 C  
ENDBRANCH  27  29
ENDBRANCH  25  27
ENDBRANCH  23  25
ENDBRANCH  20  23
ENDBRANCH  17  20
ENDBRANCH  13  14
ENDBRANCH  12  13
ENDBRANCH  10  12
ENDBRANCH   5   8
TORSDOF 9
ENDMDL
MODEL        4
REMARK 921   NORMALIZED FREE ENERGY PREDICTED BY IDOCK:   -7.09 KCAL/MOL
REMARK 922        TOTAL FREE ENERGY PREDICTED BY IDOCK:  -12.32 KCAL/MOL
REMARK 923 INTER-LIGAND FREE ENERGY PREDICTED BY IDOCK:  -11.78 KCAL/MOL
REMARK 924 INTRA-LIGAND FREE ENERGY PREDICTED BY IDOCK:   -0.53 KCAL/MOL
REMARK 927      BINDING AFFINITY PREDICTED BY RF-SCORE:    0.00 PKD
ROOT
HETATM    1  C   UNL     1      -9.249   3.359  70.788  1.00  0.00    -0.203 C  
HETATM    2  C   UNL     1     -10.096   4.582  70.948  1.00  0.00    -0.158 A  
HETATM    3  N   UNL     1     -10.507   4.902  72.201  1.00  0.00    -0.206 NA 
HETATM    4  C   UNL     1     -11.301   5.998  72.300  1.00  0.00    -0.303 A  
HETATM    5  C   UNL     1     -11.669   6.751  71.195  1.00  0.00    -0.345 A  
HETATM    6  C   UNL     1     -10.459   5.354  69.845  1.00  0.00    -0.308 A  
HETATM    7  N   UNL     1     -11.251   6.454  69.931  1.00  0.00    -0.388 NA 
ENDROOT
BRANCH   5   8
HETATM    8  C   UNL     1     -12.588   7.909  71.376  1.00  0.00    -0.300 C  
HETATM    9  O   UNL     1     -13.731   7.746  71.787  1.00  0.00    -0.347 OA 
HETATM   10  N   UNL     1     -12.069   9.143  71.031  1.00  0.00    -0.363 N  
HETATM   11  H   UNL     1     -11.085   9.216  70.774  1.00  0.00     0.000 HD 
BRANCH  10  12
HETATM   12  C   UNL     1     -12.892  10.336  71.027  1.00  0.00    -0.397 C  
BRANCH  12  13
HETATM   13  C   UNL     1     -12.071  11.632  70.918  1.00  0.00    -0.312 C  
BRANCH  13  14
HETATM   14  C   UNL     1     -11.897  12.155  69.503  1.00  0.00    -0.386 A  
HETATM   15  C   UNL     1     -11.962  13.525  69.212  1.00  0.00    -0.378 A  
HETATM   16  C   UNL     1     -11.846  13.989  67.900  1.00  0.00    -0.411 A  
HETATM   17  C   UNL     1     -11.600  13.092  66.863  1.00  0.00    -0.366 A  
HETATM   18  C   UNL     1     -11.481  11.726  67.135  1.00  0.00    -0.366 A  
HETATM   19  C   UNL     1     -11.623  11.264  68.449  1.00  0.00    -0.378 A  
BRANCH  17  20
HETATM   20  S   UNL     1     -11.589  13.686  65.187  1.00  0.00    -0.334 S  
HETATM   21  O   UNL     1     -12.860  14.314  64.901  1.00  0.00    -0.680 OA 
HETATM   22  O   UNL     1     -11.106  12.604  64.351  1.00  0.00    -0.308 OA 
BRANCH  20  23
HETATM   23  N   UNL     1     -10.375  14.824  65.151  1.00  0.00    -0.406 N  
HETATM   24  H   UNL     1      -9.413  14.490  65.091  1.00  0.00     0.000 HD 
BRANCH  23  25
HETATM   25  C   UNL     1     -10.579  16.191  65.197  1.00  0.00    -0.343 C  
HETATM   26  O   UNL     1     -11.270  16.793  64.391  1.00  0.00    -1.112 OA 
BRANCH  25  27
HETATM   27  N   UNL     1      -9.948  16.800  66.246  1.00  0.00    -0.305 N  
HETATM   28  H   UNL     1      -9.057  16.432  66.580  1.00  0.00     0.000 HD 
BRANCH  27  29
HETATM   29  C   UNL     1     -10.535  17.969  66.892  1.00  0.00    -0.341 C  
HETATM   30  C   UNL     1     -10.122  18.061  68.366  1.00  0.00    -0.392 C  
HETATM   31  C   UNL     1      -8.680  18.527  68.557  1.00  0.00    -0.352 C  
HETATM   32  C   UNL     1      -8.404  19.828  67.811  1.00  0.00    -0.344 C  
HETATM   33  C   UNL     1      -8.760  19.715  66.333  1.00  0.00    -0.404 C  
HETATM   34  C   UNL     1     -10.206  19.263  66.135  1.00  0.00    -0.549 C  
ENDBRANCH  27  29
ENDBRANCH  25  27
ENDBRANCH  23  25
ENDBRANCH  20  23
ENDBRANCH  17  20
ENDBRANCH  13  14
ENDBRANCH  12  13
ENDBRANCH  10  12
ENDBRANCH   5   8
TORSDOF 9
ENDMDL
MODEL        5
REMARK 921   NORMALIZED FREE ENERGY PREDICTED BY IDOCK:   -7.07 KCAL/MOL
REMARK 922        TOTAL FREE ENERGY PREDICTED BY IDOCK:  -12.29 KCAL/MOL
REMARK 923 INTER-LIGAND FREE ENERGY PREDICTED BY IDOCK:  -10.96 KCAL/MOL
REMARK 924 INTRA-LIGAND FREE ENERGY PREDICTED BY IDOCK:   -1.33 KCAL/MOL
REMARK 927      BINDING AFFINITY PREDICTED BY RF-SCORE:    0.00 PKD
ROOT
HETATM    1  C   UNL     1     -14.303  15.327  72.296  1.00  0.00    -0.586 C  
HETATM    2  C   UNL     1     -13.548  14.178  71.707  1.00  0.00    -0.399 A  
HETATM    3  N   UNL     1     -12.768  14.426  70.625  1.00  0.00    -0.350 NA 
HETATM    4  C   UNL     1     -12.127  13.351  70.099  1.00  0.00    -0.344 A  
HETATM    5  C   UNL     1     -12.252  12.078  70.633  1.00  0.00    -0.316 A  
HETATM    6  C   UNL     1     -13.656  12.895  72.246  1.00  0.00    -0.515 A  
HETATM    7  N   UNL     1     -13.018  11.813  71.730  1.00  0.00    -0.409 NA 
ENDROOT
BRANCH   5   8
HETATM    8  C   UNL     1     -11.561  10.938  69.969  1.00  0.00    -0.341 C  
HETATM    9  O   UNL     1     -10.921  10.124  70.626  1.00  0.00    -0.308 OA 
HETATM   10  N   UNL     1     -11.676  10.888  68.593  1.00  0.00    -0.397 N  
HETATM   11  H   UNL     1     -12.291  11.550  68.120  1.00  0.00     0.000 HD 
BRANCH  10  12
HETATM   12  C   UNL     1     -10.945   9.914  67.806  1.00  0.00    -0.217 C  
BRANCH  12  13
HETATM   13  C   UNL     1     -10.562  10.434  66.411  1.00  0.00    -0.198 C  
BRANCH  13  14
HETATM   14  C   UNL     1     -10.542  11.947  66.282  1.00  0.00    -0.289 A  
HETATM   15  C   UNL     1     -11.629  12.655  65.748  1.00  0.00    -0.431 A  
HETATM   16  C   UNL     1     -11.579  14.041  65.592  1.00  0.00    -0.332 A  
HETATM   17  C   UNL     1     -10.462  14.751  66.026  1.00  0.00    -0.303 A  
HETATM   18  C   UNL     1      -9.386  14.073  66.607  1.00  0.00    -0.292 A  
HETATM   19  C   UNL     1      -9.432  12.681  66.739  1.00  0.00    -0.237 A  
BRANCH  17  20
HETATM   20  S   UNL     1     -10.362  16.496  65.697  1.00  0.00    -0.263 S  
HETATM   21  O   UNL     1     -11.212  16.813  64.571  1.00  0.00    -0.997 OA 
HETATM   22  O   UNL     1      -8.955  16.848  65.671  1.00  0.00    -0.486 OA 
BRANCH  20  23
HETATM   23  N   UNL     1     -10.955  17.219  67.074  1.00  0.00    -0.018 N  
HETATM   24  H   UNL     1     -11.881  17.643  67.026  1.00  0.00     0.000 HD 
BRANCH  23  25
HETATM   25  C   UNL     1     -10.279  17.287  68.279  1.00  0.00    -0.348 C  
HETATM   26  O   UNL     1     -10.740  16.872  69.330  1.00  0.00    -0.335 OA 
BRANCH  25  27
HETATM   27  N   UNL     1      -9.036  17.845  68.174  1.00  0.00    -0.262 N  
HETATM   28  H   UNL     1      -8.256  17.279  67.838  1.00  0.00     0.000 HD 
BRANCH  27  29
HETATM   29  C   UNL     1      -8.812  19.241  68.537  1.00  0.00    -0.369 C  
HETATM   30  C   UNL     1      -7.433  19.439  69.176  1.00  0.00    -0.342 C  
HETATM   31  C   UNL     1      -6.290  19.392  68.164  1.00  0.00    -0.253 C  
HETATM   32  C   UNL     1      -6.521  20.359  67.007  1.00  0.00    -0.272 C  
HETATM   33  C   UNL     1      -7.869  20.119  66.335  1.00  0.00    -0.294 C  
HETATM   34  C   UNL     1      -9.017  20.180  67.341  1.00  0.00    -0.453 C  
ENDBRANCH  27  29
ENDBRANCH  25  27
ENDBRANCH  23  25
ENDBRANCH  20  23
ENDBRANCH  17  20
ENDBRANCH  13  14
ENDBRANCH  12  13
ENDBRANCH  10  12
ENDBRANCH   5   8
TORSDOF 9
ENDMDL
MODEL        6
REMARK 921   NORMALIZED FREE ENERGY PREDICTED BY IDOCK:   -7.00 KCAL/MOL
REMARK 922        TOTAL FREE ENERGY PREDICTED BY IDOCK:  -12.18 KCAL/MOL
REMARK 923 INTER-LIGAND FREE ENERGY PREDICTED BY IDOCK:  -11.13 KCAL/MOL
REMARK 924 INTRA-LIGAND FREE ENERGY PREDICTED BY IDOCK:   -1.05 KCAL/MOL
REMARK 927      BINDING AFFINITY PREDICTED BY RF-SCORE:    0.00 PKD
ROOT
HETATM    1  C   UNL     1      -9.680   4.131  65.505  1.00  0.00    -0.202 C  
HETATM    2  C   UNL     1     -10.013   4.744  66.829  1.00  0.00    -0.228 A  
HETATM    3  N   UNL     1      -9.564   4.115  67.943  1.00  0.00    -0.166 NA 
HETATM    4  C   UNL     1      -9.916   4.682  69.125  1.00  0.00    -0.138 A  
HETATM    5  C   UNL     1     -10.681   5.837  69.196  1.00  0.00    -0.300 A  
HETATM    6  C   UNL     1     -10.770   5.914  66.910  1.00  0.00    -0.321 A  
HETATM    7  N   UNL     1     -11.126   6.492  68.085  1.00  0.00    -0.280 NA 
ENDROOT
BRANCH   5   8
HETATM    8  C   UNL     1     -11.073   6.371  70.529  1.00  0.00    -0.328 C  
HETATM    9  O   UNL     1     -11.019   5.664  71.530  1.00  0.00    -0.252 OA 
HETATM   10  N   UNL     1     -11.510   7.682  70.543  1.00  0.00    -0.381 N  
HETATM   11  H   UNL     1     -11.451   8.236  69.689  1.00  0.00     0.000 HD 
BRANCH  10  12
HETATM   12  C   UNL     1     -12.049   8.288  71.745  1.00  0.00    -0.319 C  
BRANCH  12  13
HETATM   13  C   UNL     1     -13.276   9.174  71.473  1.00  0.00    -0.413 C  
BRANCH  13  14
HETATM   14  C   UNL     1     -12.960  10.639  71.235  1.00  0.00    -0.513 A  
HETATM   15  C   UNL     1     -13.441  11.644  72.088  1.00  0.00    -0.238 A  
HETATM   16  C   UNL     1     -13.181  12.992  71.832  1.00  0.00    -0.527 A  
HETATM   17  C   UNL     1     -12.382  13.354  70.750  1.00  0.00    -0.354 A  
HETATM   18  C   UNL     1     -11.850  12.368  69.913  1.00  0.00    -0.376 A  
HETATM   19  C   UNL     1     -12.134  11.019  70.161  1.00  0.00    -0.438 A  
BRANCH  17  20
HETATM   20  S   UNL     1     -12.174  15.077  70.364  1.00  0.00    -0.367 S  
HETATM   21  O   UNL     1     -10.834  15.483  70.724  1.00  0.00    -0.329 OA 
HETATM   22  O   UNL     1     -13.321  15.780  70.907  1.00  0.00    -0.576 OA 
BRANCH  20  23
HETATM   23  N   UNL     1     -12.367  15.165  68.712  1.00  0.00    -0.595 N  
HETATM   24  H   UNL     1     -13.296  14.981  68.333  1.00  0.00     0.000 HD 
BRANCH  23  25
HETATM   25  C   UNL     1     -11.356  15.469  67.819  1.00  0.00    -0.286 C  
HETATM   26  O   UNL     1     -10.782  16.546  67.798  1.00  0.00    -0.330 OA 
BRANCH  25  27
HETATM   27  N   UNL     1     -11.048  14.439  66.976  1.00  0.00    -0.305 N  
HETATM   28  H   UNL     1     -10.088  14.323  66.651  1.00  0.00     0.000 HD 
BRANCH  27  29
HETATM   29  C   UNL     1     -12.078  13.502  66.535  1.00  0.00    -0.408 C  
HETATM   30  C   UNL     1     -12.839  14.039  65.318  1.00  0.00    -0.418 C  
HETATM   31  C   UNL     1     -12.035  13.952  64.022  1.00  0.00    -0.425 C  
HETATM   32  C   UNL     1     -11.503  12.544  63.781  1.00  0.00    -0.542 C  
HETATM   33  C   UNL     1     -10.695  12.036  64.970  1.00  0.00    -0.341 C  
HETATM   34  C   UNL     1     -11.500  12.106  66.267  1.00  0.00    -0.433 C  
ENDBRANCH  27  29
ENDBRANCH  25  27
ENDBRANCH  23  25
ENDBRANCH  20  23
ENDBRANCH  17  20
ENDBRANCH  13  14
ENDBRANCH  12  13
ENDBRANCH  10  12
ENDBRANCH   5   8
TORSDOF 9
ENDMDL
MODEL        7
REMARK 921   NORMALIZED FREE ENERGY PREDICTED BY IDOCK:   -7.00 KCAL/MOL
REMARK 922        TOTAL FREE ENERGY PREDICTED BY IDOCK:  -12.18 KCAL/MOL
REMARK 923 INTER-LIGAND FREE ENERGY PREDICTED BY IDOCK:  -10.51 KCAL/MOL
REMARK 924 INTRA-LIGAND FREE ENERGY PREDICTED BY IDOCK:   -1.67 KCAL/MOL
REMARK 927      BINDING AFFINITY PREDICTED BY RF-SCORE:    0.00 PKD
ROOT
HETATM    1  C   UNL     1     -10.462   4.210  73.129  1.00  0.00    -0.248 C  
HETATM    2  C   UNL     1     -10.808   5.558  72.580  1.00  0.00    -0.252 A  
HETATM    3  N   UNL     1     -11.201   5.627  71.283  1.00  0.00    -0.149 NA 
HETATM    4  C   UNL     1     -11.473   6.870  70.812  1.00  0.00    -0.335 A  
HETATM    5  C   UNL     1     -11.362   8.004  71.603  1.00  0.00    -0.262 A  
HETATM    6  C   UNL     1     -10.714   6.703  73.371  1.00  0.00    -0.289 A  
HETATM    7  N   UNL     1     -10.985   7.953  72.913  1.00  0.00    -0.400 NA 
ENDROOT
BRANCH   5   8
HETATM    8  C   UNL     1     -11.625   9.341  71.002  1.00  0.00    -0.313 C  
HETATM    9  O   UNL     1     -12.054  10.264  71.686  1.00  0.00    -0.353 OA 
HETATM   10  N   UNL     1     -11.374   9.447  69.647  1.00  0.00    -0.435 N  
HETATM   11  H   UNL     1     -10.941   8.664  69.158  1.00  0.00     0.000 HD 
BRANCH  10  12
HETATM   12  C   UNL     1     -11.712  10.646  68.905  1.00  0.00    -0.211 C  
BRANCH  12  13
HETATM   13  C   UNL     1     -10.958  10.760  67.570  1.00  0.00    -0.372 C  
BRANCH  13  14
HETATM   14  C   UNL     1     -10.770  12.180  67.068  1.00  0.00    -0.272 A  
HETATM   15  C   UNL     1      -9.505  12.786  67.031  1.00  0.00    -0.233 A  
HETATM   16  C   UNL     1      -9.351  14.108  66.610  1.00  0.00    -0.299 A  
HETATM   17  C   UNL     1     -10.456  14.828  66.160  1.00  0.00    -0.304 A  
HETATM   18  C   UNL     1     -11.719  14.230  66.141  1.00  0.00    -0.397 A  
HETATM   19  C   UNL     1     -11.870  12.912  66.587  1.00  0.00    -0.461 A  
BRANCH  17  20
HETATM   20  S   UNL     1     -10.262  16.549  65.757  1.00  0.00    -0.292 S  
HETATM   21  O   UNL     1     -11.095  16.863  64.617  1.00  0.00    -0.934 OA 
HETATM   22  O   UNL     1      -8.839  16.824  65.718  1.00  0.00    -0.505 OA 
BRANCH  20  23
HETATM   23  N   UNL     1     -10.814  17.362  67.100  1.00  0.00    -0.173 N  
HETATM   24  H   UNL     1     -11.554  18.051  66.967  1.00  0.00     0.000 HD 
BRANCH  23  25
HETATM   25  C   UNL     1     -10.340  17.169  68.385  1.00  0.00    -0.362 C  
HETATM   26  O   UNL     1      -9.209  17.466  68.734  1.00  0.00    -0.279 OA 
BRANCH  25  27
HETATM   27  N   UNL     1     -11.269  16.632  69.232  1.00  0.00    -0.283 N  
HETATM   28  H   UNL     1     -12.258  16.832  69.088  1.00  0.00     0.000 HD 
BRANCH  27  29
HETATM   29  C   UNL     1     -10.860  15.776  70.341  1.00  0.00    -0.329 C  
HETATM   30  C   UNL     1     -11.599  16.141  71.633  1.00  0.00    -0.503 C  
HETATM   31  C   UNL     1     -13.052  15.671  71.647  1.00  0.00    -0.554 C  
HETATM   32  C   UNL     1     -13.167  14.184  71.331  1.00  0.00    -0.418 C  
HETATM   33  C   UNL     1     -12.482  13.834  70.015  1.00  0.00    -0.301 C  
HETATM   34  C   UNL     1     -11.024  14.288  70.002  1.00  0.00     0.013 C  
ENDBRANCH  27  29
ENDBRANCH  25  27
ENDBRANCH  23  25
ENDBRANCH  20  23
ENDBRANCH  17  20
ENDBRANCH  13  14
ENDBRANCH  12  13
ENDBRANCH  10  12
ENDBRANCH   5   8
TORSDOF 9
ENDMDL
MODEL        8
REMARK 921   NORMALIZED FREE ENERGY PREDICTED BY IDOCK:   -7.00 KCAL/MOL
REMARK 922        TOTAL FREE ENERGY PREDICTED BY IDOCK:  -12.17 KCAL/MOL
REMARK 923 INTER-LIGAND FREE ENERGY PREDICTED BY IDOCK:  -11.39 KCAL/MOL
REMARK 924 INTRA-LIGAND FREE ENERGY PREDICTED BY IDOCK:   -0.78 KCAL/MOL
REMARK 927      BINDING AFFINITY PREDICTED BY RF-SCORE:    0.00 PKD
ROOT
HETATM    1  C   UNL     1     -10.609   4.811  74.487  1.00  0.00    -0.218 C  
HETATM    2  C   UNL     1     -10.586   4.995  73.003  1.00  0.00    -0.225 A  
HETATM    3  N   UNL     1      -9.701   4.253  72.291  1.00  0.00    -0.145 NA 
HETATM    4  C   UNL     1      -9.686   4.474  70.952  1.00  0.00    -0.193 A  
HETATM    5  C   UNL     1     -10.523   5.395  70.342  1.00  0.00    -0.275 A  
HETATM    6  C   UNL     1     -11.435   5.909  72.378  1.00  0.00    -0.306 A  
HETATM    7  N   UNL     1     -11.431   6.138  71.039  1.00  0.00    -0.292 NA 
ENDROOT
BRANCH   5   8
HETATM    8  C   UNL     1     -10.412   5.622  68.874  1.00  0.00    -0.240 C  
HETATM    9  O   UNL     1      -9.902   4.778  68.146  1.00  0.00    -0.152 OA 
HETATM   10  N   UNL     1     -10.896   6.833  68.418  1.00  0.00    -0.373 N  
HETATM   11  H   UNL     1     -11.381   7.452  69.067  1.00  0.00     0.000 HD 
BRANCH  10  12
HETATM   12  C   UNL     1     -10.730   7.244  67.037  1.00  0.00    -0.336 C  
BRANCH  12  13
HETATM   13  C   UNL     1      -9.676   8.349  66.861  1.00  0.00    -0.292 C  
BRANCH  13  14
HETATM   14  C   UNL     1     -10.219   9.664  66.331  1.00  0.00    -0.288 A  
HETATM   15  C   UNL     1     -10.911  10.561  67.158  1.00  0.00    -0.319 A  
HETATM   16  C   UNL     1     -11.445  11.746  66.648  1.00  0.00    -0.337 A  
HETATM   17  C   UNL     1     -11.242  12.083  65.312  1.00  0.00    -0.322 A  
HETATM   18  C   UNL     1     -10.513  11.228  64.479  1.00  0.00    -0.396 A  
HETATM   19  C   UNL     1     -10.000  10.030  64.991  1.00  0.00    -0.320 A  
BRANCH  17  20
HETATM   20  S   UNL     1     -12.042  13.526  64.650  1.00  0.00    -0.419 S  
HETATM   21  O   UNL     1     -13.110  13.923  65.541  1.00  0.00    -0.699 OA 
HETATM   22  O   UNL     1     -12.320  13.260  63.252  1.00  0.00    -0.721 OA 
BRANCH  20  23
HETATM   23  N   UNL     1     -10.857  14.694  64.632  1.00  0.00    -0.601 N  
HETATM   24  H   UNL     1      -9.891  14.388  64.514  1.00  0.00     0.000 HD 
BRANCH  23  25
HETATM   25  C   UNL     1     -11.090  16.051  64.765  1.00  0.00    -0.365 C  
HETATM   26  O   UNL     1     -11.681  16.715  63.929  1.00  0.00    -1.153 OA 
BRANCH  25  27
HETATM   27  N   UNL     1     -10.612  16.572  65.935  1.00  0.00    -0.306 N  
HETATM   28  H   UNL     1     -10.912  16.173  66.824  1.00  0.00     0.000 HD 
BRANCH  27  29
HETATM   29  C   UNL     1      -9.676  17.692  65.925  1.00  0.00    -0.031 C  
HETATM   30  C   UNL     1     -10.399  19.028  66.130  1.00  0.00    -0.537 C  
HETATM   31  C   UNL     1     -10.843  19.254  67.574  1.00  0.00    -0.524 C  
HETATM   32  C   UNL     1      -9.687  19.080  68.554  1.00  0.00    -0.458 C  
HETATM   33  C   UNL     1      -9.008  17.725  68.387  1.00  0.00    -0.281 C  
HETATM   34  C   UNL     1      -8.548  17.500  66.948  1.00  0.00    -0.267 C  
ENDBRANCH  27  29
ENDBRANCH  25  27
ENDBRANCH  23  25
ENDBRANCH  20  23
ENDBRANCH  17  20
ENDBRANCH  13  14
ENDBRANCH  12  13
ENDBRANCH  10  12
ENDBRANCH   5   8
TORSDOF 9
ENDMDL
MODEL        9
REMARK 921   NORMALIZED FREE ENERGY PREDICTED BY IDOCK:   -6.97 KCAL/MOL
REMARK 922        TOTAL FREE ENERGY PREDICTED BY IDOCK:  -12.13 KCAL/MOL
REMARK 923 INTER-LIGAND FREE ENERGY PREDICTED BY IDOCK:  -10.59 KCAL/MOL
REMARK 924 INTRA-LIGAND FREE ENERGY PREDICTED BY IDOCK:   -1.55 KCAL/MOL
REMARK 927      BINDING AFFINITY PREDICTED BY RF-SCORE:    0.00 PKD
ROOT
HETATM    1  C   UNL     1     -10.575   4.173  74.311  1.00  0.00    -0.287 C  
HETATM    2  C   UNL     1     -10.538   5.378  73.425  1.00  0.00    -0.258 A  
HETATM    3  N   UNL     1     -10.509   5.171  72.084  1.00  0.00    -0.217 NA 
HETATM    4  C   UNL     1     -10.441   6.287  71.315  1.00  0.00    -0.218 A  
HETATM    5  C   UNL     1     -10.410   7.563  71.858  1.00  0.00    -0.193 A  
HETATM    6  C   UNL     1     -10.521   6.666  73.961  1.00  0.00    -0.284 A  
HETATM    7  N   UNL     1     -10.456   7.790  73.203  1.00  0.00    -0.360 NA 
ENDROOT
BRANCH   5   8
HETATM    8  C   UNL     1     -10.282   8.738  70.953  1.00  0.00    -0.226 C  
HETATM    9  O   UNL     1     -11.233   9.487  70.757  1.00  0.00    -0.265 OA 
HETATM   10  N   UNL     1      -9.047   8.898  70.352  1.00  0.00    -0.173 N  
HETATM   11  H   UNL     1      -8.278   8.287  70.624  1.00  0.00     0.000 HD 
BRANCH  10  12
HETATM   12  C   UNL     1      -8.821   9.917  69.346  1.00  0.00    -0.187 C  
BRANCH  12  13
HETATM   13  C   UNL     1      -9.098   9.422  67.917  1.00  0.00    -0.136 C  
BRANCH  13  14
HETATM   14  C   UNL     1      -9.924  10.370  67.066  1.00  0.00    -0.252 A  
HETATM   15  C   UNL     1      -9.843  10.363  65.666  1.00  0.00    -0.321 A  
HETATM   16  C   UNL     1     -10.573  11.272  64.897  1.00  0.00    -0.364 A  
HETATM   17  C   UNL     1     -11.446  12.164  65.516  1.00  0.00    -0.343 A  
HETATM   18  C   UNL     1     -11.582  12.157  66.908  1.00  0.00    -0.408 A  
HETATM   19  C   UNL     1     -10.829  11.259  67.674  1.00  0.00    -0.286 A  
BRANCH  17  20
HETATM   20  S   UNL     1     -12.264  13.399  64.533  1.00  0.00    -0.388 S  
HETATM   21  O   UNL     1     -13.324  13.997  65.314  1.00  0.00    -0.741 OA 
HETATM   22  O   UNL     1     -12.555  12.800  63.245  1.00  0.00    -0.676 OA 
BRANCH  20  23
HETATM   23  N   UNL     1     -11.087  14.533  64.217  1.00  0.00    -0.604 N  
HETATM   24  H   UNL     1     -10.342  14.275  63.569  1.00  0.00     0.000 HD 
BRANCH  23  25
HETATM   25  C   UNL     1     -11.047  15.800  64.771  1.00  0.00    -0.400 C  
HETATM   26  O   UNL     1     -11.209  16.820  64.122  1.00  0.00    -1.155 OA 
BRANCH  25  27
HETATM   27  N   UNL     1     -10.830  15.795  66.121  1.00  0.00    -0.283 N  
HETATM   28  H   UNL     1     -11.477  15.302  66.734  1.00  0.00     0.000 HD 
BRANCH  27  29
HETATM   29  C   UNL     1      -9.680  16.490  66.693  1.00  0.00    -0.260 C  
HETATM   30  C   UNL     1     -10.063  17.250  67.968  1.00  0.00    -0.324 C  
HETATM   31  C   UNL     1     -10.265  16.336  69.174  1.00  0.00    -0.266 C  
HETATM   32  C   UNL     1      -9.064  15.425  69.399  1.00  0.00    -0.258 C  
HETATM   33  C   UNL     1      -8.722  14.625  68.147  1.00  0.00    -0.168 C  
HETATM   34  C   UNL     1      -8.504  15.536  66.940  1.00  0.00    -0.289 C  
ENDBRANCH  27  29
ENDBRANCH  25  27
ENDBRANCH  23  25
ENDBRANCH  20  23
ENDBRANCH  17  20
ENDBRANCH  13  14
ENDBRANCH  12  13
ENDBRANCH  10  12
ENDBRANCH   5   8
TORSDOF 9
ENDMDL
MODEL       10
REMARK 921   NORMALIZED FREE ENERGY PREDICTED BY IDOCK:   -6.95 KCAL/MOL
REMARK 922        TOTAL FREE ENERGY PREDICTED BY IDOCK:  -12.10 KCAL/MOL
REMARK 923 INTER-LIGAND FREE ENERGY PREDICTED BY IDOCK:  -11.12 KCAL/MOL
REMARK 924 INTRA-LIGAND FREE ENERGY PREDICTED BY IDOCK:   -0.98 KCAL/MOL
REMARK 927      BINDING AFFINITY PREDICTED BY RF-SCORE:    0.00 PKD
ROOT
HETATM    1  C   UNL     1      -9.837   4.196  65.291  1.00  0.00    -0.212 C  
HETATM    2  C   UNL     1     -10.144   4.747  66.648  1.00  0.00    -0.245 A  
HETATM    3  N   UNL     1     -10.798   5.933  66.712  1.00  0.00    -0.307 NA 
HETATM    4  C   UNL     1     -11.027   6.416  67.959  1.00  0.00    -0.311 A  
HETATM    5  C   UNL     1     -10.626   5.741  69.102  1.00  0.00    -0.294 A  
HETATM    6  C   UNL     1      -9.758   4.068  67.804  1.00  0.00    -0.098 A  
HETATM    7  N   UNL     1      -9.983   4.539  69.057  1.00  0.00    -0.134 NA 
ENDROOT
BRANCH   5   8
HETATM    8  C   UNL     1     -10.864   6.359  70.435  1.00  0.00    -0.286 C  
HETATM    9  O   UNL     1     -10.578   5.760  71.466  1.00  0.00    -0.229 OA 
HETATM   10  N   UNL     1     -11.439   7.616  70.418  1.00  0.00    -0.422 N  
HETATM   11  H   UNL     1     -11.575   8.089  69.525  1.00  0.00     0.000 HD 
BRANCH  10  12
HETATM   12  C   UNL     1     -11.851   8.278  71.640  1.00  0.00    -0.299 C  
BRANCH  12  13
HETATM   13  C   UNL     1     -13.140   9.099  71.474  1.00  0.00    -0.409 C  
BRANCH  13  14
HETATM   14  C   UNL     1     -12.923  10.591  71.295  1.00  0.00    -0.532 A  
HETATM   15  C   UNL     1     -13.485  11.527  72.175  1.00  0.00    -0.219 A  
HETATM   16  C   UNL     1     -13.316  12.898  71.973  1.00  0.00    -0.579 A  
HETATM   17  C   UNL     1     -12.527  13.355  70.919  1.00  0.00    -0.359 A  
HETATM   18  C   UNL     1     -11.916  12.439  70.057  1.00  0.00    -0.372 A  
HETATM   19  C   UNL     1     -12.109  11.066  70.251  1.00  0.00    -0.448 A  
BRANCH  17  20
HETATM   20  S   UNL     1     -12.434  15.101  70.599  1.00  0.00    -0.417 S  
HETATM   21  O   UNL     1     -11.190  15.612  71.130  1.00  0.00    -0.345 OA 
HETATM   22  O   UNL     1     -13.697  15.682  71.013  1.00  0.00    -0.582 OA 
BRANCH  20  23
HETATM   23  N   UNL     1     -12.434  15.226  68.939  1.00  0.00    -0.532 N  
HETATM   24  H   UNL     1     -13.312  15.048  68.450  1.00  0.00     0.000 HD 
BRANCH  23  25
HETATM   25  C   UNL     1     -11.328  15.554  68.176  1.00  0.00    -0.345 C  
HETATM   26  O   UNL     1     -10.706  14.741  67.513  1.00  0.00    -0.260 OA 
BRANCH  25  27
HETATM   27  N   UNL     1     -11.013  16.884  68.220  1.00  0.00    -0.349 N  
HETATM   28  H   UNL     1     -11.634  17.533  68.702  1.00  0.00     0.000 HD 
BRANCH  27  29
HETATM   29  C   UNL     1      -9.798  17.383  67.583  1.00  0.00    -0.282 C  
HETATM   30  C   UNL     1     -10.110  18.091  66.260  1.00  0.00    -0.363 C  
HETATM   31  C   UNL     1     -10.725  19.476  66.450  1.00  0.00    -0.528 C  
HETATM   32  C   UNL     1      -9.879  20.348  67.371  1.00  0.00    -0.587 C  
HETATM   33  C   UNL     1      -9.621  19.666  68.710  1.00  0.00    -0.444 C  
HETATM   34  C   UNL     1      -8.991  18.286  68.527  1.00  0.00    -0.329 C  
ENDBRANCH  27  29
ENDBRANCH  25  27
ENDBRANCH  23  25
ENDBRANCH  20  23
ENDBRANCH  17  20
ENDBRANCH  13  14
ENDBRANCH  12  13
ENDBRANCH  10  12
ENDBRANCH   5   8
TORSDOF 9
ENDMDL
MODEL       11
REMARK 921   NORMALIZED FREE ENERGY PREDICTED BY IDOCK:   -6.93 KCAL/MOL
REMARK 922        TOTAL FREE ENERGY PREDICTED BY IDOCK:  -12.07 KCAL/MOL
REMARK 923 INTER-LIGAND FREE ENERGY PREDICTED BY IDOCK:  -10.80 KCAL/MOL
REMARK 924 INTRA-LIGAND FREE ENERGY PREDICTED BY IDOCK:   -1.27 KCAL/MOL
REMARK 927      BINDING AFFINITY PREDICTED BY RF-SCORE:    0.00 PKD
ROOT
HETATM    1  C   UNL     1      -9.958  18.945  67.398  1.00  0.00    -0.392 C  
HETATM    2  C   UNL     1     -10.365  17.658  66.752  1.00  0.00    -0.331 A  
HETATM    3  N   UNL     1     -10.551  17.661  65.408  1.00  0.00    -0.625 NA 
HETATM    4  C   UNL     1     -10.954  16.484  64.865  1.00  0.00    -0.209 A  
HETATM    5  C   UNL     1     -11.158  15.345  65.628  1.00  0.00    -0.271 A  
HETATM    6  C   UNL     1     -10.558  16.503  67.510  1.00  0.00    -0.313 A  
HETATM    7  N   UNL     1     -10.958  15.319  66.978  1.00  0.00    -0.326 NA 
ENDROOT
BRANCH   5   8
HETATM    8  C   UNL     1     -11.651  14.104  64.969  1.00  0.00    -0.362 C  
HETATM    9  O   UNL     1     -12.806  13.724  65.129  1.00  0.00    -0.695 OA 
HETATM   10  N   UNL     1     -10.723  13.424  64.203  1.00  0.00    -0.545 N  
HETATM   11  H   UNL     1      -9.805  13.840  64.047  1.00  0.00     0.000 HD 
BRANCH  10  12
HETATM   12  C   UNL     1     -11.025  12.133  63.616  1.00  0.00    -0.461 C  
BRANCH  12  13
HETATM   13  C   UNL     1      -9.787  11.232  63.477  1.00  0.00    -0.394 C  
BRANCH  13  14
HETATM   14  C   UNL     1      -9.640  10.184  64.565  1.00  0.00    -0.376 A  
HETATM   15  C   UNL     1      -8.752   9.106  64.434  1.00  0.00    -0.184 A  
HETATM   16  C   UNL     1      -8.660   8.123  65.422  1.00  0.00    -0.154 A  
HETATM   17  C   UNL     1      -9.412   8.238  66.590  1.00  0.00    -0.209 A  
HETATM   18  C   UNL     1     -10.267   9.330  66.766  1.00  0.00    -0.325 A  
HETATM   19  C   UNL     1     -10.372  10.299  65.761  1.00  0.00    -0.236 A  
BRANCH  17  20
HETATM   20  S   UNL     1      -9.381   6.912  67.773  1.00  0.00    -0.120 S  
HETATM   21  O   UNL     1      -8.523   7.283  68.876  1.00  0.00    -0.125 OA 
HETATM   22  O   UNL     1      -9.135   5.686  67.038  1.00  0.00    -0.114 OA 
BRANCH  20  23
HETATM   23  N   UNL     1     -10.955   6.781  68.301  1.00  0.00    -0.460 N  
HETATM   24  H   UNL     1     -11.692   6.775  67.596  1.00  0.00     0.000 HD 
BRANCH  23  25
HETATM   25  C   UNL     1     -11.332   6.681  69.628  1.00  0.00    -0.329 C  
HETATM   26  O   UNL     1     -11.120   5.693  70.312  1.00  0.00    -0.278 OA 
BRANCH  25  27
HETATM   27  N   UNL     1     -11.948   7.805  70.104  1.00  0.00    -0.371 N  
HETATM   28  H   UNL     1     -12.859   8.076  69.734  1.00  0.00     0.000 HD 
BRANCH  27  29
HETATM   29  C   UNL     1     -11.315   8.621  71.136  1.00  0.00    -0.275 C  
HETATM   30  C   UNL     1     -10.812   9.952  70.567  1.00  0.00    -0.391 C  
HETATM   31  C   UNL     1     -11.935  10.951  70.294  1.00  0.00    -0.448 C  
HETATM   32  C   UNL     1     -12.816  11.157  71.521  1.00  0.00    -0.542 C  
HETATM   33  C   UNL     1     -13.364   9.836  72.049  1.00  0.00    -0.547 C  
HETATM   34  C   UNL     1     -12.244   8.838  72.338  1.00  0.00    -0.396 C  
ENDBRANCH  27  29
ENDBRANCH  25  27
ENDBRANCH  23  25
ENDBRANCH  20  23
ENDBRANCH  17  20
ENDBRANCH  13  14
ENDBRANCH  12  13
ENDBRANCH  10  12
ENDBRANCH   5   8
TORSDOF 9
ENDMDL
MODEL       12
REMARK 921   NORMALIZED FREE ENERGY PREDICTED BY IDOCK:   -6.93 KCAL/MOL
REMARK 922        TOTAL FREE ENERGY PREDICTED BY IDOCK:  -12.07 KCAL/MOL
REMARK 923 INTER-LIGAND FREE ENERGY PREDICTED BY IDOCK:  -10.58 KCAL/MOL
REMARK 924 INTRA-LIGAND FREE ENERGY PREDICTED BY IDOCK:   -1.49 KCAL/MOL
REMARK 927      BINDING AFFINITY PREDICTED BY RF-SCORE:    0.00 PKD
ROOT
HETATM    1  C   UNL     1     -12.981  15.649  73.619  1.00  0.00    -0.655 C  
HETATM    2  C   UNL     1     -12.432  15.373  72.255  1.00  0.00    -0.375 A  
HETATM    3  N   UNL     1     -11.745  16.368  71.641  1.00  0.00    -0.418 NA 
HETATM    4  C   UNL     1     -11.293  16.092  70.392  1.00  0.00    -0.391 A  
HETATM    5  C   UNL     1     -11.511  14.868  69.777  1.00  0.00    -0.295 A  
HETATM    6  C   UNL     1     -12.633  14.140  71.635  1.00  0.00    -0.337 A  
HETATM    7  N   UNL     1     -12.184  13.850  70.387  1.00  0.00    -0.347 NA 
ENDROOT
BRANCH   5   8
HETATM    8  C   UNL     1     -11.031  14.656  68.384  1.00  0.00    -0.251 C  
HETATM    9  O   UNL     1      -9.835  14.527  68.144  1.00  0.00    -0.213 OA 
HETATM   10  N   UNL     1     -12.011  14.640  67.410  1.00  0.00    -0.517 N  
HETATM   11  H   UNL     1     -12.991  14.671  67.689  1.00  0.00     0.000 HD 
BRANCH  10  12
HETATM   12  C   UNL     1     -11.677  14.578  66.000  1.00  0.00    -0.345 C  
BRANCH  12  13
HETATM   13  C   UNL     1     -12.169  13.289  65.322  1.00  0.00    -0.492 C  
BRANCH  13  14
HETATM   14  C   UNL     1     -11.489  12.020  65.804  1.00  0.00    -0.377 A  
HETATM   15  C   UNL     1     -11.661  11.545  67.112  1.00  0.00    -0.249 A  
HETATM   16  C   UNL     1     -10.993  10.402  67.557  1.00  0.00    -0.358 A  
HETATM   17  C   UNL     1     -10.189   9.679  66.679  1.00  0.00    -0.232 A  
HETATM   18  C   UNL     1     -10.042  10.105  65.355  1.00  0.00    -0.342 A  
HETATM   19  C   UNL     1     -10.694  11.265  64.922  1.00  0.00    -0.337 A  
BRANCH  17  20
HETATM   20  S   UNL     1      -9.244   8.307  67.299  1.00  0.00    -0.142 S  
HETATM   21  O   UNL     1      -8.617   8.691  68.545  1.00  0.00    -0.132 OA 
HETATM   22  O   UNL     1      -8.440   7.808  66.200  1.00  0.00    -0.123 OA 
BRANCH  20  23
HETATM   23  N   UNL     1     -10.369   7.112  67.578  1.00  0.00    -0.211 N  
HETATM   24  H   UNL     1     -10.779   6.648  66.767  1.00  0.00     0.000 HD 
BRANCH  23  25
HETATM   25  C   UNL     1     -10.787   6.703  68.831  1.00  0.00    -0.277 C  
HETATM   26  O   UNL     1     -10.553   5.596  69.288  1.00  0.00    -0.267 OA 
BRANCH  25  27
HETATM   27  N   UNL     1     -11.469   7.668  69.518  1.00  0.00    -0.383 N  
HETATM   28  H   UNL     1     -12.132   8.265  69.024  1.00  0.00     0.000 HD 
BRANCH  27  29
HETATM   29  C   UNL     1     -11.258   7.854  70.950  1.00  0.00    -0.270 C  
HETATM   30  C   UNL     1     -10.960   9.319  71.287  1.00  0.00    -0.421 C  
HETATM   31  C   UNL     1     -12.197  10.213  71.230  1.00  0.00    -0.496 C  
HETATM   32  C   UNL     1     -13.334   9.657  72.081  1.00  0.00    -0.545 C  
HETATM   33  C   UNL     1     -13.669   8.219  71.703  1.00  0.00    -0.404 C  
HETATM   34  C   UNL     1     -12.437   7.317  71.773  1.00  0.00    -0.378 C  
ENDBRANCH  27  29
ENDBRANCH  25  27
ENDBRANCH  23  25
ENDBRANCH  20  23
ENDBRANCH  17  20
ENDBRANCH  13  14
ENDBRANCH  12  13
ENDBRANCH  10  12
ENDBRANCH   5   8
TORSDOF 9
ENDMDL
MODEL       13
REMARK 921   NORMALIZED FREE ENERGY PREDICTED BY IDOCK:   -6.87 KCAL/MOL
REMARK 922        TOTAL FREE ENERGY PREDICTED BY IDOCK:  -11.98 KCAL/MOL
REMARK 923 INTER-LIGAND FREE ENERGY PREDICTED BY IDOCK:  -10.27 KCAL/MOL
REMARK 924 INTRA-LIGAND FREE ENERGY PREDICTED BY IDOCK:   -1.71 KCAL/MOL
REMARK 927      BINDING AFFINITY PREDICTED BY RF-SCORE:    0.00 PKD
ROOT
HETATM    1  C   UNL     1     -13.520  13.380  72.129  1.00  0.00    -0.646 C  
HETATM    2  C   UNL     1     -12.645  14.290  71.327  1.00  0.00    -0.364 A  
HETATM    3  N   UNL     1     -12.216  15.432  71.919  1.00  0.00    -0.342 NA 
HETATM    4  C   UNL     1     -11.453  16.248  71.148  1.00  0.00    -0.314 A  
HETATM    5  C   UNL     1     -11.124  15.936  69.837  1.00  0.00    -0.343 A  
HETATM    6  C   UNL     1     -12.296  13.978  70.012  1.00  0.00    -0.337 A  
HETATM    7  N   UNL     1     -11.532  14.784  69.231  1.00  0.00    -0.279 NA 
ENDROOT
BRANCH   5   8
HETATM    8  C   UNL     1     -10.327  16.905  69.035  1.00  0.00    -0.333 C  
HETATM    9  O   UNL     1     -10.879  17.780  68.378  1.00  0.00    -0.260 OA 
HETATM   10  N   UNL     1      -8.957  16.729  69.073  1.00  0.00    -0.232 N  
HETATM   11  H   UNL     1      -8.561  16.033  69.705  1.00  0.00     0.000 HD 
BRANCH  10  12
HETATM   12  C   UNL     1      -8.069  17.512  68.236  1.00  0.00    -0.268 C  
BRANCH  12  13
HETATM   13  C   UNL     1      -7.665  16.784  66.943  1.00  0.00    -0.254 C  
BRANCH  13  14
HETATM   14  C   UNL     1      -8.420  15.494  66.680  1.00  0.00    -0.314 A  
HETATM   15  C   UNL     1      -9.537  15.455  65.832  1.00  0.00    -0.386 A  
HETATM   16  C   UNL     1     -10.251  14.271  65.634  1.00  0.00    -0.366 A  
HETATM   17  C   UNL     1      -9.820  13.090  66.234  1.00  0.00    -0.278 A  
HETATM   18  C   UNL     1      -8.681  13.093  67.045  1.00  0.00    -0.193 A  
HETATM   19  C   UNL     1      -7.984  14.288  67.258  1.00  0.00    -0.191 A  
BRANCH  17  20
HETATM   20  S   UNL     1     -10.817  11.626  66.079  1.00  0.00    -0.277 S  
HETATM   21  O   UNL     1     -10.916  11.269  64.681  1.00  0.00    -0.294 OA 
HETATM   22  O   UNL     1     -12.017  11.838  66.865  1.00  0.00    -0.605 OA 
BRANCH  20  23
HETATM   23  N   UNL     1      -9.973  10.452  66.903  1.00  0.00    -0.198 N  
HETATM   24  H   UNL     1      -8.979  10.611  67.070  1.00  0.00     0.000 HD 
BRANCH  23  25
HETATM   25  C   UNL     1     -10.524   9.275  67.377  1.00  0.00    -0.273 C  
HETATM   26  O   UNL     1     -10.377   8.197  66.826  1.00  0.00    -0.311 OA 
BRANCH  25  27
HETATM   27  N   UNL     1     -11.231   9.435  68.536  1.00  0.00    -0.473 N  
HETATM   28  H   UNL     1     -12.172   9.048  68.610  1.00  0.00     0.000 HD 
BRANCH  27  29
HETATM   29  C   UNL     1     -10.653  10.152  69.669  1.00  0.00    -0.257 C  
HETATM   30  C   UNL     1     -11.731  10.567  70.677  1.00  0.00    -0.453 C  
HETATM   31  C   UNL     1     -12.245   9.402  71.520  1.00  0.00    -0.448 C  
HETATM   32  C   UNL     1     -11.105   8.645  72.192  1.00  0.00    -0.434 C  
HETATM   33  C   UNL     1     -10.065   8.181  71.179  1.00  0.00    -0.222 C  
HETATM   34  C   UNL     1      -9.535   9.345  70.343  1.00  0.00    -0.319 C  
ENDBRANCH  27  29
ENDBRANCH  25  27
ENDBRANCH  23  25
ENDBRANCH  20  23
ENDBRANCH  17  20
ENDBRANCH  13  14
ENDBRANCH  12  13
ENDBRANCH  10  12
ENDBRANCH   5   8
TORSDOF 9
ENDMDL
MODEL       14
REMARK 921   NORMALIZED FREE ENERGY PREDICTED BY IDOCK:   -6.87 KCAL/MOL
REMARK 922        TOTAL FREE ENERGY PREDICTED BY IDOCK:  -11.97 KCAL/MOL
REMARK 923 INTER-LIGAND FREE ENERGY PREDICTED BY IDOCK:  -10.25 KCAL/MOL
REMARK 924 INTRA-LIGAND FREE ENERGY PREDICTED BY IDOCK:   -1.72 KCAL/MOL
REMARK 927      BINDING AFFINITY PREDICTED BY RF-SCORE:    0.00 PKD
ROOT
HETATM    1  C   UNL     1     -12.562  15.965  74.374  1.00  0.00    -0.677 C  
HETATM    2  C   UNL     1     -12.485  15.405  72.989  1.00  0.00    -0.431 A  
HETATM    3  N   UNL     1     -13.036  14.184  72.774  1.00  0.00    -0.490 NA 
HETATM    4  C   UNL     1     -12.916  13.695  71.513  1.00  0.00    -0.360 A  
HETATM    5  C   UNL     1     -12.277  14.396  70.502  1.00  0.00    -0.341 A  
HETATM    6  C   UNL     1     -11.857  16.109  71.962  1.00  0.00    -0.530 A  
HETATM    7  N   UNL     1     -11.733  15.632  70.696  1.00  0.00    -0.334 NA 
ENDROOT
BRANCH   5   8
HETATM    8  C   UNL     1     -12.138  13.772  69.158  1.00  0.00    -0.333 C  
HETATM    9  O   UNL     1     -11.990  12.561  69.040  1.00  0.00    -0.289 OA 
HETATM   10  N   UNL     1     -12.166  14.646  68.087  1.00  0.00    -0.596 N  
HETATM   11  H   UNL     1     -12.374  15.630  68.253  1.00  0.00     0.000 HD 
BRANCH  10  12
HETATM   12  C   UNL     1     -11.906  14.195  66.734  1.00  0.00    -0.425 C  
BRANCH  12  13
HETATM   13  C   UNL     1     -10.407  14.026  66.434  1.00  0.00    -0.289 C  
BRANCH  13  14
HETATM   14  C   UNL     1      -9.942  12.586  66.317  1.00  0.00    -0.263 A  
HETATM   15  C   UNL     1     -10.454  11.724  65.336  1.00  0.00    -0.317 A  
HETATM   16  C   UNL     1     -10.052  10.389  65.268  1.00  0.00    -0.370 A  
HETATM   17  C   UNL     1      -9.082   9.909  66.145  1.00  0.00    -0.158 A  
HETATM   18  C   UNL     1      -8.521  10.761  67.101  1.00  0.00    -0.126 A  
HETATM   19  C   UNL     1      -8.946  12.093  67.178  1.00  0.00    -0.189 A  
BRANCH  17  20
HETATM   20  S   UNL     1      -8.683   8.176  66.131  1.00  0.00    -0.163 S  
HETATM   21  O   UNL     1      -7.871   7.870  67.288  1.00  0.00    -0.109 OA 
HETATM   22  O   UNL     1      -8.205   7.856  64.800  1.00  0.00    -0.148 OA 
BRANCH  20  23
HETATM   23  N   UNL     1     -10.152   7.404  66.252  1.00  0.00    -0.459 N  
HETATM   24  H   UNL     1     -10.777   7.446  65.446  1.00  0.00     0.000 HD 
BRANCH  23  25
HETATM   25  C   UNL     1     -10.586   6.709  67.366  1.00  0.00    -0.301 C  
HETATM   26  O   UNL     1     -10.611   5.491  67.429  1.00  0.00    -0.232 OA 
BRANCH  25  27
HETATM   27  N   UNL     1     -10.962   7.521  68.399  1.00  0.00    -0.431 N  
HETATM   28  H   UNL     1     -11.683   8.227  68.249  1.00  0.00     0.000 HD 
BRANCH  27  29
HETATM   29  C   UNL     1     -10.345   7.388  69.716  1.00  0.00    -0.222 C  
HETATM   30  C   UNL     1      -9.793   8.729  70.213  1.00  0.00    -0.198 C  
HETATM   31  C   UNL     1     -10.883   9.688  70.687  1.00  0.00    -0.386 C  
HETATM   32  C   UNL     1     -11.800   9.036  71.717  1.00  0.00    -0.442 C  
HETATM   33  C   UNL     1     -12.395   7.733  71.196  1.00  0.00    -0.268 C  
HETATM   34  C   UNL     1     -11.308   6.763  70.735  1.00  0.00    -0.374 C  
ENDBRANCH  27  29
ENDBRANCH  25  27
ENDBRANCH  23  25
ENDBRANCH  20  23
ENDBRANCH  17  20
ENDBRANCH  13  14
ENDBRANCH  12  13
ENDBRANCH  10  12
ENDBRANCH   5   8
TORSDOF 9
ENDMDL
MODEL       15
REMARK 921   NORMALIZED FREE ENERGY PREDICTED BY IDOCK:   -6.84 KCAL/MOL
REMARK 922        TOTAL FREE ENERGY PREDICTED BY IDOCK:  -11.93 KCAL/MOL
REMARK 923 INTER-LIGAND FREE ENERGY PREDICTED BY IDOCK:  -10.67 KCAL/MOL
REMARK 924 INTRA-LIGAND FREE ENERGY PREDICTED BY IDOCK:   -1.27 KCAL/MOL
REMARK 927      BINDING AFFINITY PREDICTED BY RF-SCORE:    0.00 PKD
ROOT
HETATM    1  C   UNL     1     -14.154   8.837  72.523  1.00  0.00    -0.421 C  
HETATM    2  C   UNL     1     -12.774   8.986  71.965  1.00  0.00    -0.398 A  
HETATM    3  N   UNL     1     -12.556  10.001  71.093  1.00  0.00    -0.352 NA 
HETATM    4  C   UNL     1     -11.301  10.083  70.582  1.00  0.00    -0.348 A  
HETATM    5  C   UNL     1     -10.298   9.191  70.930  1.00  0.00    -0.280 A  
HETATM    6  C   UNL     1     -11.755   8.102  72.321  1.00  0.00    -0.379 A  
HETATM    7  N   UNL     1     -10.495   8.175  71.819  1.00  0.00    -0.227 NA 
ENDROOT
BRANCH   5   8
HETATM    8  C   UNL     1      -8.960   9.311  70.287  1.00  0.00    -0.229 C  
HETATM    9  O   UNL     1      -7.991   9.707  70.925  1.00  0.00    -0.307 OA 
HETATM   10  N   UNL     1      -8.907   8.971  68.949  1.00  0.00    -0.138 N  
HETATM   11  H   UNL     1      -9.733   8.572  68.503  1.00  0.00     0.000 HD 
BRANCH  10  12
HETATM   12  C   UNL     1      -7.704   9.168  68.164  1.00  0.00    -0.092 C  
BRANCH  12  13
HETATM   13  C   UNL     1      -7.969   9.176  66.650  1.00  0.00    -0.104 C  
BRANCH  13  14
HETATM   14  C   UNL     1      -8.995  10.195  66.190  1.00  0.00    -0.171 A  
HETATM   15  C   UNL     1      -9.352  11.292  66.989  1.00  0.00    -0.183 A  
HETATM   16  C   UNL     1     -10.331  12.197  66.575  1.00  0.00    -0.239 A  
HETATM   17  C   UNL     1     -10.927  12.054  65.324  1.00  0.00    -0.308 A  
HETATM   18  C   UNL     1     -10.553  10.997  64.489  1.00  0.00    -0.383 A  
HETATM   19  C   UNL     1      -9.588  10.079  64.920  1.00  0.00    -0.375 A  
BRANCH  17  20
HETATM   20  S   UNL     1     -12.264  13.135  64.873  1.00  0.00    -0.446 S  
HETATM   21  O   UNL     1     -12.870  13.664  66.075  1.00  0.00    -0.364 OA 
HETATM   22  O   UNL     1     -13.075  12.432  63.897  1.00  0.00    -0.763 OA 
BRANCH  20  23
HETATM   23  N   UNL     1     -11.541  14.365  64.016  1.00  0.00    -0.637 N  
HETATM   24  H   UNL     1     -11.240  14.165  63.061  1.00  0.00     0.000 HD 
BRANCH  23  25
HETATM   25  C   UNL     1     -11.319  15.639  64.506  1.00  0.00    -0.320 C  
HETATM   26  O   UNL     1     -11.613  16.653  63.895  1.00  0.00    -1.204 OA 
BRANCH  25  27
HETATM   27  N   UNL     1     -10.755  15.651  65.751  1.00  0.00    -0.336 N  
HETATM   28  H   UNL     1     -11.112  15.024  66.472  1.00  0.00     0.000 HD 
BRANCH  27  29
HETATM   29  C   UNL     1      -9.649  16.551  66.061  1.00  0.00    -0.290 C  
HETATM   30  C   UNL     1     -10.063  17.618  67.080  1.00  0.00    -0.330 C  
HETATM   31  C   UNL     1     -10.179  17.076  68.503  1.00  0.00    -0.324 C  
HETATM   32  C   UNL     1      -8.913  16.345  68.934  1.00  0.00    -0.256 C  
HETATM   33  C   UNL     1      -8.537  15.243  67.949  1.00  0.00    -0.153 C  
HETATM   34  C   UNL     1      -8.404  15.783  66.526  1.00  0.00    -0.313 C  
ENDBRANCH  27  29
ENDBRANCH  25  27
ENDBRANCH  23  25
ENDBRANCH  20  23
ENDBRANCH  17  20
ENDBRANCH  13  14
ENDBRANCH  12  13
ENDBRANCH  10  12
ENDBRANCH   5   8
TORSDOF 9
ENDMDL
MODEL       16
REMARK 921   NORMALIZED FREE ENERGY PREDICTED BY IDOCK:   -6.76 KCAL/MOL
REMARK 922        TOTAL FREE ENERGY PREDICTED BY IDOCK:  -11.81 KCAL/MOL
REMARK 923 INTER-LIGAND FREE ENERGY PREDICTED BY IDOCK:  -10.15 KCAL/MOL
REMARK 924 INTRA-LIGAND FREE ENERGY PREDICTED BY IDOCK:   -1.67 KCAL/MOL
REMARK 927      BINDING AFFINITY PREDICTED BY RF-SCORE:    0.00 PKD
ROOT
HETATM    1  C   UNL     1      -9.034   2.492  65.364  1.00  0.00    -0.131 C  
HETATM    2  C   UNL     1      -9.436   3.576  66.313  1.00  0.00    -0.144 A  
HETATM    3  N   UNL     1      -9.046   3.455  67.606  1.00  0.00    -0.152 NA 
HETATM    4  C   UNL     1      -9.459   4.440  68.443  1.00  0.00    -0.154 A  
HETATM    5  C   UNL     1     -10.227   5.510  68.009  1.00  0.00    -0.181 A  
HETATM    6  C   UNL     1     -10.196   4.664  65.882  1.00  0.00    -0.276 A  
HETATM    7  N   UNL     1     -10.613   5.658  66.709  1.00  0.00    -0.290 NA 
ENDROOT
BRANCH   5   8
HETATM    8  C   UNL     1     -10.688   6.526  68.996  1.00  0.00    -0.278 C  
HETATM    9  O   UNL     1     -11.579   6.264  69.797  1.00  0.00    -0.436 OA 
HETATM   10  N   UNL     1     -10.064   7.756  68.924  1.00  0.00    -0.190 N  
HETATM   11  H   UNL     1      -9.275   7.879  68.289  1.00  0.00     0.000 HD 
BRANCH  10  12
HETATM   12  C   UNL     1     -10.504   8.878  69.730  1.00  0.00    -0.212 C  
BRANCH  12  13
HETATM   13  C   UNL     1      -9.767  10.185  69.395  1.00  0.00    -0.247 C  
BRANCH  13  14
HETATM   14  C   UNL     1     -10.403  11.004  68.286  1.00  0.00    -0.197 A  
HETATM   15  C   UNL     1     -11.369  11.985  68.557  1.00  0.00    -0.323 A  
HETATM   16  C   UNL     1     -11.980  12.699  67.524  1.00  0.00    -0.314 A  
HETATM   17  C   UNL     1     -11.587  12.487  66.204  1.00  0.00    -0.395 A  
HETATM   18  C   UNL     1     -10.590  11.551  65.913  1.00  0.00    -0.318 A  
HETATM   19  C   UNL     1      -9.999  10.821  66.951  1.00  0.00    -0.240 A  
BRANCH  17  20
HETATM   20  S   UNL     1     -12.468  13.308  64.896  1.00  0.00    -0.387 S  
HETATM   21  O   UNL     1     -13.561  14.064  65.465  1.00  0.00    -0.596 OA 
HETATM   22  O   UNL     1     -12.723  12.320  63.865  1.00  0.00    -0.668 OA 
BRANCH  20  23
HETATM   23  N   UNL     1     -11.353  14.345  64.223  1.00  0.00    -0.619 N  
HETATM   24  H   UNL     1     -10.736  13.974  63.500  1.00  0.00     0.000 HD 
BRANCH  23  25
HETATM   25  C   UNL     1     -11.205  15.675  64.574  1.00  0.00    -0.325 C  
HETATM   26  O   UNL     1     -11.552  16.600  63.859  1.00  0.00    -1.204 OA 
BRANCH  25  27
HETATM   27  N   UNL     1     -10.651  15.851  65.811  1.00  0.00    -0.348 N  
HETATM   28  H   UNL     1     -11.257  15.964  66.624  1.00  0.00     0.000 HD 
BRANCH  27  29
HETATM   29  C   UNL     1      -9.202  15.877  65.982  1.00  0.00    -0.337 C  
HETATM   30  C   UNL     1      -8.740  17.183  66.640  1.00  0.00    -0.281 C  
HETATM   31  C   UNL     1      -9.039  17.240  68.137  1.00  0.00    -0.257 C  
HETATM   32  C   UNL     1      -8.498  16.016  68.868  1.00  0.00    -0.232 C  
HETATM   33  C   UNL     1      -9.008  14.720  68.248  1.00  0.00    -0.181 C  
HETATM   34  C   UNL     1      -8.697  14.650  66.754  1.00  0.00    -0.233 C  
ENDBRANCH  27  29
ENDBRANCH  25  27
ENDBRANCH  23  25
ENDBRANCH  20  23
ENDBRANCH  17  20
ENDBRANCH  13  14
ENDBRANCH  12  13
ENDBRANCH  10  12
ENDBRANCH   5   8
TORSDOF 9
ENDMDL
MODEL       17
REMARK 921   NORMALIZED FREE ENERGY PREDICTED BY IDOCK:   -6.75 KCAL/MOL
REMARK 922        TOTAL FREE ENERGY PREDICTED BY IDOCK:  -11.80 KCAL/MOL
REMARK 923 INTER-LIGAND FREE ENERGY PREDICTED BY IDOCK:  -10.32 KCAL/MOL
REMARK 924 INTRA-LIGAND FREE ENERGY PREDICTED BY IDOCK:   -1.48 KCAL/MOL
REMARK 927      BINDING AFFINITY PREDICTED BY RF-SCORE:    0.00 PKD
ROOT
HETATM    1  C   UNL     1     -10.858   2.616  73.724  1.00  0.00    -0.293 C  
HETATM    2  C   UNL     1     -10.749   3.864  72.905  1.00  0.00    -0.120 A  
HETATM    3  N   UNL     1     -11.524   4.919  73.263  1.00  0.00    -0.333 NA 
HETATM    4  C   UNL     1     -11.423   6.020  72.476  1.00  0.00    -0.290 A  
HETATM    5  C   UNL     1     -10.579   6.072  71.377  1.00  0.00    -0.246 A  
HETATM    6  C   UNL     1      -9.892   3.931  71.807  1.00  0.00    -0.179 A  
HETATM    7  N   UNL     1      -9.780   5.028  71.013  1.00  0.00    -0.173 NA 
ENDROOT
BRANCH   5   8
HETATM    8  C   UNL     1     -10.561   7.296  70.529  1.00  0.00    -0.222 C  
HETATM    9  O   UNL     1     -10.789   7.230  69.326  1.00  0.00    -0.220 OA 
HETATM   10  N   UNL     1     -10.255   8.473  71.184  1.00  0.00    -0.201 N  
HETATM   11  H   UNL     1     -10.157   8.468  72.199  1.00  0.00     0.000 HD 
BRANCH  10  12
HETATM   12  C   UNL     1     -10.069   9.716  70.461  1.00  0.00    -0.274 C  
BRANCH  12  13
HETATM   13  C   UNL     1     -11.394  10.423  70.130  1.00  0.00    -0.397 C  
BRANCH  13  14
HETATM   14  C   UNL     1     -11.413  11.138  68.791  1.00  0.00    -0.366 A  
HETATM   15  C   UNL     1     -11.856  12.464  68.671  1.00  0.00    -0.348 A  
HETATM   16  C   UNL     1     -11.912  13.096  67.427  1.00  0.00    -0.379 A  
HETATM   17  C   UNL     1     -11.466  12.430  66.288  1.00  0.00    -0.371 A  
HETATM   18  C   UNL     1     -10.974  11.125  66.389  1.00  0.00    -0.248 A  
HETATM   19  C   UNL     1     -10.943  10.489  67.635  1.00  0.00    -0.375 A  
BRANCH  17  20
HETATM   20  S   UNL     1     -11.670  13.200  64.699  1.00  0.00    -0.384 S  
HETATM   21  O   UNL     1     -12.829  12.633  64.045  1.00  0.00    -0.700 OA 
HETATM   22  O   UNL     1     -10.378  13.177  64.041  1.00  0.00    -0.396 OA 
BRANCH  20  23
HETATM   23  N   UNL     1     -11.943  14.806  65.040  1.00  0.00    -0.349 N  
HETATM   24  H   UNL     1     -12.859  15.064  65.407  1.00  0.00     0.000 HD 
BRANCH  23  25
HETATM   25  C   UNL     1     -11.015  15.816  64.862  1.00  0.00    -0.427 C  
HETATM   26  O   UNL     1     -11.197  16.771  64.124  1.00  0.00    -1.155 OA 
BRANCH  25  27
HETATM   27  N   UNL     1      -9.882  15.651  65.609  1.00  0.00    -0.339 N  
HETATM   28  H   UNL     1      -9.328  14.801  65.503  1.00  0.00     0.000 HD 
BRANCH  27  29
HETATM   29  C   UNL     1      -9.457  16.677  66.555  1.00  0.00    -0.266 C  
HETATM   30  C   UNL     1     -10.620  17.139  67.440  1.00  0.00    -0.297 C  
HETATM   31  C   UNL     1     -10.993  16.126  68.520  1.00  0.00    -0.338 C  
HETATM   32  C   UNL     1      -9.781  15.713  69.349  1.00  0.00    -0.292 C  
HETATM   33  C   UNL     1      -8.647  15.197  68.470  1.00  0.00    -0.163 C  
HETATM   34  C   UNL     1      -8.260  16.214  67.397  1.00  0.00    -0.185 C  
ENDBRANCH  27  29
ENDBRANCH  25  27
ENDBRANCH  23  25
ENDBRANCH  20  23
ENDBRANCH  17  20
ENDBRANCH  13  14
ENDBRANCH  12  13
ENDBRANCH  10  12
ENDBRANCH   5   8
TORSDOF 9
ENDMDL
MODEL       18
REMARK 921   NORMALIZED FREE ENERGY PREDICTED BY IDOCK:   -6.75 KCAL/MOL
REMARK 922        TOTAL FREE ENERGY PREDICTED BY IDOCK:  -11.80 KCAL/MOL
REMARK 923 INTER-LIGAND FREE ENERGY PREDICTED BY IDOCK:  -10.69 KCAL/MOL
REMARK 924 INTRA-LIGAND FREE ENERGY PREDICTED BY IDOCK:   -1.11 KCAL/MOL
REMARK 927      BINDING AFFINITY PREDICTED BY RF-SCORE:    0.00 PKD
ROOT
HETATM    1  C   UNL     1      -7.308  19.397  67.926  1.00  0.00    -0.295 C  
HETATM    2  C   UNL     1      -8.271  18.605  67.099  1.00  0.00    -0.252 A  
HETATM    3  N   UNL     1      -9.446  19.196  66.764  1.00  0.00    -0.316 NA 
HETATM    4  C   UNL     1     -10.307  18.434  66.044  1.00  0.00    -0.375 A  
HETATM    5  C   UNL     1     -10.010  17.134  65.665  1.00  0.00    -0.015 A  
HETATM    6  C   UNL     1      -7.975  17.301  66.701  1.00  0.00    -0.261 A  
HETATM    7  N   UNL     1      -8.827  16.529  65.978  1.00  0.00    -0.463 NA 
ENDROOT
BRANCH   5   8
HETATM    8  C   UNL     1     -11.027  16.340  64.921  1.00  0.00    -0.307 C  
HETATM    9  O   UNL     1     -11.649  16.835  63.988  1.00  0.00    -1.195 OA 
HETATM   10  N   UNL     1     -11.221  15.047  65.369  1.00  0.00    -0.354 N  
HETATM   11  H   UNL     1     -10.612  14.675  66.097  1.00  0.00     0.000 HD 
BRANCH  10  12
HETATM   12  C   UNL     1     -12.272  14.208  64.828  1.00  0.00    -0.440 C  
BRANCH  12  13
HETATM   13  C   UNL     1     -11.734  13.008  64.032  1.00  0.00    -0.497 C  
BRANCH  13  14
HETATM   14  C   UNL     1     -11.182  11.879  64.883  1.00  0.00    -0.350 A  
HETATM   15  C   UNL     1     -11.435  11.805  66.261  1.00  0.00    -0.296 A  
HETATM   16  C   UNL     1     -10.884  10.787  67.041  1.00  0.00    -0.311 A  
HETATM   17  C   UNL     1     -10.118   9.788  66.443  1.00  0.00    -0.243 A  
HETATM   18  C   UNL     1      -9.893   9.813  65.063  1.00  0.00    -0.243 A  
HETATM   19  C   UNL     1     -10.428  10.850  64.291  1.00  0.00    -0.405 A  
BRANCH  17  20
HETATM   20  S   UNL     1      -9.316   8.579  67.470  1.00  0.00    -0.146 S  
HETATM   21  O   UNL     1      -8.610   9.258  68.534  1.00  0.00    -0.126 OA 
HETATM   22  O   UNL     1      -8.609   7.668  66.590  1.00  0.00    -0.123 OA 
BRANCH  20  23
HETATM   23  N   UNL     1     -10.560   7.673  68.106  1.00  0.00    -0.352 N  
HETATM   24  H   UNL     1     -11.381   7.519  67.521  1.00  0.00     0.000 HD 
BRANCH  23  25
HETATM   25  C   UNL     1     -10.558   7.115  69.371  1.00  0.00    -0.233 C  
HETATM   26  O   UNL     1      -9.757   6.267  69.729  1.00  0.00    -0.158 OA 
BRANCH  25  27
HETATM   27  N   UNL     1     -11.528   7.623  70.190  1.00  0.00    -0.472 N  
HETATM   28  H   UNL     1     -12.507   7.399  70.010  1.00  0.00     0.000 HD 
BRANCH  27  29
HETATM   29  C   UNL     1     -11.179   8.481  71.318  1.00  0.00    -0.265 C  
HETATM   30  C   UNL     1     -11.014   9.941  70.880  1.00  0.00    -0.392 C  
HETATM   31  C   UNL     1     -12.344  10.639  70.605  1.00  0.00    -0.462 C  
HETATM   32  C   UNL     1     -13.305  10.507  71.781  1.00  0.00    -0.446 C  
HETATM   33  C   UNL     1     -13.514   9.049  72.175  1.00  0.00    -0.514 C  
HETATM   34  C   UNL     1     -12.188   8.349  72.467  1.00  0.00    -0.381 C  
ENDBRANCH  27  29
ENDBRANCH  25  27
ENDBRANCH  23  25
ENDBRANCH  20  23
ENDBRANCH  17  20
ENDBRANCH  13  14
ENDBRANCH  12  13
ENDBRANCH  10  12
ENDBRANCH   5   8
TORSDOF 9
ENDMDL
MODEL       19
REMARK 921   NORMALIZED FREE ENERGY PREDICTED BY IDOCK:   -6.73 KCAL/MOL
REMARK 922        TOTAL FREE ENERGY PREDICTED BY IDOCK:  -11.77 KCAL/MOL
REMARK 923 INTER-LIGAND FREE ENERGY PREDICTED BY IDOCK:  -10.52 KCAL/MOL
REMARK 924 INTRA-LIGAND FREE ENERGY PREDICTED BY IDOCK:   -1.25 KCAL/MOL
REMARK 927      BINDING AFFINITY PREDICTED BY RF-SCORE:    0.00 PKD
ROOT
HETATM    1  C   UNL     1     -13.927  15.822  72.391  1.00  0.00    -0.506 C  
HETATM    2  C   UNL     1     -13.426  14.493  71.924  1.00  0.00    -0.378 A  
HETATM    3  N   UNL     1     -13.938  13.385  72.515  1.00  0.00    -0.751 NA 
HETATM    4  C   UNL     1     -13.433  12.199  72.088  1.00  0.00    -0.278 A  
HETATM    5  C   UNL     1     -12.459  12.118  71.105  1.00  0.00    -0.234 A  
HETATM    6  C   UNL     1     -12.456  14.400  70.924  1.00  0.00    -0.354 A  
HETATM    7  N   UNL     1     -11.946  13.220  70.487  1.00  0.00    -0.295 NA 
ENDROOT
BRANCH   5   8
HETATM    8  C   UNL     1     -11.915  10.785  70.726  1.00  0.00    -0.362 C  
HETATM    9  O   UNL     1     -12.641   9.797  70.694  1.00  0.00    -0.224 OA 
HETATM   10  N   UNL     1     -10.563  10.749  70.444  1.00  0.00    -0.315 N  
HETATM   11  H   UNL     1     -10.037  11.622  70.411  1.00  0.00     0.000 HD 
BRANCH  10  12
HETATM   12  C   UNL     1      -9.874   9.498  70.194  1.00  0.00    -0.244 C  
BRANCH  12  13
HETATM   13  C   UNL     1      -8.655   9.657  69.270  1.00  0.00    -0.153 C  
BRANCH  13  14
HETATM   14  C   UNL     1      -8.992   9.987  67.827  1.00  0.00    -0.133 A  
HETATM   15  C   UNL     1      -9.674   9.078  67.004  1.00  0.00    -0.247 A  
HETATM   16  C   UNL     1      -9.937   9.375  65.666  1.00  0.00    -0.210 A  
HETATM   17  C   UNL     1      -9.576  10.615  65.144  1.00  0.00    -0.251 A  
HETATM   18  C   UNL     1      -8.940  11.557  65.958  1.00  0.00    -0.181 A  
HETATM   19  C   UNL     1      -8.658  11.244  67.292  1.00  0.00    -0.143 A  
BRANCH  17  20
HETATM   20  S   UNL     1      -9.799  10.922  63.407  1.00  0.00    -0.378 S  
HETATM   21  O   UNL     1      -9.256   9.810  62.658  1.00  0.00    -0.281 OA 
HETATM   22  O   UNL     1      -9.337  12.272  63.147  1.00  0.00    -0.102 OA 
BRANCH  20  23
HETATM   23  N   UNL     1     -11.449  10.991  63.199  1.00  0.00    -0.474 N  
HETATM   24  H   UNL     1     -11.896  10.226  62.694  1.00  0.00     0.000 HD 
BRANCH  23  25
HETATM   25  C   UNL     1     -12.257  12.014  63.661  1.00  0.00    -0.538 C  
HETATM   26  O   UNL     1     -13.424  11.855  63.978  1.00  0.00    -0.600 OA 
BRANCH  25  27
HETATM   27  N   UNL     1     -11.613  13.217  63.750  1.00  0.00    -0.568 N  
HETATM   28  H   UNL     1     -10.703  13.335  63.307  1.00  0.00     0.000 HD 
BRANCH  27  29
HETATM   29  C   UNL     1     -12.215  14.333  64.473  1.00  0.00    -0.455 C  
HETATM   30  C   UNL     1     -12.662  13.914  65.878  1.00  0.00    -0.466 C  
HETATM   31  C   UNL     1     -11.498  13.752  66.855  1.00  0.00    -0.368 C  
HETATM   32  C   UNL     1     -10.613  14.993  66.889  1.00  0.00    -0.297 C  
HETATM   33  C   UNL     1     -10.121  15.371  65.496  1.00  0.00    -0.405 C  
HETATM   34  C   UNL     1     -11.282  15.551  64.519  1.00  0.00    -0.327 C  
ENDBRANCH  27  29
ENDBRANCH  25  27
ENDBRANCH  23  25
ENDBRANCH  20  23
ENDBRANCH  17  20
ENDBRANCH  13  14
ENDBRANCH  12  13
ENDBRANCH  10  12
ENDBRANCH   5   8
TORSDOF 9
ENDMDL
MODEL       20
REMARK 921   NORMALIZED FREE ENERGY PREDICTED BY IDOCK:   -6.72 KCAL/MOL
REMARK 922        TOTAL FREE ENERGY PREDICTED BY IDOCK:  -11.76 KCAL/MOL
REMARK 923 INTER-LIGAND FREE ENERGY PREDICTED BY IDOCK:  -10.31 KCAL/MOL
REMARK 924 INTRA-LIGAND FREE ENERGY PREDICTED BY IDOCK:   -1.44 KCAL/MOL
REMARK 927      BINDING AFFINITY PREDICTED BY RF-SCORE:    0.00 PKD
ROOT
HETATM    1  C   UNL     1      -9.116   6.558  72.508  1.00  0.00    -0.137 C  
HETATM    2  C   UNL     1     -10.106   7.624  72.157  1.00  0.00    -0.196 A  
HETATM    3  N   UNL     1      -9.748   8.525  71.208  1.00  0.00    -0.189 NA 
HETATM    4  C   UNL     1     -10.658   9.496  70.942  1.00  0.00    -0.325 A  
HETATM    5  C   UNL     1     -11.881   9.566  71.591  1.00  0.00    -0.397 A  
HETATM    6  C   UNL     1     -11.345   7.693  72.794  1.00  0.00    -0.367 A  
HETATM    7  N   UNL     1     -12.265   8.658  72.535  1.00  0.00    -0.359 NA 
ENDROOT
BRANCH   5   8
HETATM    8  C   UNL     1     -12.807  10.691  71.285  1.00  0.00    -0.434 C  
HETATM    9  O   UNL     1     -13.284  10.824  70.163  1.00  0.00    -0.060 OA 
HETATM   10  N   UNL     1     -13.059  11.560  72.330  1.00  0.00    -0.417 N  
HETATM   11  H   UNL     1     -12.693  11.343  73.257  1.00  0.00     0.000 HD 
BRANCH  10  12
HETATM   12  C   UNL     1     -13.830  12.772  72.138  1.00  0.00    -0.237 C  
BRANCH  12  13
HETATM   13  C   UNL     1     -13.038  14.048  72.470  1.00  0.00    -0.547 C  
BRANCH  13  14
HETATM   14  C   UNL     1     -12.360  14.700  71.279  1.00  0.00    -0.407 A  
HETATM   15  C   UNL     1     -12.364  14.102  70.010  1.00  0.00    -0.403 A  
HETATM   16  C   UNL     1     -11.697  14.690  68.934  1.00  0.00    -0.343 A  
HETATM   17  C   UNL     1     -11.065  15.921  69.095  1.00  0.00    -0.302 A  
HETATM   18  C   UNL     1     -11.088  16.561  70.338  1.00  0.00    -0.138 A  
HETATM   19  C   UNL     1     -11.738  15.955  71.419  1.00  0.00    -0.530 A  
BRANCH  17  20
HETATM   20  S   UNL     1     -10.109  16.586  67.752  1.00  0.00    -0.272 S  
HETATM   21  O   UNL     1      -9.026  15.677  67.447  1.00  0.00    -0.187 OA 
HETATM   22  O   UNL     1      -9.829  17.974  68.070  1.00  0.00    -0.294 OA 
BRANCH  20  23
HETATM   23  N   UNL     1     -11.170  16.651  66.471  1.00  0.00     0.291 N  
HETATM   24  H   UNL     1     -12.036  17.175  66.598  1.00  0.00     0.000 HD 
BRANCH  23  25
HETATM   25  C   UNL     1     -10.961  16.043  65.246  1.00  0.00    -0.299 C  
HETATM   26  O   UNL     1     -11.037  16.635  64.182  1.00  0.00    -1.005 OA 
BRANCH  25  27
HETATM   27  N   UNL     1     -10.639  14.718  65.345  1.00  0.00    -0.349 N  
HETATM   28  H   UNL     1      -9.668  14.446  65.500  1.00  0.00     0.000 HD 
BRANCH  27  29
HETATM   29  C   UNL     1     -11.669  13.690  65.233  1.00  0.00    -0.334 C  
HETATM   30  C   UNL     1     -11.776  13.160  63.799  1.00  0.00    -0.519 C  
HETATM   31  C   UNL     1     -10.630  12.225  63.417  1.00  0.00    -0.427 C  
HETATM   32  C   UNL     1     -10.463  11.095  64.427  1.00  0.00    -0.418 C  
HETATM   33  C   UNL     1     -10.296  11.628  65.845  1.00  0.00    -0.289 C  
HETATM   34  C   UNL     1     -11.448  12.551  66.238  1.00  0.00    -0.421 C  
ENDBRANCH  27  29
ENDBRANCH  25  27
ENDBRANCH  23  25
ENDBRANCH  20  23
ENDBRANCH  17  20
ENDBRANCH  13  14
ENDBRANCH  12  13
ENDBRANCH  10  12
ENDBRANCH   5   8
TORSDOF 9
ENDMDL
MODEL       21
REMARK 921   NORMALIZED FREE ENERGY PREDICTED BY IDOCK:   -6.72 KCAL/MOL
REMARK 922        TOTAL FREE ENERGY PREDICTED BY IDOCK:  -11.74 KCAL/MOL
REMARK 923 INTER-LIGAND FREE ENERGY PREDICTED BY IDOCK:   -9.48 KCAL/MOL
REMARK 924 INTRA-LIGAND FREE ENERGY PREDICTED BY IDOCK:   -2.26 KCAL/MOL
REMARK 927      BINDING AFFINITY PREDICTED BY RF-SCORE:    0.00 PKD
ROOT
HETATM    1  C   UNL     1     -10.358  19.574  67.681  1.00  0.00    -0.574 C  
HETATM    2  C   UNL     1     -10.519  18.189  67.138  1.00  0.00    -0.378 A  
HETATM    3  N   UNL     1     -10.430  18.027  65.794  1.00  0.00    -0.601 NA 
HETATM    4  C   UNL     1     -10.616  16.763  65.337  1.00  0.00    -0.203 A  
HETATM    5  C   UNL     1     -10.875  15.697  66.186  1.00  0.00    -0.264 A  
HETATM    6  C   UNL     1     -10.765  17.108  67.985  1.00  0.00    -0.372 A  
HETATM    7  N   UNL     1     -10.950  15.838  67.540  1.00  0.00    -0.315 NA 
ENDROOT
BRANCH   5   8
HETATM    8  C   UNL     1     -11.121  14.347  65.607  1.00  0.00    -0.321 C  
HETATM    9  O   UNL     1     -12.263  13.942  65.421  1.00  0.00    -0.393 OA 
HETATM   10  N   UNL     1      -9.991  13.603  65.325  1.00  0.00    -0.535 N  
HETATM   11  H   UNL     1      -9.072  14.033  65.428  1.00  0.00     0.000 HD 
BRANCH  10  12
HETATM   12  C   UNL     1     -10.083  12.224  64.887  1.00  0.00    -0.250 C  
BRANCH  12  13
HETATM   13  C   UNL     1      -9.181  11.275  65.694  1.00  0.00    -0.231 C  
BRANCH  13  14
HETATM   14  C   UNL     1      -9.723  10.895  67.060  1.00  0.00    -0.203 A  
HETATM   15  C   UNL     1      -8.871  10.564  68.124  1.00  0.00    -0.134 A  
HETATM   16  C   UNL     1      -9.383  10.171  69.362  1.00  0.00    -0.235 A  
HETATM   17  C   UNL     1     -10.760  10.163  69.575  1.00  0.00    -0.249 A  
HETATM   18  C   UNL     1     -11.628  10.536  68.545  1.00  0.00    -0.222 A  
HETATM   19  C   UNL     1     -11.109  10.906  67.299  1.00  0.00    -0.350 A  
BRANCH  17  20
HETATM   20  S   UNL     1     -11.395   9.532  71.111  1.00  0.00    -0.398 S  
HETATM   21  O   UNL     1     -12.425  10.424  71.598  1.00  0.00    -0.391 OA 
HETATM   22  O   UNL     1     -10.255   9.210  71.948  1.00  0.00    -0.332 OA 
BRANCH  20  23
HETATM   23  N   UNL     1     -12.063   8.059  70.719  1.00  0.00    -0.495 N  
HETATM   24  H   UNL     1     -12.985   8.058  70.283  1.00  0.00     0.000 HD 
BRANCH  23  25
HETATM   25  C   UNL     1     -11.456   6.837  70.942  1.00  0.00    -0.334 C  
HETATM   26  O   UNL     1     -11.926   5.979  71.672  1.00  0.00    -0.205 OA 
BRANCH  25  27
HETATM   27  N   UNL     1     -10.289   6.675  70.250  1.00  0.00    -0.198 N  
HETATM   28  H   UNL     1      -9.472   7.232  70.501  1.00  0.00     0.000 HD 
BRANCH  27  29
HETATM   29  C   UNL     1     -10.199   5.714  69.154  1.00  0.00    -0.236 C  
HETATM   30  C   UNL     1     -11.049   6.150  67.956  1.00  0.00    -0.316 C  
HETATM   31  C   UNL     1     -10.424   7.296  67.162  1.00  0.00    -0.394 C  
HETATM   32  C   UNL     1      -8.988   6.984  66.754  1.00  0.00    -0.145 C  
HETATM   33  C   UNL     1      -8.131   6.608  67.957  1.00  0.00    -0.110 C  
HETATM   34  C   UNL     1      -8.743   5.452  68.746  1.00  0.00    -0.098 C  
ENDBRANCH  27  29
ENDBRANCH  25  27
ENDBRANCH  23  25
ENDBRANCH  20  23
ENDBRANCH  17  20
ENDBRANCH  13  14
ENDBRANCH  12  13
ENDBRANCH  10  12
ENDBRANCH   5   8
TORSDOF 9
ENDMDL
MODEL       22
REMARK 921   NORMALIZED FREE ENERGY PREDICTED BY IDOCK:   -6.64 KCAL/MOL
REMARK 922        TOTAL FREE ENERGY PREDICTED BY IDOCK:  -11.63 KCAL/MOL
REMARK 923 INTER-LIGAND FREE ENERGY PREDICTED BY IDOCK:   -9.17 KCAL/MOL
REMARK 924 INTRA-LIGAND FREE ENERGY PREDICTED BY IDOCK:   -2.47 KCAL/MOL
REMARK 927      BINDING AFFINITY PREDICTED BY RF-SCORE:    0.00 PKD
ROOT
HETATM    1  C   UNL     1     -13.264   8.749  71.591  1.00  0.00    -0.399 C  
HETATM    2  C   UNL     1     -13.003  10.195  71.312  1.00  0.00    -0.413 A  
HETATM    3  N   UNL     1     -12.253  10.500  70.223  1.00  0.00    -0.309 NA 
HETATM    4  C   UNL     1     -12.010  11.820  70.023  1.00  0.00    -0.344 A  
HETATM    5  C   UNL     1     -12.500  12.802  70.870  1.00  0.00    -0.283 A  
HETATM    6  C   UNL     1     -13.504  11.192  72.150  1.00  0.00    -0.088 A  
HETATM    7  N   UNL     1     -13.271  12.516  71.959  1.00  0.00    -0.466 NA 
ENDROOT
BRANCH   5   8
HETATM    8  C   UNL     1     -12.147  14.226  70.616  1.00  0.00    -0.346 C  
HETATM    9  O   UNL     1     -12.937  15.126  70.883  1.00  0.00    -0.379 OA 
HETATM   10  N   UNL     1     -10.905  14.443  70.051  1.00  0.00    -0.461 N  
HETATM   11  H   UNL     1     -10.268  13.656  69.931  1.00  0.00     0.000 HD 
BRANCH  10  12
HETATM   12  C   UNL     1     -10.486  15.764  69.626  1.00  0.00    -0.289 C  
BRANCH  12  13
HETATM   13  C   UNL     1     -11.147  16.210  68.311  1.00  0.00    -0.348 C  
BRANCH  13  14
HETATM   14  C   UNL     1     -11.092  15.183  67.194  1.00  0.00    -0.335 A  
HETATM   15  C   UNL     1     -12.076  14.192  67.056  1.00  0.00    -0.449 A  
HETATM   16  C   UNL     1     -11.989  13.225  66.053  1.00  0.00    -0.473 A  
HETATM   17  C   UNL     1     -10.947  13.270  65.130  1.00  0.00    -0.299 A  
HETATM   18  C   UNL     1      -9.980  14.277  65.217  1.00  0.00    -0.313 A  
HETATM   19  C   UNL     1     -10.060  15.230  66.240  1.00  0.00    -0.297 A  
BRANCH  17  20
HETATM   20  S   UNL     1     -10.780  11.955  63.946  1.00  0.00    -0.442 S  
HETATM   21  O   UNL     1      -9.706  12.277  63.032  1.00  0.00    -0.269 OA 
HETATM   22  O   UNL     1     -12.107  11.664  63.438  1.00  0.00    -0.441 OA 
BRANCH  20  23
HETATM   23  N   UNL     1     -10.370  10.620  64.853  1.00  0.00    -0.313 N  
HETATM   24  H   UNL     1     -11.116  10.146  65.361  1.00  0.00     0.000 HD 
BRANCH  23  25
HETATM   25  C   UNL     1      -9.090  10.110  64.965  1.00  0.00    -0.205 C  
HETATM   26  O   UNL     1      -8.794   8.968  64.656  1.00  0.00    -0.175 OA 
BRANCH  25  27
HETATM   27  N   UNL     1      -8.183  11.018  65.437  1.00  0.00    -0.359 N  
HETATM   28  H   UNL     1      -7.961  11.844  64.882  1.00  0.00     0.000 HD 
BRANCH  27  29
HETATM   29  C   UNL     1      -7.529  10.817  66.727  1.00  0.00    -0.129 C  
HETATM   30  C   UNL     1      -6.431  11.858  66.966  1.00  0.00    -0.136 C  
HETATM   31  C   UNL     1      -6.979  13.239  67.322  1.00  0.00     0.003 C  
HETATM   32  C   UNL     1      -7.959  13.173  68.488  1.00  0.00    -0.094 C  
HETATM   33  C   UNL     1      -9.084  12.180  68.222  1.00  0.00    -0.191 C  
HETATM   34  C   UNL     1      -8.542  10.793  67.880  1.00  0.00    -0.125 C  
ENDBRANCH  27  29
ENDBRANCH  25  27
ENDBRANCH  23  25
ENDBRANCH  20  23
ENDBRANCH  17  20
ENDBRANCH  13  14
ENDBRANCH  12  13
ENDBRANCH  10  12
ENDBRANCH   5   8
TORSDOF 9
ENDMDL
MODEL       23
REMARK 921   NORMALIZED FREE ENERGY PREDICTED BY IDOCK:   -6.64 KCAL/MOL
REMARK 922        TOTAL FREE ENERGY PREDICTED BY IDOCK:  -11.62 KCAL/MOL
REMARK 923 INTER-LIGAND FREE ENERGY PREDICTED BY IDOCK:  -10.25 KCAL/MOL
REMARK 924 INTRA-LIGAND FREE ENERGY PREDICTED BY IDOCK:   -1.37 KCAL/MOL
REMARK 927      BINDING AFFINITY PREDICTED BY RF-SCORE:    0.00 PKD
ROOT
HETATM    1  C   UNL     1      -7.810  19.176  68.335  1.00  0.00    -0.370 C  
HETATM    2  C   UNL     1      -8.611  18.375  67.358  1.00  0.00    -0.257 A  
HETATM    3  N   UNL     1      -9.802  18.884  66.955  1.00  0.00    -0.313 NA 
HETATM    4  C   UNL     1     -10.515  18.112  66.095  1.00  0.00    -0.364 A  
HETATM    5  C   UNL     1     -10.057  16.881  65.649  1.00  0.00    -0.150 A  
HETATM    6  C   UNL     1      -8.153  17.142  66.891  1.00  0.00    -0.216 A  
HETATM    7  N   UNL     1      -8.855  16.362  66.030  1.00  0.00    -0.442 NA 
ENDROOT
BRANCH   5   8
HETATM    8  C   UNL     1     -10.919  16.066  64.748  1.00  0.00    -0.356 C  
HETATM    9  O   UNL     1     -11.666  16.604  63.938  1.00  0.00    -1.153 OA 
HETATM   10  N   UNL     1     -10.828  14.697  64.911  1.00  0.00    -0.445 N  
HETATM   11  H   UNL     1     -10.127  14.316  65.547  1.00  0.00     0.000 HD 
BRANCH  10  12
HETATM   12  C   UNL     1     -11.705  13.789  64.199  1.00  0.00    -0.364 C  
BRANCH  12  13
HETATM   13  C   UNL     1     -12.445  12.814  65.130  1.00  0.00    -0.565 C  
BRANCH  13  14
HETATM   14  C   UNL     1     -11.550  12.059  66.096  1.00  0.00    -0.371 A  
HETATM   15  C   UNL     1     -10.556  11.178  65.644  1.00  0.00    -0.286 A  
HETATM   16  C   UNL     1      -9.771  10.454  66.543  1.00  0.00    -0.241 A  
HETATM   17  C   UNL     1      -9.926  10.647  67.914  1.00  0.00    -0.166 A  
HETATM   18  C   UNL     1     -10.876  11.556  68.389  1.00  0.00    -0.250 A  
HETATM   19  C   UNL     1     -11.677  12.261  67.482  1.00  0.00    -0.402 A  
BRANCH  17  20
HETATM   20  S   UNL     1      -9.012   9.621  69.043  1.00  0.00    -0.156 S  
HETATM   21  O   UNL     1      -9.591   9.740  70.363  1.00  0.00    -0.252 OA 
HETATM   22  O   UNL     1      -7.605   9.901  68.835  1.00  0.00    -0.077 OA 
BRANCH  20  23
HETATM   23  N   UNL     1      -9.225   8.072  68.470  1.00  0.00    -0.136 N  
HETATM   24  H   UNL     1      -8.392   7.545  68.208  1.00  0.00     0.000 HD 
BRANCH  23  25
HETATM   25  C   UNL     1     -10.452   7.450  68.324  1.00  0.00    -0.189 C  
HETATM   26  O   UNL     1     -10.728   6.726  67.382  1.00  0.00    -0.253 OA 
BRANCH  25  27
HETATM   27  N   UNL     1     -11.318   7.709  69.349  1.00  0.00    -0.428 N  
HETATM   28  H   UNL     1     -11.672   8.656  69.483  1.00  0.00     0.000 HD 
BRANCH  27  29
HETATM   29  C   UNL     1     -11.740   6.645  70.255  1.00  0.00    -0.371 C  
HETATM   30  C   UNL     1     -10.536   5.925  70.873  1.00  0.00    -0.305 C  
HETATM   31  C   UNL     1      -9.841   6.741  71.961  1.00  0.00    -0.166 C  
HETATM   32  C   UNL     1     -10.824   7.214  73.026  1.00  0.00    -0.367 C  
HETATM   33  C   UNL     1     -11.990   7.983  72.414  1.00  0.00    -0.405 C  
HETATM   34  C   UNL     1     -12.699   7.165  71.335  1.00  0.00    -0.433 C  
ENDBRANCH  27  29
ENDBRANCH  25  27
ENDBRANCH  23  25
ENDBRANCH  20  23
ENDBRANCH  17  20
ENDBRANCH  13  14
ENDBRANCH  12  13
ENDBRANCH  10  12
ENDBRANCH   5   8
TORSDOF 9
ENDMDL
MODEL       24
REMARK 921   NORMALIZED FREE ENERGY PREDICTED BY IDOCK:   -6.63 KCAL/MOL
REMARK 922        TOTAL FREE ENERGY PREDICTED BY IDOCK:  -11.62 KCAL/MOL
REMARK 923 INTER-LIGAND FREE ENERGY PREDICTED BY IDOCK:  -10.28 KCAL/MOL
REMARK 924 INTRA-LIGAND FREE ENERGY PREDICTED BY IDOCK:   -1.34 KCAL/MOL
REMARK 927      BINDING AFFINITY PREDICTED BY RF-SCORE:    0.00 PKD
ROOT
HETATM    1  C   UNL     1     -10.770   7.071  73.474  1.00  0.00    -0.368 C  
HETATM    2  C   UNL     1     -10.703   7.101  71.980  1.00  0.00    -0.214 A  
HETATM    3  N   UNL     1     -11.501   6.242  71.297  1.00  0.00    -0.303 NA 
HETATM    4  C   UNL     1     -11.386   6.275  69.946  1.00  0.00    -0.434 A  
HETATM    5  C   UNL     1     -10.515   7.136  69.295  1.00  0.00    -0.211 A  
HETATM    6  C   UNL     1      -9.840   7.973  71.316  1.00  0.00    -0.163 A  
HETATM    7  N   UNL     1      -9.718   8.018  69.964  1.00  0.00    -0.172 NA 
ENDROOT
BRANCH   5   8
HETATM    8  C   UNL     1     -10.405   7.078  67.811  1.00  0.00    -0.202 C  
HETATM    9  O   UNL     1     -11.222   6.452  67.145  1.00  0.00    -0.370 OA 
HETATM   10  N   UNL     1      -9.327   7.748  67.265  1.00  0.00    -0.140 N  
HETATM   11  H   UNL     1      -8.734   8.315  67.870  1.00  0.00     0.000 HD 
BRANCH  10  12
HETATM   12  C   UNL     1      -9.020   7.664  65.851  1.00  0.00    -0.103 C  
BRANCH  12  13
HETATM   13  C   UNL     1      -8.412   8.959  65.289  1.00  0.00    -0.185 C  
BRANCH  13  14
HETATM   14  C   UNL     1      -9.416  10.066  65.020  1.00  0.00    -0.339 A  
HETATM   15  C   UNL     1      -9.742  10.462  63.714  1.00  0.00    -0.351 A  
HETATM   16  C   UNL     1     -10.632  11.512  63.481  1.00  0.00    -0.487 A  
HETATM   17  C   UNL     1     -11.260  12.144  64.553  1.00  0.00    -0.331 A  
HETATM   18  C   UNL     1     -10.989  11.734  65.862  1.00  0.00    -0.354 A  
HETATM   19  C   UNL     1     -10.077  10.696  66.090  1.00  0.00    -0.306 A  
BRANCH  17  20
HETATM   20  S   UNL     1     -12.284  13.563  64.243  1.00  0.00    -0.370 S  
HETATM   21  O   UNL     1     -13.097  13.823  65.411  1.00  0.00    -0.727 OA 
HETATM   22  O   UNL     1     -12.909  13.368  62.948  1.00  0.00    -0.416 OA 
BRANCH  20  23
HETATM   23  N   UNL     1     -11.212  14.815  64.011  1.00  0.00    -0.372 N  
HETATM   24  H   UNL     1     -10.565  14.746  63.225  1.00  0.00     0.000 HD 
BRANCH  23  25
HETATM   25  C   UNL     1     -11.135  15.942  64.809  1.00  0.00    -0.384 C  
HETATM   26  O   UNL     1     -11.312  17.074  64.389  1.00  0.00    -1.140 OA 
BRANCH  25  27
HETATM   27  N   UNL     1     -10.864  15.662  66.119  1.00  0.00    -0.298 N  
HETATM   28  H   UNL     1     -11.589  15.793  66.824  1.00  0.00     0.000 HD 
BRANCH  27  29
HETATM   29  C   UNL     1      -9.546  15.178  66.520  1.00  0.00    -0.271 C  
HETATM   30  C   UNL     1      -8.488  16.281  66.415  1.00  0.00    -0.365 C  
HETATM   31  C   UNL     1      -8.583  17.314  67.536  1.00  0.00    -0.213 C  
HETATM   32  C   UNL     1      -8.579  16.656  68.912  1.00  0.00    -0.235 C  
HETATM   33  C   UNL     1      -9.672  15.600  69.033  1.00  0.00    -0.241 C  
HETATM   34  C   UNL     1      -9.572  14.556  67.923  1.00  0.00    -0.217 C  
ENDBRANCH  27  29
ENDBRANCH  25  27
ENDBRANCH  23  25
ENDBRANCH  20  23
ENDBRANCH  17  20
ENDBRANCH  13  14
ENDBRANCH  12  13
ENDBRANCH  10  12
ENDBRANCH   5   8
TORSDOF 9
ENDMDL
MODEL       25
REMARK 921   NORMALIZED FREE ENERGY PREDICTED BY IDOCK:   -6.60 KCAL/MOL
REMARK 922        TOTAL FREE ENERGY PREDICTED BY IDOCK:  -11.57 KCAL/MOL
REMARK 923 INTER-LIGAND FREE ENERGY PREDICTED BY IDOCK:  -10.42 KCAL/MOL
REMARK 924 INTRA-LIGAND FREE ENERGY PREDICTED BY IDOCK:   -1.15 KCAL/MOL
REMARK 927      BINDING AFFINITY PREDICTED BY RF-SCORE:    0.00 PKD
ROOT
HETATM    1  C   UNL     1     -11.278   3.931  73.477  1.00  0.00    -0.312 C  
HETATM    2  C   UNL     1     -10.722   4.988  72.577  1.00  0.00    -0.212 A  
HETATM    3  N   UNL     1     -11.497   6.074  72.330  1.00  0.00    -0.302 NA 
HETATM    4  C   UNL     1     -10.972   6.994  71.482  1.00  0.00    -0.234 A  
HETATM    5  C   UNL     1      -9.720   6.844  70.905  1.00  0.00    -0.178 A  
HETATM    6  C   UNL     1      -9.457   4.853  72.004  1.00  0.00    -0.143 A  
HETATM    7  N   UNL     1      -8.920   5.767  71.156  1.00  0.00    -0.138 NA 
ENDROOT
BRANCH   5   8
HETATM    8  C   UNL     1      -9.232   7.870  69.942  1.00  0.00    -0.153 C  
HETATM    9  O   UNL     1      -9.232   9.059  70.239  1.00  0.00    -0.171 OA 
HETATM   10  N   UNL     1      -8.813   7.388  68.716  1.00  0.00    -0.131 N  
HETATM   11  H   UNL     1      -8.763   6.381  68.567  1.00  0.00     0.000 HD 
BRANCH  10  12
HETATM   12  C   UNL     1      -8.443   8.283  67.637  1.00  0.00    -0.130 C  
BRANCH  12  13
HETATM   13  C   UNL     1      -9.498   8.348  66.521  1.00  0.00    -0.284 C  
BRANCH  13  14
HETATM   14  C   UNL     1     -10.180   9.696  66.372  1.00  0.00    -0.288 A  
HETATM   15  C   UNL     1     -10.183  10.389  65.152  1.00  0.00    -0.326 A  
HETATM   16  C   UNL     1     -10.773  11.649  65.039  1.00  0.00    -0.351 A  
HETATM   17  C   UNL     1     -11.427  12.212  66.134  1.00  0.00    -0.371 A  
HETATM   18  C   UNL     1     -11.480  11.519  67.347  1.00  0.00    -0.349 A  
HETATM   19  C   UNL     1     -10.865  10.267  67.460  1.00  0.00    -0.355 A  
BRANCH  17  20
HETATM   20  S   UNL     1     -12.054  13.870  66.009  1.00  0.00    -0.459 S  
HETATM   21  O   UNL     1     -12.049  14.476  67.323  1.00  0.00    -0.392 OA 
HETATM   22  O   UNL     1     -13.281  13.809  65.238  1.00  0.00    -0.755 OA 
BRANCH  20  23
HETATM   23  N   UNL     1     -10.971  14.658  65.020  1.00  0.00    -0.380 N  
HETATM   24  H   UNL     1     -10.299  14.089  64.505  1.00  0.00     0.000 HD 
BRANCH  23  25
HETATM   25  C   UNL     1     -10.917  16.029  64.848  1.00  0.00    -0.384 C  
HETATM   26  O   UNL     1     -11.489  16.613  63.942  1.00  0.00    -1.186 OA 
BRANCH  25  27
HETATM   27  N   UNL     1     -10.179  16.668  65.804  1.00  0.00    -0.333 N  
HETATM   28  H   UNL     1      -9.208  16.397  65.957  1.00  0.00     0.000 HD 
BRANCH  27  29
HETATM   29  C   UNL     1     -10.766  17.735  66.610  1.00  0.00    -0.122 C  
HETATM   30  C   UNL     1     -10.407  17.580  68.092  1.00  0.00    -0.375 C  
HETATM   31  C   UNL     1      -8.964  17.972  68.404  1.00  0.00    -0.286 C  
HETATM   32  C   UNL     1      -8.634  19.368  67.885  1.00  0.00    -0.351 C  
HETATM   33  C   UNL     1      -8.936  19.500  66.396  1.00  0.00    -0.410 C  
HETATM   34  C   UNL     1     -10.382  19.124  66.080  1.00  0.00    -0.561 C  
ENDBRANCH  27  29
ENDBRANCH  25  27
ENDBRANCH  23  25
ENDBRANCH  20  23
ENDBRANCH  17  20
ENDBRANCH  13  14
ENDBRANCH  12  13
ENDBRANCH  10  12
ENDBRANCH   5   8
TORSDOF 9
ENDMDL
MODEL       26
REMARK 921   NORMALIZED FREE ENERGY PREDICTED BY IDOCK:   -6.58 KCAL/MOL
REMARK 922        TOTAL FREE ENERGY PREDICTED BY IDOCK:  -11.53 KCAL/MOL
REMARK 923 INTER-LIGAND FREE ENERGY PREDICTED BY IDOCK:  -10.29 KCAL/MOL
REMARK 924 INTRA-LIGAND FREE ENERGY PREDICTED BY IDOCK:   -1.25 KCAL/MOL
REMARK 927      BINDING AFFINITY PREDICTED BY RF-SCORE:    0.00 PKD
ROOT
HETATM    1  C   UNL     1      -7.894  19.444  69.092  1.00  0.00    -0.253 C  
HETATM    2  C   UNL     1      -8.609  18.618  68.070  1.00  0.00    -0.299 A  
HETATM    3  N   UNL     1      -9.854  18.176  68.377  1.00  0.00    -0.350 NA 
HETATM    4  C   UNL     1     -10.455  17.401  67.439  1.00  0.00    -0.336 A  
HETATM    5  C   UNL     1      -9.843  17.082  66.237  1.00  0.00    -0.294 A  
HETATM    6  C   UNL     1      -8.007  18.304  66.851  1.00  0.00    -0.236 A  
HETATM    7  N   UNL     1      -8.599  17.532  65.903  1.00  0.00    -0.533 NA 
ENDROOT
BRANCH   5   8
HETATM    8  C   UNL     1     -10.543  16.182  65.279  1.00  0.00    -0.369 C  
HETATM    9  O   UNL     1     -11.308  16.637  64.435  1.00  0.00    -1.023 OA 
HETATM   10  N   UNL     1     -10.285  14.833  65.428  1.00  0.00    -0.367 N  
HETATM   11  H   UNL     1      -9.576  14.532  66.096  1.00  0.00     0.000 HD 
BRANCH  10  12
HETATM   12  C   UNL     1     -10.999  13.835  64.656  1.00  0.00    -0.400 C  
BRANCH  12  13
HETATM   13  C   UNL     1     -12.208  13.248  65.403  1.00  0.00    -0.501 C  
BRANCH  13  14
HETATM   14  C   UNL     1     -11.855  12.402  66.613  1.00  0.00    -0.394 A  
HETATM   15  C   UNL     1     -11.227  11.154  66.481  1.00  0.00    -0.151 A  
HETATM   16  C   UNL     1     -10.949  10.366  67.599  1.00  0.00    -0.374 A  
HETATM   17  C   UNL     1     -11.239  10.841  68.876  1.00  0.00    -0.268 A  
HETATM   18  C   UNL     1     -11.820  12.102  69.037  1.00  0.00    -0.361 A  
HETATM   19  C   UNL     1     -12.118  12.878  67.911  1.00  0.00    -0.209 A  
BRANCH  17  20
HETATM   20  S   UNL     1     -11.002   9.769  70.275  1.00  0.00    -0.319 S  
HETATM   21  O   UNL     1     -11.666  10.340  71.425  1.00  0.00    -0.341 OA 
HETATM   22  O   UNL     1      -9.589   9.446  70.334  1.00  0.00    -0.230 OA 
BRANCH  20  23
HETATM   23  N   UNL     1     -11.745   8.343  69.844  1.00  0.00    -0.297 N  
HETATM   24  H   UNL     1     -12.694   8.396  69.474  1.00  0.00     0.000 HD 
BRANCH  23  25
HETATM   25  C   UNL     1     -11.166   7.091  69.952  1.00  0.00    -0.246 C  
HETATM   26  O   UNL     1     -11.208   6.255  69.065  1.00  0.00    -0.375 OA 
BRANCH  25  27
HETATM   27  N   UNL     1     -10.523   6.892  71.142  1.00  0.00    -0.212 N  
HETATM   28  H   UNL     1      -9.504   6.873  71.167  1.00  0.00     0.000 HD 
BRANCH  27  29
HETATM   29  C   UNL     1     -11.280   6.704  72.376  1.00  0.00    -0.267 C  
HETATM   30  C   UNL     1     -11.409   5.219  72.733  1.00  0.00    -0.342 C  
HETATM   31  C   UNL     1     -10.118   4.622  73.291  1.00  0.00    -0.201 C  
HETATM   32  C   UNL     1      -9.576   5.440  74.458  1.00  0.00    -0.173 C  
HETATM   33  C   UNL     1      -9.393   6.905  74.081  1.00  0.00    -0.267 C  
HETATM   34  C   UNL     1     -10.685   7.512  73.537  1.00  0.00    -0.299 C  
ENDBRANCH  27  29
ENDBRANCH  25  27
ENDBRANCH  23  25
ENDBRANCH  20  23
ENDBRANCH  17  20
ENDBRANCH  13  14
ENDBRANCH  12  13
ENDBRANCH  10  12
ENDBRANCH   5   8
TORSDOF 9
ENDMDL
MODEL       27
REMARK 921   NORMALIZED FREE ENERGY PREDICTED BY IDOCK:   -6.57 KCAL/MOL
REMARK 922        TOTAL FREE ENERGY PREDICTED BY IDOCK:  -11.53 KCAL/MOL
REMARK 923 INTER-LIGAND FREE ENERGY PREDICTED BY IDOCK:  -10.16 KCAL/MOL
REMARK 924 INTRA-LIGAND FREE ENERGY PREDICTED BY IDOCK:   -1.37 KCAL/MOL
REMARK 927      BINDING AFFINITY PREDICTED BY RF-SCORE:    0.00 PKD
ROOT
HETATM    1  C   UNL     1      -9.303  20.826  67.300  1.00  0.00    -0.418 C  
HETATM    2  C   UNL     1      -9.793  19.416  67.380  1.00  0.00    -0.345 A  
HETATM    3  N   UNL     1      -9.953  18.875  68.613  1.00  0.00    -0.399 NA 
HETATM    4  C   UNL     1     -10.366  17.582  68.643  1.00  0.00    -0.369 A  
HETATM    5  C   UNL     1     -10.617  16.856  67.489  1.00  0.00    -0.307 A  
HETATM    6  C   UNL     1     -10.062  18.681  66.224  1.00  0.00    -0.400 A  
HETATM    7  N   UNL     1     -10.478  17.388  66.241  1.00  0.00    -0.315 NA 
ENDROOT
BRANCH   5   8
HETATM    8  C   UNL     1     -11.016  15.425  67.600  1.00  0.00    -0.315 C  
HETATM    9  O   UNL     1     -10.862  14.655  66.659  1.00  0.00    -0.300 OA 
HETATM   10  N   UNL     1     -11.578  15.053  68.807  1.00  0.00    -0.319 N  
HETATM   11  H   UNL     1     -11.601  15.725  69.574  1.00  0.00     0.000 HD 
BRANCH  10  12
HETATM   12  C   UNL     1     -12.135  13.730  69.007  1.00  0.00    -0.322 C  
BRANCH  12  13
HETATM   13  C   UNL     1     -12.313  13.371  70.492  1.00  0.00    -0.401 C  
BRANCH  13  14
HETATM   14  C   UNL     1     -12.294  11.882  70.790  1.00  0.00    -0.416 A  
HETATM   15  C   UNL     1     -11.425  11.009  70.119  1.00  0.00    -0.383 A  
HETATM   16  C   UNL     1     -11.449   9.635  70.370  1.00  0.00    -0.325 A  
HETATM   17  C   UNL     1     -12.302   9.120  71.344  1.00  0.00    -0.333 A  
HETATM   18  C   UNL     1     -13.143   9.977  72.060  1.00  0.00    -0.541 A  
HETATM   19  C   UNL     1     -13.131  11.350  71.787  1.00  0.00    -0.523 A  
BRANCH  17  20
HETATM   20  S   UNL     1     -12.415   7.358  71.553  1.00  0.00    -0.373 S  
HETATM   21  O   UNL     1     -13.797   6.997  71.780  1.00  0.00    -0.335 OA 
HETATM   22  O   UNL     1     -11.394   6.973  72.508  1.00  0.00    -0.263 OA 
BRANCH  20  23
HETATM   23  N   UNL     1     -11.897   6.727  70.102  1.00  0.00    -0.622 N  
HETATM   24  H   UNL     1     -12.532   6.785  69.306  1.00  0.00     0.000 HD 
BRANCH  23  25
HETATM   25  C   UNL     1     -10.666   6.129  69.900  1.00  0.00    -0.301 C  
HETATM   26  O   UNL     1     -10.505   4.920  69.873  1.00  0.00    -0.238 OA 
BRANCH  25  27
HETATM   27  N   UNL     1      -9.651   7.025  69.712  1.00  0.00    -0.152 N  
HETATM   28  H   UNL     1      -9.458   7.725  70.428  1.00  0.00     0.000 HD 
BRANCH  27  29
HETATM   29  C   UNL     1      -8.842   6.990  68.498  1.00  0.00    -0.124 C  
HETATM   30  C   UNL     1      -9.718   6.913  67.242  1.00  0.00    -0.184 C  
HETATM   31  C   UNL     1     -10.393   8.239  66.899  1.00  0.00    -0.391 C  
HETATM   32  C   UNL     1      -9.386   9.381  66.816  1.00  0.00    -0.202 C  
HETATM   33  C   UNL     1      -8.557   9.493  68.091  1.00  0.00    -0.120 C  
HETATM   34  C   UNL     1      -7.866   8.173  68.431  1.00  0.00    -0.118 C  
ENDBRANCH  27  29
ENDBRANCH  25  27
ENDBRANCH  23  25
ENDBRANCH  20  23
ENDBRANCH  17  20
ENDBRANCH  13  14
ENDBRANCH  12  13
ENDBRANCH  10  12
ENDBRANCH   5   8
TORSDOF 9
ENDMDL
MODEL       28
REMARK 921   NORMALIZED FREE ENERGY PREDICTED BY IDOCK:   -6.55 KCAL/MOL
REMARK 922        TOTAL FREE ENERGY PREDICTED BY IDOCK:  -11.49 KCAL/MOL
REMARK 923 INTER-LIGAND FREE ENERGY PREDICTED BY IDOCK:   -9.47 KCAL/MOL
REMARK 924 INTRA-LIGAND FREE ENERGY PREDICTED BY IDOCK:   -2.02 KCAL/MOL
REMARK 927      BINDING AFFINITY PREDICTED BY RF-SCORE:    0.00 PKD
ROOT
HETATM    1  C   UNL     1     -13.556  15.892  72.943  1.00  0.00    -0.620 C  
HETATM    2  C   UNL     1     -13.248  14.610  72.236  1.00  0.00    -0.378 A  
HETATM    3  N   UNL     1     -13.857  13.484  72.683  1.00  0.00    -0.753 NA 
HETATM    4  C   UNL     1     -13.525  12.336  72.038  1.00  0.00    -0.316 A  
HETATM    5  C   UNL     1     -12.625  12.311  70.984  1.00  0.00    -0.257 A  
HETATM    6  C   UNL     1     -12.355  14.577  71.164  1.00  0.00    -0.345 A  
HETATM    7  N   UNL     1     -12.017  13.436  70.510  1.00  0.00    -0.302 NA 
ENDROOT
BRANCH   5   8
HETATM    8  C   UNL     1     -12.269  11.006  70.360  1.00  0.00    -0.373 C  
HETATM    9  O   UNL     1     -12.240  10.880  69.141  1.00  0.00    -0.421 OA 
HETATM   10  N   UNL     1     -12.004   9.975  71.241  1.00  0.00    -0.376 N  
HETATM   11  H   UNL     1     -11.967  10.171  72.241  1.00  0.00     0.000 HD 
BRANCH  10  12
HETATM   12  C   UNL     1     -11.778   8.620  70.776  1.00  0.00    -0.210 C  
BRANCH  12  13
HETATM   13  C   UNL     1     -10.287   8.280  70.617  1.00  0.00    -0.220 C  
BRANCH  13  14
HETATM   14  C   UNL     1      -9.761   8.383  69.197  1.00  0.00    -0.171 A  
HETATM   15  C   UNL     1      -8.638   9.163  68.883  1.00  0.00    -0.131 A  
HETATM   16  C   UNL     1      -8.192   9.287  67.566  1.00  0.00    -0.114 A  
HETATM   17  C   UNL     1      -8.827   8.581  66.547  1.00  0.00    -0.140 A  
HETATM   18  C   UNL     1      -9.918   7.758  66.841  1.00  0.00    -0.331 A  
HETATM   19  C   UNL     1     -10.375   7.657  68.161  1.00  0.00    -0.250 A  
BRANCH  17  20
HETATM   20  S   UNL     1      -8.329   8.856  64.862  1.00  0.00    -0.177 S  
HETATM   21  O   UNL     1      -8.116   7.578  64.219  1.00  0.00    -0.133 OA 
HETATM   22  O   UNL     1      -7.271   9.847  64.883  1.00  0.00    -0.123 OA 
BRANCH  20  23
HETATM   23  N   UNL     1      -9.624   9.632  64.161  1.00  0.00    -0.406 N  
HETATM   24  H   UNL     1     -10.505   9.122  64.097  1.00  0.00     0.000 HD 
BRANCH  23  25
HETATM   25  C   UNL     1      -9.590  10.921  63.660  1.00  0.00    -0.302 C  
HETATM   26  O   UNL     1      -9.654  11.178  62.469  1.00  0.00    -0.268 OA 
BRANCH  25  27
HETATM   27  N   UNL     1      -9.499  11.879  64.631  1.00  0.00    -0.436 N  
HETATM   28  H   UNL     1      -8.752  12.572  64.587  1.00  0.00     0.000 HD 
BRANCH  27  29
HETATM   29  C   UNL     1     -10.460  11.921  65.729  1.00  0.00    -0.256 C  
HETATM   30  C   UNL     1      -9.878  12.635  66.954  1.00  0.00    -0.234 C  
HETATM   31  C   UNL     1      -9.815  14.153  66.791  1.00  0.00    -0.275 C  
HETATM   32  C   UNL     1     -11.165  14.733  66.386  1.00  0.00    -0.342 C  
HETATM   33  C   UNL     1     -11.713  14.062  65.131  1.00  0.00    -0.353 C  
HETATM   34  C   UNL     1     -11.793  12.545  65.295  1.00  0.00    -0.461 C  
ENDBRANCH  27  29
ENDBRANCH  25  27
ENDBRANCH  23  25
ENDBRANCH  20  23
ENDBRANCH  17  20
ENDBRANCH  13  14
ENDBRANCH  12  13
ENDBRANCH  10  12
ENDBRANCH   5   8
TORSDOF 9
ENDMDL
MODEL       29
REMARK 921   NORMALIZED FREE ENERGY PREDICTED BY IDOCK:   -6.55 KCAL/MOL
REMARK 922        TOTAL FREE ENERGY PREDICTED BY IDOCK:  -11.49 KCAL/MOL
REMARK 923 INTER-LIGAND FREE ENERGY PREDICTED BY IDOCK:   -9.94 KCAL/MOL
REMARK 924 INTRA-LIGAND FREE ENERGY PREDICTED BY IDOCK:   -1.55 KCAL/MOL
REMARK 927      BINDING AFFINITY PREDICTED BY RF-SCORE:    0.00 PKD
ROOT
HETATM    1  C   UNL     1     -10.328  19.603  65.959  1.00  0.00    -0.620 C  
HETATM    2  C   UNL     1     -10.519  18.136  66.182  1.00  0.00    -0.364 A  
HETATM    3  N   UNL     1     -10.664  17.348  65.088  1.00  0.00    -0.627 NA 
HETATM    4  C   UNL     1     -10.870  16.029  65.332  1.00  0.00    -0.328 A  
HETATM    5  C   UNL     1     -10.923  15.511  66.617  1.00  0.00    -0.248 A  
HETATM    6  C   UNL     1     -10.559  17.603  67.471  1.00  0.00    -0.343 A  
HETATM    7  N   UNL     1     -10.761  16.285  67.728  1.00  0.00    -0.323 NA 
ENDROOT
BRANCH   5   8
HETATM    8  C   UNL     1     -11.206  14.061  66.808  1.00  0.00    -0.315 C  
HETATM    9  O   UNL     1     -11.610  13.372  65.878  1.00  0.00    -0.322 OA 
HETATM   10  N   UNL     1     -11.003  13.576  68.086  1.00  0.00    -0.246 N  
HETATM   11  H   UNL     1     -10.588  14.185  68.790  1.00  0.00     0.000 HD 
BRANCH  10  12
HETATM   12  C   UNL     1     -11.366  12.220  68.448  1.00  0.00    -0.292 C  
BRANCH  12  13
HETATM   13  C   UNL     1     -12.029  12.124  69.831  1.00  0.00    -0.380 C  
BRANCH  13  14
HETATM   14  C   UNL     1     -11.784  10.816  70.562  1.00  0.00    -0.449 A  
HETATM   15  C   UNL     1     -10.585  10.102  70.412  1.00  0.00    -0.287 A  
HETATM   16  C   UNL     1     -10.390   8.878  71.054  1.00  0.00    -0.321 A  
HETATM   17  C   UNL     1     -11.369   8.376  71.909  1.00  0.00    -0.314 A  
HETATM   18  C   UNL     1     -12.552   9.093  72.114  1.00  0.00    -0.451 A  
HETATM   19  C   UNL     1     -12.751  10.308  71.448  1.00  0.00    -0.547 A  
BRANCH  17  20
HETATM   20  S   UNL     1     -11.159   6.756  72.609  1.00  0.00    -0.257 S  
HETATM   21  O   UNL     1     -12.389   6.011  72.452  1.00  0.00    -0.221 OA 
HETATM   22  O   UNL     1     -10.575   6.929  73.925  1.00  0.00    -0.369 OA 
BRANCH  20  23
HETATM   23  N   UNL     1      -9.954   6.055  71.699  1.00  0.00    -0.178 N  
HETATM   24  H   UNL     1      -8.997   6.369  71.858  1.00  0.00     0.000 HD 
BRANCH  23  25
HETATM   25  C   UNL     1     -10.160   5.078  70.743  1.00  0.00    -0.237 C  
HETATM   26  O   UNL     1      -9.892   3.901  70.919  1.00  0.00    -0.186 OA 
BRANCH  25  27
HETATM   27  N   UNL     1     -10.713   5.555  69.588  1.00  0.00    -0.321 N  
HETATM   28  H   UNL     1     -11.603   6.052  69.623  1.00  0.00     0.000 HD 
BRANCH  27  29
HETATM   29  C   UNL     1     -10.044   5.362  68.305  1.00  0.00    -0.167 C  
HETATM   30  C   UNL     1     -10.801   6.059  67.169  1.00  0.00    -0.414 C  
HETATM   31  C   UNL     1     -10.623   7.576  67.170  1.00  0.00    -0.415 C  
HETATM   32  C   UNL     1      -9.151   7.971  67.195  1.00  0.00    -0.159 C  
HETATM   33  C   UNL     1      -8.414   7.324  68.363  1.00  0.00    -0.125 C  
HETATM   34  C   UNL     1      -8.576   5.805  68.357  1.00  0.00    -0.112 C  
ENDBRANCH  27  29
ENDBRANCH  25  27
ENDBRANCH  23  25
ENDBRANCH  20  23
ENDBRANCH  17  20
ENDBRANCH  13  14
ENDBRANCH  12  13
ENDBRANCH  10  12
ENDBRANCH   5   8
TORSDOF 9
ENDMDL
MODEL       30
REMARK 921   NORMALIZED FREE ENERGY PREDICTED BY IDOCK:   -6.55 KCAL/MOL
REMARK 922        TOTAL FREE ENERGY PREDICTED BY IDOCK:  -11.49 KCAL/MOL
REMARK 923 INTER-LIGAND FREE ENERGY PREDICTED BY IDOCK:  -10.34 KCAL/MOL
REMARK 924 INTRA-LIGAND FREE ENERGY PREDICTED BY IDOCK:   -1.14 KCAL/MOL
REMARK 927      BINDING AFFINITY PREDICTED BY RF-SCORE:    0.00 PKD
ROOT
HETATM    1  C   UNL     1      -8.548   3.091  74.199  1.00  0.00    -0.076 C  
HETATM    2  C   UNL     1      -9.440   3.977  73.389  1.00  0.00    -0.110 A  
HETATM    3  N   UNL     1      -8.978   4.404  72.187  1.00  0.00    -0.119 NA 
HETATM    4  C   UNL     1      -9.802   5.234  71.497  1.00  0.00    -0.172 A  
HETATM    5  C   UNL     1     -11.042   5.621  71.982  1.00  0.00    -0.230 A  
HETATM    6  C   UNL     1     -10.696   4.361  73.861  1.00  0.00    -0.272 A  
HETATM    7  N   UNL     1     -11.530   5.188  73.180  1.00  0.00    -0.316 NA 
ENDROOT
BRANCH   5   8
HETATM    8  C   UNL     1     -11.867   6.577  71.193  1.00  0.00    -0.325 C  
HETATM    9  O   UNL     1     -11.896   6.520  69.969  1.00  0.00    -0.404 OA 
HETATM   10  N   UNL     1     -12.560   7.519  71.930  1.00  0.00    -0.385 N  
HETATM   11  H   UNL     1     -12.555   7.457  72.948  1.00  0.00     0.000 HD 
BRANCH  10  12
HETATM   12  C   UNL     1     -13.293   8.592  71.289  1.00  0.00    -0.142 C  
BRANCH  12  13
HETATM   13  C   UNL     1     -13.503   9.808  72.207  1.00  0.00    -0.443 C  
BRANCH  13  14
HETATM   14  C   UNL     1     -13.053  11.133  71.617  1.00  0.00    -0.529 A  
HETATM   15  C   UNL     1     -12.260  11.192  70.461  1.00  0.00    -0.475 A  
HETATM   16  C   UNL     1     -11.814  12.414  69.954  1.00  0.00    -0.376 A  
HETATM   17  C   UNL     1     -12.207  13.605  70.563  1.00  0.00    -0.368 A  
HETATM   18  C   UNL     1     -13.037  13.574  71.687  1.00  0.00    -0.459 A  
HETATM   19  C   UNL     1     -13.461  12.344  72.204  1.00  0.00    -0.481 A  
BRANCH  17  20
HETATM   20  S   UNL     1     -11.521  15.140  69.985  1.00  0.00    -0.310 S  
HETATM   21  O   UNL     1     -11.811  16.178  70.949  1.00  0.00    -0.384 OA 
HETATM   22  O   UNL     1     -11.924  15.297  68.601  1.00  0.00    -0.320 OA 
BRANCH  20  23
HETATM   23  N   UNL     1      -9.880  14.871  69.920  1.00  0.00    -0.456 N  
HETATM   24  H   UNL     1      -9.523  14.012  70.340  1.00  0.00     0.000 HD 
BRANCH  23  25
HETATM   25  C   UNL     1      -8.965  15.730  69.338  1.00  0.00    -0.247 C  
HETATM   26  O   UNL     1      -7.797  15.436  69.148  1.00  0.00    -0.175 OA 
BRANCH  25  27
HETATM   27  N   UNL     1      -9.504  16.933  68.977  1.00  0.00    -0.237 N  
HETATM   28  H   UNL     1     -10.456  17.165  69.261  1.00  0.00     0.000 HD 
BRANCH  27  29
HETATM   29  C   UNL     1      -8.731  17.890  68.191  1.00  0.00    -0.268 C  
HETATM   30  C   UNL     1      -8.935  17.673  66.687  1.00  0.00    -0.283 C  
HETATM   31  C   UNL     1     -10.289  18.171  66.187  1.00  0.00    -0.394 C  
HETATM   32  C   UNL     1     -10.541  19.620  66.588  1.00  0.00    -0.599 C  
HETATM   33  C   UNL     1     -10.397  19.820  68.093  1.00  0.00    -0.561 C  
HETATM   34  C   UNL     1      -9.038  19.339  68.596  1.00  0.00    -0.428 C  
ENDBRANCH  27  29
ENDBRANCH  25  27
ENDBRANCH  23  25
ENDBRANCH  20  23
ENDBRANCH  17  20
ENDBRANCH  13  14
ENDBRANCH  12  13
ENDBRANCH  10  12
ENDBRANCH   5   8
TORSDOF 9
ENDMDL
MODEL       31
REMARK 921   NORMALIZED FREE ENERGY PREDICTED BY IDOCK:   -6.50 KCAL/MOL
REMARK 922        TOTAL FREE ENERGY PREDICTED BY IDOCK:  -11.42 KCAL/MOL
REMARK 923 INTER-LIGAND FREE ENERGY PREDICTED BY IDOCK:  -10.28 KCAL/MOL
REMARK 924 INTRA-LIGAND FREE ENERGY PREDICTED BY IDOCK:   -1.14 KCAL/MOL
REMARK 927      BINDING AFFINITY PREDICTED BY RF-SCORE:    0.00 PKD
ROOT
HETATM    1  C   UNL     1      -7.876  20.064  67.830  1.00  0.00    -0.307 C  
HETATM    2  C   UNL     1      -8.678  19.061  67.063  1.00  0.00    -0.294 A  
HETATM    3  N   UNL     1      -8.271  17.767  67.104  1.00  0.00    -0.214 NA 
HETATM    4  C   UNL     1      -9.003  16.893  66.368  1.00  0.00    -0.283 A  
HETATM    5  C   UNL     1     -10.103  17.290  65.623  1.00  0.00    -0.049 A  
HETATM    6  C   UNL     1      -9.795  19.447  66.322  1.00  0.00    -0.403 A  
HETATM    7  N   UNL     1     -10.537  18.582  65.584  1.00  0.00    -0.589 NA 
ENDROOT
BRANCH   5   8
HETATM    8  C   UNL     1     -10.826  16.283  64.797  1.00  0.00    -0.224 C  
HETATM    9  O   UNL     1     -11.652  16.632  63.961  1.00  0.00    -1.197 OA 
HETATM   10  N   UNL     1     -10.515  14.962  65.057  1.00  0.00    -0.409 N  
HETATM   11  H   UNL     1      -9.759  14.746  65.708  1.00  0.00     0.000 HD 
BRANCH  10  12
HETATM   12  C   UNL     1     -11.237  13.875  64.426  1.00  0.00    -0.329 C  
BRANCH  12  13
HETATM   13  C   UNL     1     -12.290  13.238  65.348  1.00  0.00    -0.528 C  
BRANCH  13  14
HETATM   14  C   UNL     1     -11.722  12.346  66.437  1.00  0.00    -0.453 A  
HETATM   15  C   UNL     1     -10.890  11.257  66.137  1.00  0.00    -0.281 A  
HETATM   16  C   UNL     1     -10.412  10.416  67.144  1.00  0.00    -0.311 A  
HETATM   17  C   UNL     1     -10.708  10.689  68.478  1.00  0.00    -0.217 A  
HETATM   18  C   UNL     1     -11.495  11.797  68.806  1.00  0.00    -0.350 A  
HETATM   19  C   UNL     1     -11.992  12.622  67.790  1.00  0.00    -0.303 A  
BRANCH  17  20
HETATM   20  S   UNL     1     -10.203   9.534  69.731  1.00  0.00    -0.246 S  
HETATM   21  O   UNL     1      -8.795   9.720  70.005  1.00  0.00    -0.209 OA 
HETATM   22  O   UNL     1     -10.704   8.230  69.341  1.00  0.00    -0.221 OA 
BRANCH  20  23
HETATM   23  N   UNL     1     -11.099   9.947  71.072  1.00  0.00    -0.351 N  
HETATM   24  H   UNL     1     -11.332  10.932  71.201  1.00  0.00     0.000 HD 
BRANCH  23  25
HETATM   25  C   UNL     1     -11.548   9.050  72.024  1.00  0.00    -0.343 C  
HETATM   26  O   UNL     1     -12.722   8.937  72.336  1.00  0.00    -0.388 OA 
BRANCH  25  27
HETATM   27  N   UNL     1     -10.551   8.289  72.566  1.00  0.00    -0.337 N  
HETATM   28  H   UNL     1      -9.587   8.620  72.530  1.00  0.00     0.000 HD 
BRANCH  27  29
HETATM   29  C   UNL     1     -10.851   7.006  73.195  1.00  0.00    -0.316 C  
HETATM   30  C   UNL     1     -11.355   5.984  72.171  1.00  0.00    -0.351 C  
HETATM   31  C   UNL     1     -10.245   5.426  71.283  1.00  0.00    -0.287 C  
HETATM   32  C   UNL     1      -9.086   4.875  72.107  1.00  0.00    -0.148 C  
HETATM   33  C   UNL     1      -8.547   5.915  73.083  1.00  0.00    -0.119 C  
HETATM   34  C   UNL     1      -9.651   6.465  73.985  1.00  0.00    -0.221 C  
ENDBRANCH  27  29
ENDBRANCH  25  27
ENDBRANCH  23  25
ENDBRANCH  20  23
ENDBRANCH  17  20
ENDBRANCH  13  14
ENDBRANCH  12  13
ENDBRANCH  10  12
ENDBRANCH   5   8
TORSDOF 9
ENDMDL
MODEL       32
REMARK 921   NORMALIZED FREE ENERGY PREDICTED BY IDOCK:   -6.48 KCAL/MOL
REMARK 922        TOTAL FREE ENERGY PREDICTED BY IDOCK:  -11.38 KCAL/MOL
REMARK 923 INTER-LIGAND FREE ENERGY PREDICTED BY IDOCK:   -9.49 KCAL/MOL
REMARK 924 INTRA-LIGAND FREE ENERGY PREDICTED BY IDOCK:   -1.89 KCAL/MOL
REMARK 927      BINDING AFFINITY PREDICTED BY RF-SCORE:    0.00 PKD
ROOT
HETATM    1  C   UNL     1     -10.443  18.696  65.985  1.00  0.00    -0.456 C  
HETATM    2  C   UNL     1     -10.693  17.264  65.632  1.00  0.00    -0.120 A  
HETATM    3  N   UNL     1     -11.409  17.009  64.508  1.00  0.00    -0.986 NA 
HETATM    4  C   UNL     1     -11.644  15.700  64.240  1.00  0.00    -0.189 A  
HETATM    5  C   UNL     1     -11.179  14.680  65.057  1.00  0.00    -0.386 A  
HETATM    6  C   UNL     1     -10.217  16.230  66.439  1.00  0.00    -0.313 A  
HETATM    7  N   UNL     1     -10.443  14.916  66.181  1.00  0.00    -0.294 NA 
ENDROOT
BRANCH   5   8
HETATM    8  C   UNL     1     -11.522  13.269  64.727  1.00  0.00    -0.327 C  
HETATM    9  O   UNL     1     -12.609  12.985  64.236  1.00  0.00    -0.613 OA 
HETATM   10  N   UNL     1     -10.554  12.331  65.032  1.00  0.00    -0.277 N  
HETATM   11  H   UNL     1      -9.642  12.646  65.362  1.00  0.00     0.000 HD 
BRANCH  10  12
HETATM   12  C   UNL     1     -10.804  10.910  64.891  1.00  0.00    -0.080 C  
BRANCH  12  13
HETATM   13  C   UNL     1      -9.537  10.056  65.066  1.00  0.00    -0.362 C  
BRANCH  13  14
HETATM   14  C   UNL     1      -9.457   9.304  66.382  1.00  0.00    -0.277 A  
HETATM   15  C   UNL     1     -10.376   8.296  66.711  1.00  0.00    -0.361 A  
HETATM   16  C   UNL     1     -10.319   7.643  67.944  1.00  0.00    -0.270 A  
HETATM   17  C   UNL     1      -9.301   7.945  68.845  1.00  0.00    -0.150 A  
HETATM   18  C   UNL     1      -8.344   8.911  68.520  1.00  0.00    -0.125 A  
HETATM   19  C   UNL     1      -8.421   9.579  67.293  1.00  0.00    -0.128 A  
BRANCH  17  20
HETATM   20  S   UNL     1      -9.325   7.202  70.460  1.00  0.00    -0.158 S  
HETATM   21  O   UNL     1      -8.009   6.683  70.760  1.00  0.00    -0.107 OA 
HETATM   22  O   UNL     1     -10.483   6.330  70.515  1.00  0.00    -0.201 OA 
BRANCH  20  23
HETATM   23  N   UNL     1      -9.688   8.453  71.496  1.00  0.00    -0.190 N  
HETATM   24  H   UNL     1      -8.957   8.766  72.136  1.00  0.00     0.000 HD 
BRANCH  23  25
HETATM   25  C   UNL     1     -10.910   9.099  71.550  1.00  0.00    -0.366 C  
HETATM   26  O   UNL     1     -11.861   8.680  72.189  1.00  0.00    -0.344 OA 
BRANCH  25  27
HETATM   27  N   UNL     1     -10.941  10.264  70.836  1.00  0.00    -0.356 N  
HETATM   28  H   UNL     1     -10.098  10.833  70.763  1.00  0.00     0.000 HD 
BRANCH  27  29
HETATM   29  C   UNL     1     -12.168  10.702  70.178  1.00  0.00    -0.320 C  
HETATM   30  C   UNL     1     -12.896  11.770  71.003  1.00  0.00    -0.309 C  
HETATM   31  C   UNL     1     -12.226  13.141  70.935  1.00  0.00    -0.330 C  
HETATM   32  C   UNL     1     -12.007  13.591  69.495  1.00  0.00    -0.390 C  
HETATM   33  C   UNL     1     -11.230  12.553  68.693  1.00  0.00    -0.319 C  
HETATM   34  C   UNL     1     -11.904  11.183  68.744  1.00  0.00    -0.388 C  
ENDBRANCH  27  29
ENDBRANCH  25  27
ENDBRANCH  23  25
ENDBRANCH  20  23
ENDBRANCH  17  20
ENDBRANCH  13  14
ENDBRANCH  12  13
ENDBRANCH  10  12
ENDBRANCH   5   8
TORSDOF 9
ENDMDL
MODEL       33
REMARK 921   NORMALIZED FREE ENERGY PREDICTED BY IDOCK:   -6.47 KCAL/MOL
REMARK 922        TOTAL FREE ENERGY PREDICTED BY IDOCK:  -11.37 KCAL/MOL
REMARK 923 INTER-LIGAND FREE ENERGY PREDICTED BY IDOCK:  -10.43 KCAL/MOL
REMARK 924 INTRA-LIGAND FREE ENERGY PREDICTED BY IDOCK:   -0.95 KCAL/MOL
REMARK 927      BINDING AFFINITY PREDICTED BY RF-SCORE:    0.00 PKD
ROOT
HETATM    1  C   UNL     1      -9.427  18.829  67.737  1.00  0.00    -0.333 C  
HETATM    2  C   UNL     1     -10.040  17.785  66.859  1.00  0.00    -0.342 A  
HETATM    3  N   UNL     1     -10.034  16.504  67.307  1.00  0.00    -0.258 NA 
HETATM    4  C   UNL     1     -10.568  15.582  66.467  1.00  0.00    -0.307 A  
HETATM    5  C   UNL     1     -11.095  15.920  65.230  1.00  0.00    -0.248 A  
HETATM    6  C   UNL     1     -10.586  18.118  65.619  1.00  0.00    -0.094 A  
HETATM    7  N   UNL     1     -11.126  17.204  64.771  1.00  0.00    -0.925 NA 
ENDROOT
BRANCH   5   8
HETATM    8  C   UNL     1     -11.616  14.845  64.340  1.00  0.00    -0.288 C  
HETATM    9  O   UNL     1     -12.760  14.892  63.903  1.00  0.00    -0.789 OA 
HETATM   10  N   UNL     1     -10.738  13.812  64.074  1.00  0.00    -0.480 N  
HETATM   11  H   UNL     1      -9.776  13.878  64.404  1.00  0.00     0.000 HD 
BRANCH  10  12
HETATM   12  C   UNL     1     -11.155  12.635  63.337  1.00  0.00    -0.298 C  
BRANCH  12  13
HETATM   13  C   UNL     1     -10.227  11.429  63.556  1.00  0.00    -0.461 C  
BRANCH  13  14
HETATM   14  C   UNL     1     -10.282  10.831  64.950  1.00  0.00    -0.388 A  
HETATM   15  C   UNL     1     -11.035  11.423  65.975  1.00  0.00    -0.286 A  
HETATM   16  C   UNL     1     -11.041  10.890  67.266  1.00  0.00    -0.350 A  
HETATM   17  C   UNL     1     -10.341   9.717  67.537  1.00  0.00    -0.241 A  
HETATM   18  C   UNL     1      -9.623   9.080  66.520  1.00  0.00    -0.286 A  
HETATM   19  C   UNL     1      -9.602   9.633  65.234  1.00  0.00    -0.347 A  
BRANCH  17  20
HETATM   20  S   UNL     1     -10.252   9.129  69.213  1.00  0.00    -0.216 S  
HETATM   21  O   UNL     1      -9.295   9.931  69.943  1.00  0.00    -0.220 OA 
HETATM   22  O   UNL     1     -10.102   7.687  69.155  1.00  0.00    -0.183 OA 
BRANCH  20  23
HETATM   23  N   UNL     1     -11.779   9.372  69.827  1.00  0.00    -0.428 N  
HETATM   24  H   UNL     1     -12.539   9.525  69.163  1.00  0.00     0.000 HD 
BRANCH  23  25
HETATM   25  C   UNL     1     -12.092   9.382  71.174  1.00  0.00    -0.328 C  
HETATM   26  O   UNL     1     -13.101   9.899  71.624  1.00  0.00    -0.374 OA 
BRANCH  25  27
HETATM   27  N   UNL     1     -11.170   8.737  71.950  1.00  0.00    -0.346 N  
HETATM   28  H   UNL     1     -10.194   9.033  71.925  1.00  0.00     0.000 HD 
BRANCH  27  29
HETATM   29  C   UNL     1     -11.567   7.630  72.815  1.00  0.00    -0.281 C  
HETATM   30  C   UNL     1     -12.103   6.447  72.000  1.00  0.00    -0.353 C  
HETATM   31  C   UNL     1     -11.003   5.659  71.291  1.00  0.00    -0.251 C  
HETATM   32  C   UNL     1      -9.905   5.228  72.258  1.00  0.00    -0.209 C  
HETATM   33  C   UNL     1      -9.332   6.416  73.023  1.00  0.00    -0.141 C  
HETATM   34  C   UNL     1     -10.426   7.199  73.747  1.00  0.00    -0.371 C  
ENDBRANCH  27  29
ENDBRANCH  25  27
ENDBRANCH  23  25
ENDBRANCH  20  23
ENDBRANCH  17  20
ENDBRANCH  13  14
ENDBRANCH  12  13
ENDBRANCH  10  12
ENDBRANCH   5   8
TORSDOF 9
ENDMDL
MODEL       34
REMARK 921   NORMALIZED FREE ENERGY PREDICTED BY IDOCK:   -6.47 KCAL/MOL
REMARK 922        TOTAL FREE ENERGY PREDICTED BY IDOCK:  -11.36 KCAL/MOL
REMARK 923 INTER-LIGAND FREE ENERGY PREDICTED BY IDOCK:  -10.35 KCAL/MOL
REMARK 924 INTRA-LIGAND FREE ENERGY PREDICTED BY IDOCK:   -1.01 KCAL/MOL
REMARK 927      BINDING AFFINITY PREDICTED BY RF-SCORE:    0.00 PKD
ROOT
HETATM    1  C   UNL     1      -9.331   3.781  65.438  1.00  0.00    -0.159 C  
HETATM    2  C   UNL     1      -9.775   4.392  66.730  1.00  0.00    -0.215 A  
HETATM    3  N   UNL     1      -9.381   3.788  67.879  1.00  0.00    -0.176 NA 
HETATM    4  C   UNL     1      -9.833   4.352  69.028  1.00  0.00    -0.111 A  
HETATM    5  C   UNL     1     -10.641   5.478  69.035  1.00  0.00    -0.201 A  
HETATM    6  C   UNL     1     -10.577   5.534  66.747  1.00  0.00    -0.291 A  
HETATM    7  N   UNL     1     -11.032   6.109  67.890  1.00  0.00    -0.328 NA 
ENDROOT
BRANCH   5   8
HETATM    8  C   UNL     1     -11.142   6.008  70.333  1.00  0.00    -0.329 C  
HETATM    9  O   UNL     1     -10.687   5.599  71.396  1.00  0.00    -0.247 OA 
HETATM   10  N   UNL     1     -12.145   6.955  70.246  1.00  0.00    -0.627 N  
HETATM   11  H   UNL     1     -12.417   7.309  69.329  1.00  0.00     0.000 HD 
BRANCH  10  12
HETATM   12  C   UNL     1     -12.818   7.457  71.428  1.00  0.00    -0.365 C  
BRANCH  12  13
HETATM   13  C   UNL     1     -12.072   8.624  72.095  1.00  0.00    -0.451 C  
BRANCH  13  14
HETATM   14  C   UNL     1     -11.846   9.827  71.197  1.00  0.00    -0.466 A  
HETATM   15  C   UNL     1     -10.825   9.846  70.235  1.00  0.00    -0.367 A  
HETATM   16  C   UNL     1     -10.598  10.977  69.448  1.00  0.00    -0.212 A  
HETATM   17  C   UNL     1     -11.431  12.087  69.567  1.00  0.00    -0.282 A  
HETATM   18  C   UNL     1     -12.487  12.073  70.484  1.00  0.00    -0.292 A  
HETATM   19  C   UNL     1     -12.694  10.946  71.287  1.00  0.00    -0.542 A  
BRANCH  17  20
HETATM   20  S   UNL     1     -11.045  13.562  68.653  1.00  0.00    -0.282 S  
HETATM   21  O   UNL     1     -12.252  14.064  68.035  1.00  0.00    -0.321 OA 
HETATM   22  O   UNL     1      -9.877  13.273  67.843  1.00  0.00    -0.220 OA 
BRANCH  20  23
HETATM   23  N   UNL     1     -10.507  14.641  69.802  1.00  0.00    -0.443 N  
HETATM   24  H   UNL     1      -9.660  14.401  70.317  1.00  0.00     0.000 HD 
BRANCH  23  25
HETATM   25  C   UNL     1     -11.129  15.838  70.106  1.00  0.00    -0.352 C  
HETATM   26  O   UNL     1     -11.643  16.070  71.188  1.00  0.00    -0.401 OA 
BRANCH  25  27
HETATM   27  N   UNL     1     -11.091  16.745  69.084  1.00  0.00    -0.272 N  
HETATM   28  H   UNL     1     -11.959  17.031  68.631  1.00  0.00     0.000 HD 
BRANCH  27  29
HETATM   29  C   UNL     1      -9.822  17.309  68.634  1.00  0.00    -0.313 C  
HETATM   30  C   UNL     1      -9.481  16.855  67.210  1.00  0.00    -0.242 C  
HETATM   31  C   UNL     1     -10.313  17.561  66.141  1.00  0.00    -0.330 C  
HETATM   32  C   UNL     1     -10.245  19.077  66.282  1.00  0.00    -0.510 C  
HETATM   33  C   UNL     1     -10.643  19.529  67.683  1.00  0.00    -0.566 C  
HETATM   34  C   UNL     1      -9.803  18.839  68.756  1.00  0.00    -0.434 C  
ENDBRANCH  27  29
ENDBRANCH  25  27
ENDBRANCH  23  25
ENDBRANCH  20  23
ENDBRANCH  17  20
ENDBRANCH  13  14
ENDBRANCH  12  13
ENDBRANCH  10  12
ENDBRANCH   5   8
TORSDOF 9
ENDMDL
MODEL       35
REMARK 921   NORMALIZED FREE ENERGY PREDICTED BY IDOCK:   -6.46 KCAL/MOL
REMARK 922        TOTAL FREE ENERGY PREDICTED BY IDOCK:  -11.36 KCAL/MOL
REMARK 923 INTER-LIGAND FREE ENERGY PREDICTED BY IDOCK:  -10.19 KCAL/MOL
REMARK 924 INTRA-LIGAND FREE ENERGY PREDICTED BY IDOCK:   -1.17 KCAL/MOL
REMARK 927      BINDING AFFINITY PREDICTED BY RF-SCORE:    0.00 PKD
ROOT
HETATM    1  C   UNL     1     -12.726   8.472  71.598  1.00  0.00    -0.365 C  
HETATM    2  C   UNL     1     -12.605   9.945  71.369  1.00  0.00    -0.398 A  
HETATM    3  N   UNL     1     -13.324  10.767  72.173  1.00  0.00    -0.356 NA 
HETATM    4  C   UNL     1     -13.215  12.094  71.912  1.00  0.00    -0.369 A  
HETATM    5  C   UNL     1     -12.415  12.587  70.891  1.00  0.00    -0.269 A  
HETATM    6  C   UNL     1     -11.792  10.451  70.354  1.00  0.00    -0.328 A  
HETATM    7  N   UNL     1     -11.672  11.776  70.084  1.00  0.00    -0.304 NA 
ENDROOT
BRANCH   5   8
HETATM    8  C   UNL     1     -12.387  14.052  70.630  1.00  0.00    -0.375 C  
HETATM    9  O   UNL     1     -13.421  14.712  70.639  1.00  0.00    -0.261 OA 
HETATM   10  N   UNL     1     -11.142  14.588  70.362  1.00  0.00    -0.484 N  
HETATM   11  H   UNL     1     -10.315  13.998  70.452  1.00  0.00     0.000 HD 
BRANCH  10  12
HETATM   12  C   UNL     1     -10.983  15.971  69.958  1.00  0.00    -0.365 C  
BRANCH  12  13
HETATM   13  C   UNL     1     -10.100  16.135  68.709  1.00  0.00    -0.237 C  
BRANCH  13  14
HETATM   14  C   UNL     1     -10.506  15.272  67.528  1.00  0.00    -0.265 A  
HETATM   15  C   UNL     1      -9.656  15.082  66.428  1.00  0.00    -0.314 A  
HETATM   16  C   UNL     1     -10.060  14.323  65.328  1.00  0.00    -0.378 A  
HETATM   17  C   UNL     1     -11.300  13.689  65.337  1.00  0.00    -0.301 A  
HETATM   18  C   UNL     1     -12.145  13.823  66.443  1.00  0.00    -0.483 A  
HETATM   19  C   UNL     1     -11.744  14.604  67.533  1.00  0.00    -0.403 A  
BRANCH  17  20
HETATM   20  S   UNL     1     -11.850  12.841  63.875  1.00  0.00    -0.511 S  
HETATM   21  O   UNL     1     -12.546  13.777  63.020  1.00  0.00    -0.721 OA 
HETATM   22  O   UNL     1     -12.506  11.621  64.307  1.00  0.00    -0.114 OA 
BRANCH  20  23
HETATM   23  N   UNL     1     -10.451  12.329  63.132  1.00  0.00    -0.537 N  
HETATM   24  H   UNL     1      -9.978  12.984  62.509  1.00  0.00     0.000 HD 
BRANCH  23  25
HETATM   25  C   UNL     1      -9.884  11.079  63.301  1.00  0.00    -0.368 C  
HETATM   26  O   UNL     1      -9.424  10.423  62.381  1.00  0.00    -0.280 OA 
BRANCH  25  27
HETATM   27  N   UNL     1      -9.870  10.660  64.601  1.00  0.00    -0.293 N  
HETATM   28  H   UNL     1     -10.738  10.649  65.137  1.00  0.00     0.000 HD 
BRANCH  27  29
HETATM   29  C   UNL     1      -8.627  10.227  65.232  1.00  0.00    -0.165 C  
HETATM   30  C   UNL     1      -8.375  10.976  66.545  1.00  0.00    -0.163 C  
HETATM   31  C   UNL     1      -9.265  10.497  67.691  1.00  0.00    -0.153 C  
HETATM   32  C   UNL     1      -9.180   8.986  67.877  1.00  0.00    -0.151 C  
HETATM   33  C   UNL     1      -9.490   8.242  66.583  1.00  0.00    -0.271 C  
HETATM   34  C   UNL     1      -8.592   8.706  65.437  1.00  0.00    -0.206 C  
ENDBRANCH  27  29
ENDBRANCH  25  27
ENDBRANCH  23  25
ENDBRANCH  20  23
ENDBRANCH  17  20
ENDBRANCH  13  14
ENDBRANCH  12  13
ENDBRANCH  10  12
ENDBRANCH   5   8
TORSDOF 9
ENDMDL
MODEL       36
REMARK 921   NORMALIZED FREE ENERGY PREDICTED BY IDOCK:   -6.45 KCAL/MOL
REMARK 922        TOTAL FREE ENERGY PREDICTED BY IDOCK:  -11.34 KCAL/MOL
REMARK 923 INTER-LIGAND FREE ENERGY PREDICTED BY IDOCK:  -10.43 KCAL/MOL
REMARK 924 INTRA-LIGAND FREE ENERGY PREDICTED BY IDOCK:   -0.91 KCAL/MOL
REMARK 927      BINDING AFFINITY PREDICTED BY RF-SCORE:    0.00 PKD
ROOT
HETATM    1  C   UNL     1      -9.206   1.549  72.873  1.00  0.00    -0.084 C  
HETATM    2  C   UNL     1      -9.571   2.999  72.904  1.00  0.00    -0.104 A  
HETATM    3  N   UNL     1     -10.683   3.353  73.596  1.00  0.00    -0.195 NA 
HETATM    4  C   UNL     1     -11.000   4.672  73.572  1.00  0.00    -0.318 A  
HETATM    5  C   UNL     1     -10.237   5.607  72.889  1.00  0.00    -0.186 A  
HETATM    6  C   UNL     1      -8.801   3.950  72.232  1.00  0.00    -0.105 A  
HETATM    7  N   UNL     1      -9.107   5.272  72.203  1.00  0.00    -0.136 NA 
ENDROOT
BRANCH   5   8
HETATM    8  C   UNL     1     -10.678   7.029  72.863  1.00  0.00    -0.288 C  
HETATM    9  O   UNL     1      -9.886   7.936  73.095  1.00  0.00    -0.268 OA 
HETATM   10  N   UNL     1     -12.016   7.236  72.588  1.00  0.00    -0.528 N  
HETATM   11  H   UNL     1     -12.599   6.441  72.325  1.00  0.00     0.000 HD 
BRANCH  10  12
HETATM   12  C   UNL     1     -12.610   8.556  72.664  1.00  0.00    -0.195 C  
BRANCH  12  13
HETATM   13  C   UNL     1     -13.001   9.119  71.288  1.00  0.00    -0.307 C  
BRANCH  13  14
HETATM   14  C   UNL     1     -12.824  10.620  71.144  1.00  0.00    -0.518 A  
HETATM   15  C   UNL     1     -13.299  11.514  72.115  1.00  0.00    -0.284 A  
HETATM   16  C   UNL     1     -13.170  12.894  71.948  1.00  0.00    -0.521 A  
HETATM   17  C   UNL     1     -12.506  13.402  70.834  1.00  0.00    -0.359 A  
HETATM   18  C   UNL     1     -11.980  12.530  69.876  1.00  0.00    -0.371 A  
HETATM   19  C   UNL     1     -12.134  11.148  70.037  1.00  0.00    -0.437 A  
BRANCH  17  20
HETATM   20  S   UNL     1     -12.470  15.160  70.573  1.00  0.00    -0.391 S  
HETATM   21  O   UNL     1     -11.232  15.690  71.100  1.00  0.00    -0.345 OA 
HETATM   22  O   UNL     1     -13.742  15.688  71.029  1.00  0.00    -0.582 OA 
BRANCH  20  23
HETATM   23  N   UNL     1     -12.504  15.342  68.919  1.00  0.00    -0.524 N  
HETATM   24  H   UNL     1     -13.399  15.211  68.446  1.00  0.00     0.000 HD 
BRANCH  23  25
HETATM   25  C   UNL     1     -11.406  15.658  68.141  1.00  0.00    -0.340 C  
HETATM   26  O   UNL     1     -10.762  14.828  67.521  1.00  0.00    -0.260 OA 
BRANCH  25  27
HETATM   27  N   UNL     1     -11.124  16.996  68.117  1.00  0.00    -0.266 N  
HETATM   28  H   UNL     1     -11.796  17.660  68.500  1.00  0.00     0.000 HD 
BRANCH  27  29
HETATM   29  C   UNL     1      -9.871  17.483  67.548  1.00  0.00    -0.293 C  
HETATM   30  C   UNL     1     -10.066  17.994  66.116  1.00  0.00    -0.334 C  
HETATM   31  C   UNL     1     -10.764  19.351  66.053  1.00  0.00    -0.512 C  
HETATM   32  C   UNL     1     -10.068  20.385  66.932  1.00  0.00    -0.503 C  
HETATM   33  C   UNL     1      -9.929  19.898  68.370  1.00  0.00    -0.531 C  
HETATM   34  C   UNL     1      -9.218  18.548  68.440  1.00  0.00    -0.347 C  
ENDBRANCH  27  29
ENDBRANCH  25  27
ENDBRANCH  23  25
ENDBRANCH  20  23
ENDBRANCH  17  20
ENDBRANCH  13  14
ENDBRANCH  12  13
ENDBRANCH  10  12
ENDBRANCH   5   8
TORSDOF 9
ENDMDL
MODEL       37
REMARK 921   NORMALIZED FREE ENERGY PREDICTED BY IDOCK:   -6.43 KCAL/MOL
REMARK 922        TOTAL FREE ENERGY PREDICTED BY IDOCK:  -11.30 KCAL/MOL
REMARK 923 INTER-LIGAND FREE ENERGY PREDICTED BY IDOCK:   -9.73 KCAL/MOL
REMARK 924 INTRA-LIGAND FREE ENERGY PREDICTED BY IDOCK:   -1.57 KCAL/MOL
REMARK 927      BINDING AFFINITY PREDICTED BY RF-SCORE:    0.00 PKD
ROOT
HETATM    1  C   UNL     1      -8.143  20.803  67.299  1.00  0.00    -0.248 C  
HETATM    2  C   UNL     1      -8.907  19.634  66.763  1.00  0.00    -0.343 A  
HETATM    3  N   UNL     1      -8.453  18.393  67.068  1.00  0.00    -0.248 NA 
HETATM    4  C   UNL     1      -9.152  17.359  66.535  1.00  0.00    -0.266 A  
HETATM    5  C   UNL     1     -10.266  17.552  65.732  1.00  0.00    -0.173 A  
HETATM    6  C   UNL     1     -10.037  19.818  65.966  1.00  0.00    -0.477 A  
HETATM    7  N   UNL     1     -10.747  18.792  65.429  1.00  0.00    -0.510 NA 
ENDROOT
BRANCH   5   8
HETATM    8  C   UNL     1     -10.951  16.370  65.139  1.00  0.00    -0.232 C  
HETATM    9  O   UNL     1     -11.561  16.464  64.079  1.00  0.00    -1.071 OA 
HETATM   10  N   UNL     1     -10.865  15.200  65.869  1.00  0.00    -0.330 N  
HETATM   11  H   UNL     1     -10.273  15.173  66.699  1.00  0.00     0.000 HD 
BRANCH  10  12
HETATM   12  C   UNL     1     -11.595  14.010  65.481  1.00  0.00    -0.332 C  
BRANCH  12  13
HETATM   13  C   UNL     1     -10.767  12.722  65.625  1.00  0.00    -0.297 C  
BRANCH  13  14
HETATM   14  C   UNL     1     -10.876  12.046  66.980  1.00  0.00    -0.297 A  
HETATM   15  C   UNL     1      -9.966  11.058  67.385  1.00  0.00    -0.209 A  
HETATM   16  C   UNL     1     -10.105  10.411  68.614  1.00  0.00    -0.188 A  
HETATM   17  C   UNL     1     -11.122  10.788  69.489  1.00  0.00    -0.278 A  
HETATM   18  C   UNL     1     -12.011  11.805  69.129  1.00  0.00    -0.356 A  
HETATM   19  C   UNL     1     -11.882  12.433  67.884  1.00  0.00    -0.370 A  
BRANCH  17  20
HETATM   20  S   UNL     1     -11.363   9.863  70.988  1.00  0.00    -0.372 S  
HETATM   21  O   UNL     1     -12.306  10.566  71.829  1.00  0.00    -0.331 OA 
HETATM   22  O   UNL     1     -10.049   9.517  71.495  1.00  0.00    -0.219 OA 
BRANCH  20  23
HETATM   23  N   UNL     1     -12.019   8.416  70.490  1.00  0.00    -0.487 N  
HETATM   24  H   UNL     1     -12.965   8.431  70.107  1.00  0.00     0.000 HD 
BRANCH  23  25
HETATM   25  C   UNL     1     -11.374   7.195  70.560  1.00  0.00    -0.297 C  
HETATM   26  O   UNL     1     -11.815   6.238  71.173  1.00  0.00    -0.305 OA 
BRANCH  25  27
HETATM   27  N   UNL     1     -10.202   7.160  69.856  1.00  0.00    -0.202 N  
HETATM   28  H   UNL     1      -9.507   7.893  69.997  1.00  0.00     0.000 HD 
BRANCH  27  29
HETATM   29  C   UNL     1      -9.935   6.084  68.907  1.00  0.00    -0.154 C  
HETATM   30  C   UNL     1     -10.834   6.192  67.670  1.00  0.00    -0.421 C  
HETATM   31  C   UNL     1     -10.410   7.305  66.714  1.00  0.00    -0.311 C  
HETATM   32  C   UNL     1      -8.937   7.191  66.334  1.00  0.00    -0.178 C  
HETATM   33  C   UNL     1      -8.041   7.144  67.566  1.00  0.00    -0.113 C  
HETATM   34  C   UNL     1      -8.451   6.023  68.519  1.00  0.00    -0.113 C  
ENDBRANCH  27  29
ENDBRANCH  25  27
ENDBRANCH  23  25
ENDBRANCH  20  23
ENDBRANCH  17  20
ENDBRANCH  13  14
ENDBRANCH  12  13
ENDBRANCH  10  12
ENDBRANCH   5   8
TORSDOF 9
ENDMDL
MODEL       38
REMARK 921   NORMALIZED FREE ENERGY PREDICTED BY IDOCK:   -6.41 KCAL/MOL
REMARK 922        TOTAL FREE ENERGY PREDICTED BY IDOCK:  -11.27 KCAL/MOL
REMARK 923 INTER-LIGAND FREE ENERGY PREDICTED BY IDOCK:  -10.06 KCAL/MOL
REMARK 924 INTRA-LIGAND FREE ENERGY PREDICTED BY IDOCK:   -1.21 KCAL/MOL
REMARK 927      BINDING AFFINITY PREDICTED BY RF-SCORE:    0.00 PKD
ROOT
HETATM    1  C   UNL     1      -7.495   4.022  74.023  1.00  0.00    -0.071 C  
HETATM    2  C   UNL     1      -8.624   4.697  73.312  1.00  0.00    -0.102 A  
HETATM    3  N   UNL     1      -8.318   5.483  72.250  1.00  0.00    -0.118 NA 
HETATM    4  C   UNL     1      -9.366   6.106  71.653  1.00  0.00    -0.148 A  
HETATM    5  C   UNL     1     -10.672   5.948  72.093  1.00  0.00    -0.231 A  
HETATM    6  C   UNL     1      -9.943   4.533  73.738  1.00  0.00    -0.153 A  
HETATM    7  N   UNL     1     -11.000   5.148  73.148  1.00  0.00    -0.282 NA 
ENDROOT
BRANCH   5   8
HETATM    8  C   UNL     1     -11.764   6.706  71.421  1.00  0.00    -0.324 C  
HETATM    9  O   UNL     1     -11.931   6.624  70.209  1.00  0.00    -0.387 OA 
HETATM   10  N   UNL     1     -12.536   7.501  72.247  1.00  0.00    -0.499 N  
HETATM   11  H   UNL     1     -12.393   7.457  73.256  1.00  0.00     0.000 HD 
BRANCH  10  12
HETATM   12  C   UNL     1     -13.544   8.395  71.712  1.00  0.00    -0.377 C  
BRANCH  12  13
HETATM   13  C   UNL     1     -13.604   9.743  72.448  1.00  0.00    -0.328 C  
BRANCH  13  14
HETATM   14  C   UNL     1     -13.087  10.926  71.649  1.00  0.00    -0.538 A  
HETATM   15  C   UNL     1     -12.320  10.750  70.488  1.00  0.00    -0.458 A  
HETATM   16  C   UNL     1     -11.812  11.846  69.787  1.00  0.00    -0.411 A  
HETATM   17  C   UNL     1     -12.117  13.140  70.203  1.00  0.00    -0.321 A  
HETATM   18  C   UNL     1     -12.921  13.341  71.329  1.00  0.00    -0.353 A  
HETATM   19  C   UNL     1     -13.407  12.238  72.041  1.00  0.00    -0.491 A  
BRANCH  17  20
HETATM   20  S   UNL     1     -11.352  14.518  69.379  1.00  0.00    -0.291 S  
HETATM   21  O   UNL     1      -9.923  14.303  69.329  1.00  0.00    -0.087 OA 
HETATM   22  O   UNL     1     -11.888  15.726  69.976  1.00  0.00    -0.344 OA 
BRANCH  20  23
HETATM   23  N   UNL     1     -11.982  14.490  67.839  1.00  0.00    -0.533 N  
HETATM   24  H   UNL     1     -12.963  14.231  67.732  1.00  0.00     0.000 HD 
BRANCH  23  25
HETATM   25  C   UNL     1     -11.269  14.793  66.693  1.00  0.00    -0.346 C  
HETATM   26  O   UNL     1     -11.136  15.929  66.267  1.00  0.00    -0.182 OA 
BRANCH  25  27
HETATM   27  N   UNL     1     -10.709  13.699  66.096  1.00  0.00    -0.284 N  
HETATM   28  H   UNL     1      -9.750  13.747  65.753  1.00  0.00     0.000 HD 
BRANCH  27  29
HETATM   29  C   UNL     1     -11.470  12.462  65.945  1.00  0.00    -0.374 C  
HETATM   30  C   UNL     1     -12.390  12.516  64.720  1.00  0.00    -0.544 C  
HETATM   31  C   UNL     1     -11.640  12.360  63.398  1.00  0.00    -0.541 C  
HETATM   32  C   UNL     1     -10.763  11.112  63.391  1.00  0.00    -0.286 C  
HETATM   33  C   UNL     1      -9.806  11.091  64.579  1.00  0.00    -0.343 C  
HETATM   34  C   UNL     1     -10.553  11.231  65.904  1.00  0.00    -0.309 C  
ENDBRANCH  27  29
ENDBRANCH  25  27
ENDBRANCH  23  25
ENDBRANCH  20  23
ENDBRANCH  17  20
ENDBRANCH  13  14
ENDBRANCH  12  13
ENDBRANCH  10  12
ENDBRANCH   5   8
TORSDOF 9
ENDMDL
MODEL       39
REMARK 921   NORMALIZED FREE ENERGY PREDICTED BY IDOCK:   -6.37 KCAL/MOL
REMARK 922        TOTAL FREE ENERGY PREDICTED BY IDOCK:  -11.22 KCAL/MOL
REMARK 923 INTER-LIGAND FREE ENERGY PREDICTED BY IDOCK:   -9.61 KCAL/MOL
REMARK 924 INTRA-LIGAND FREE ENERGY PREDICTED BY IDOCK:   -1.60 KCAL/MOL
REMARK 927      BINDING AFFINITY PREDICTED BY RF-SCORE:    0.00 PKD
ROOT
HETATM    1  C   UNL     1      -9.906  20.133  66.616  1.00  0.00    -0.588 C  
HETATM    2  C   UNL     1     -10.229  18.681  66.776  1.00  0.00    -0.393 A  
HETATM    3  N   UNL     1     -10.194  17.904  65.665  1.00  0.00    -0.589 NA 
HETATM    4  C   UNL     1     -10.526  16.600  65.844  1.00  0.00    -0.313 A  
HETATM    5  C   UNL     1     -10.874  16.087  67.084  1.00  0.00    -0.239 A  
HETATM    6  C   UNL     1     -10.566  18.152  68.022  1.00  0.00    -0.341 A  
HETATM    7  N   UNL     1     -10.898  16.850  68.215  1.00  0.00    -0.372 NA 
ENDROOT
BRANCH   5   8
HETATM    8  C   UNL     1     -11.278  14.658  67.194  1.00  0.00    -0.344 C  
HETATM    9  O   UNL     1     -12.370  14.348  67.659  1.00  0.00    -0.251 OA 
HETATM   10  N   UNL     1     -10.342  13.737  66.764  1.00  0.00    -0.269 N  
HETATM   11  H   UNL     1      -9.489  14.067  66.314  1.00  0.00     0.000 HD 
BRANCH  10  12
HETATM   12  C   UNL     1     -10.545  12.312  66.938  1.00  0.00    -0.224 C  
BRANCH  12  13
HETATM   13  C   UNL     1      -9.414  11.465  66.333  1.00  0.00    -0.224 C  
BRANCH  13  14
HETATM   14  C   UNL     1      -9.364  10.030  66.825  1.00  0.00    -0.193 A  
HETATM   15  C   UNL     1     -10.360   9.101  66.489  1.00  0.00    -0.269 A  
HETATM   16  C   UNL     1     -10.327   7.797  66.986  1.00  0.00    -0.405 A  
HETATM   17  C   UNL     1      -9.260   7.381  67.780  1.00  0.00    -0.131 A  
HETATM   18  C   UNL     1      -8.230   8.274  68.089  1.00  0.00    -0.128 A  
HETATM   19  C   UNL     1      -8.281   9.587  67.607  1.00  0.00    -0.121 A  
BRANCH  17  20
HETATM   20  S   UNL     1      -9.304   5.761  68.511  1.00  0.00    -0.124 S  
HETATM   21  O   UNL     1      -8.253   5.662  69.500  1.00  0.00    -0.100 OA 
HETATM   22  O   UNL     1      -9.378   4.802  67.426  1.00  0.00    -0.124 OA 
BRANCH  20  23
HETATM   23  N   UNL     1     -10.791   5.675  69.256  1.00  0.00    -0.290 N  
HETATM   24  H   UNL     1     -11.538   5.183  68.766  1.00  0.00     0.000 HD 
BRANCH  23  25
HETATM   25  C   UNL     1     -11.084   6.223  70.491  1.00  0.00    -0.335 C  
HETATM   26  O   UNL     1     -10.919   5.630  71.544  1.00  0.00    -0.252 OA 
BRANCH  25  27
HETATM   27  N   UNL     1     -11.557   7.504  70.418  1.00  0.00    -0.453 N  
HETATM   28  H   UNL     1     -12.218   7.756  69.684  1.00  0.00     0.000 HD 
BRANCH  27  29
HETATM   29  C   UNL     1     -11.125   8.514  71.380  1.00  0.00    -0.265 C  
HETATM   30  C   UNL     1     -10.668   9.797  70.677  1.00  0.00    -0.394 C  
HETATM   31  C   UNL     1     -11.827  10.632  70.137  1.00  0.00    -0.421 C  
HETATM   32  C   UNL     1     -12.867  10.918  71.215  1.00  0.00    -0.536 C  
HETATM   33  C   UNL     1     -13.365   9.634  71.870  1.00  0.00    -0.526 C  
HETATM   34  C   UNL     1     -12.210   8.802  72.427  1.00  0.00    -0.396 C  
ENDBRANCH  27  29
ENDBRANCH  25  27
ENDBRANCH  23  25
ENDBRANCH  20  23
ENDBRANCH  17  20
ENDBRANCH  13  14
ENDBRANCH  12  13
ENDBRANCH  10  12
ENDBRANCH   5   8
TORSDOF 9
ENDMDL
MODEL       40
REMARK 921   NORMALIZED FREE ENERGY PREDICTED BY IDOCK:   -6.36 KCAL/MOL
REMARK 922        TOTAL FREE ENERGY PREDICTED BY IDOCK:  -11.20 KCAL/MOL
REMARK 923 INTER-LIGAND FREE ENERGY PREDICTED BY IDOCK:  -10.37 KCAL/MOL
REMARK 924 INTRA-LIGAND FREE ENERGY PREDICTED BY IDOCK:   -0.82 KCAL/MOL
REMARK 927      BINDING AFFINITY PREDICTED BY RF-SCORE:    0.00 PKD
ROOT
HETATM    1  C   UNL     1     -10.382  18.677  66.250  1.00  0.00    -0.483 C  
HETATM    2  C   UNL     1     -10.595  17.277  65.769  1.00  0.00    -0.194 A  
HETATM    3  N   UNL     1     -11.251  17.109  64.593  1.00  0.00    -0.959 NA 
HETATM    4  C   UNL     1     -11.455  15.824  64.208  1.00  0.00    -0.198 A  
HETATM    5  C   UNL     1     -11.019  14.745  64.961  1.00  0.00    -0.414 A  
HETATM    6  C   UNL     1     -10.147  16.185  66.512  1.00  0.00    -0.291 A  
HETATM    7  N   UNL     1     -10.343  14.895  66.137  1.00  0.00    -0.288 NA 
ENDROOT
BRANCH   5   8
HETATM    8  C   UNL     1     -11.327  13.362  64.501  1.00  0.00    -0.366 C  
HETATM    9  O   UNL     1     -12.481  12.949  64.484  1.00  0.00    -0.512 OA 
HETATM   10  N   UNL     1     -10.237  12.599  64.129  1.00  0.00    -0.529 N  
HETATM   11  H   UNL     1      -9.315  13.033  64.091  1.00  0.00     0.000 HD 
BRANCH  10  12
HETATM   12  C   UNL     1     -10.374  11.196  63.791  1.00  0.00    -0.386 C  
BRANCH  12  13
HETATM   13  C   UNL     1      -9.501  10.279  64.663  1.00  0.00    -0.351 C  
BRANCH  13  14
HETATM   14  C   UNL     1     -10.029  10.049  66.067  1.00  0.00    -0.334 A  
HETATM   15  C   UNL     1     -10.543  11.100  66.841  1.00  0.00    -0.304 A  
HETATM   16  C   UNL     1     -10.983  10.884  68.149  1.00  0.00    -0.302 A  
HETATM   17  C   UNL     1     -10.974   9.597  68.683  1.00  0.00    -0.111 A  
HETATM   18  C   UNL     1     -10.512   8.525  67.913  1.00  0.00    -0.262 A  
HETATM   19  C   UNL     1     -10.049   8.752  66.612  1.00  0.00    -0.358 A  
BRANCH  17  20
HETATM   20  S   UNL     1     -11.411   9.364  70.390  1.00  0.00    -0.226 S  
HETATM   21  O   UNL     1     -12.326  10.410  70.790  1.00  0.00    -0.311 OA 
HETATM   22  O   UNL     1     -10.178   9.153  71.124  1.00  0.00    -0.262 OA 
BRANCH  20  23
HETATM   23  N   UNL     1     -12.185   7.891  70.430  1.00  0.00    -0.385 N  
HETATM   24  H   UNL     1     -12.229   7.355  69.563  1.00  0.00     0.000 HD 
BRANCH  23  25
HETATM   25  C   UNL     1     -12.773   7.342  71.556  1.00  0.00    -0.372 C  
HETATM   26  O   UNL     1     -13.979   7.318  71.737  1.00  0.00    -0.375 OA 
BRANCH  25  27
HETATM   27  N   UNL     1     -11.871   6.811  72.435  1.00  0.00    -0.462 N  
HETATM   28  H   UNL     1     -11.619   7.333  73.275  1.00  0.00     0.000 HD 
BRANCH  27  29
HETATM   29  C   UNL     1     -11.266   5.507  72.186  1.00  0.00    -0.183 C  
HETATM   30  C   UNL     1      -9.824   5.645  71.685  1.00  0.00    -0.213 C  
HETATM   31  C   UNL     1      -8.839   6.026  72.789  1.00  0.00    -0.123 C  
HETATM   32  C   UNL     1      -8.935   5.081  73.982  1.00  0.00    -0.113 C  
HETATM   33  C   UNL     1     -10.361   4.993  74.515  1.00  0.00    -0.315 C  
HETATM   34  C   UNL     1     -11.348   4.596  73.419  1.00  0.00    -0.394 C  
ENDBRANCH  27  29
ENDBRANCH  25  27
ENDBRANCH  23  25
ENDBRANCH  20  23
ENDBRANCH  17  20
ENDBRANCH  13  14
ENDBRANCH  12  13
ENDBRANCH  10  12
ENDBRANCH   5   8
TORSDOF 9
ENDMDL
MODEL       41
REMARK 921   NORMALIZED FREE ENERGY PREDICTED BY IDOCK:   -6.33 KCAL/MOL
REMARK 922        TOTAL FREE ENERGY PREDICTED BY IDOCK:  -11.15 KCAL/MOL
REMARK 923 INTER-LIGAND FREE ENERGY PREDICTED BY IDOCK:   -9.79 KCAL/MOL
REMARK 924 INTRA-LIGAND FREE ENERGY PREDICTED BY IDOCK:   -1.36 KCAL/MOL
REMARK 927      BINDING AFFINITY PREDICTED BY RF-SCORE:    0.00 PKD
ROOT
HETATM    1  C   UNL     1     -11.900  14.683  69.983  1.00  0.00    -0.363 C  
HETATM    2  C   UNL     1     -12.265  13.291  70.393  1.00  0.00    -0.332 A  
HETATM    3  N   UNL     1     -12.977  13.139  71.537  1.00  0.00    -0.359 NA 
HETATM    4  C   UNL     1     -13.259  11.860  71.893  1.00  0.00    -0.362 A  
HETATM    5  C   UNL     1     -12.852  10.772  71.136  1.00  0.00    -0.414 A  
HETATM    6  C   UNL     1     -11.873  12.191  69.630  1.00  0.00    -0.322 A  
HETATM    7  N   UNL     1     -12.150  10.907  69.974  1.00  0.00    -0.329 NA 
ENDROOT
BRANCH   5   8
HETATM    8  C   UNL     1     -13.152   9.395  71.618  1.00  0.00    -0.394 C  
HETATM    9  O   UNL     1     -13.852   9.216  72.609  1.00  0.00    -0.470 OA 
HETATM   10  N   UNL     1     -12.577   8.369  70.893  1.00  0.00    -0.496 N  
HETATM   11  H   UNL     1     -12.075   8.588  70.033  1.00  0.00     0.000 HD 
BRANCH  10  12
HETATM   12  C   UNL     1     -12.672   6.989  71.327  1.00  0.00    -0.351 C  
BRANCH  12  13
HETATM   13  C   UNL     1     -11.426   6.161  70.974  1.00  0.00    -0.316 C  
BRANCH  13  14
HETATM   14  C   UNL     1     -10.607   6.709  69.819  1.00  0.00    -0.270 A  
HETATM   15  C   UNL     1      -9.433   7.446  70.034  1.00  0.00    -0.161 A  
HETATM   16  C   UNL     1      -8.714   7.985  68.966  1.00  0.00    -0.137 A  
HETATM   17  C   UNL     1      -9.125   7.741  67.657  1.00  0.00    -0.133 A  
HETATM   18  C   UNL     1     -10.264   6.967  67.415  1.00  0.00    -0.278 A  
HETATM   19  C   UNL     1     -10.994   6.451  68.492  1.00  0.00    -0.396 A  
BRANCH  17  20
HETATM   20  S   UNL     1      -8.275   8.544  66.318  1.00  0.00    -0.114 S  
HETATM   21  O   UNL     1      -7.331   7.617  65.734  1.00  0.00    -0.067 OA 
HETATM   22  O   UNL     1      -7.824   9.833  66.807  1.00  0.00    -0.101 OA 
BRANCH  20  23
HETATM   23  N   UNL     1      -9.469   8.904  65.215  1.00  0.00    -0.447 N  
HETATM   24  H   UNL     1     -10.239   8.241  65.118  1.00  0.00     0.000 HD 
BRANCH  23  25
HETATM   25  C   UNL     1      -9.491  10.036  64.422  1.00  0.00    -0.286 C  
HETATM   26  O   UNL     1      -8.693  10.239  63.522  1.00  0.00    -0.175 OA 
BRANCH  25  27
HETATM   27  N   UNL     1     -10.508  10.896  64.731  1.00  0.00    -0.325 N  
HETATM   28  H   UNL     1     -11.264  10.584  65.339  1.00  0.00     0.000 HD 
BRANCH  27  29
HETATM   29  C   UNL     1     -10.522  12.256  64.200  1.00  0.00    -0.375 C  
HETATM   30  C   UNL     1     -11.846  12.567  63.493  1.00  0.00    -0.616 C  
HETATM   31  C   UNL     1     -13.002  12.804  64.462  1.00  0.00    -0.210 C  
HETATM   32  C   UNL     1     -12.657  13.861  65.506  1.00  0.00    -0.560 C  
HETATM   33  C   UNL     1     -11.370  13.517  66.249  1.00  0.00    -0.327 C  
HETATM   34  C   UNL     1     -10.206  13.294  65.285  1.00  0.00    -0.303 C  
ENDBRANCH  27  29
ENDBRANCH  25  27
ENDBRANCH  23  25
ENDBRANCH  20  23
ENDBRANCH  17  20
ENDBRANCH  13  14
ENDBRANCH  12  13
ENDBRANCH  10  12
ENDBRANCH   5   8
TORSDOF 9
ENDMDL
MODEL       42
REMARK 921   NORMALIZED FREE ENERGY PREDICTED BY IDOCK:   -6.33 KCAL/MOL
REMARK 922        TOTAL FREE ENERGY PREDICTED BY IDOCK:  -11.15 KCAL/MOL
REMARK 923 INTER-LIGAND FREE ENERGY PREDICTED BY IDOCK:   -9.93 KCAL/MOL
REMARK 924 INTRA-LIGAND FREE ENERGY PREDICTED BY IDOCK:   -1.22 KCAL/MOL
REMARK 927      BINDING AFFINITY PREDICTED BY RF-SCORE:    0.00 PKD
ROOT
HETATM    1  C   UNL     1      -9.125  19.662  68.534  1.00  0.00    -0.368 C  
HETATM    2  C   UNL     1      -9.712  18.680  67.571  1.00  0.00    -0.310 A  
HETATM    3  N   UNL     1      -9.739  17.375  67.941  1.00  0.00    -0.264 NA 
HETATM    4  C   UNL     1     -10.247  16.511  67.026  1.00  0.00    -0.288 A  
HETATM    5  C   UNL     1     -10.717  16.929  65.791  1.00  0.00    -0.160 A  
HETATM    6  C   UNL     1     -10.201  19.093  66.331  1.00  0.00    -0.438 A  
HETATM    7  N   UNL     1     -10.714  18.239  65.408  1.00  0.00    -0.533 NA 
ENDROOT
BRANCH   5   8
HETATM    8  C   UNL     1     -11.211  15.916  64.817  1.00  0.00    -0.355 C  
HETATM    9  O   UNL     1     -11.857  16.255  63.832  1.00  0.00    -0.994 OA 
HETATM   10  N   UNL     1     -10.910  14.602  65.118  1.00  0.00    -0.373 N  
HETATM   11  H   UNL     1     -10.299  14.399  65.909  1.00  0.00     0.000 HD 
BRANCH  10  12
HETATM   12  C   UNL     1     -11.442  13.504  64.334  1.00  0.00    -0.394 C  
BRANCH  12  13
HETATM   13  C   UNL     1     -12.065  12.395  65.198  1.00  0.00    -0.464 C  
BRANCH  13  14
HETATM   14  C   UNL     1     -11.089  11.688  66.122  1.00  0.00    -0.335 A  
HETATM   15  C   UNL     1     -10.142  10.776  65.634  1.00  0.00    -0.327 A  
HETATM   16  C   UNL     1      -9.281  10.099  66.500  1.00  0.00    -0.182 A  
HETATM   17  C   UNL     1      -9.313  10.369  67.866  1.00  0.00    -0.138 A  
HETATM   18  C   UNL     1     -10.215  11.311  68.371  1.00  0.00    -0.205 A  
HETATM   19  C   UNL     1     -11.091  11.969  67.501  1.00  0.00    -0.331 A  
BRANCH  17  20
HETATM   20  S   UNL     1      -8.305   9.401  68.965  1.00  0.00    -0.129 S  
HETATM   21  O   UNL     1      -6.920   9.781  68.793  1.00  0.00    -0.064 OA 
HETATM   22  O   UNL     1      -8.706   8.016  68.807  1.00  0.00    -0.131 OA 
BRANCH  20  23
HETATM   23  N   UNL     1      -8.821   9.821  70.491  1.00  0.00    -0.313 N  
HETATM   24  H   UNL     1      -8.828  10.812  70.733  1.00  0.00     0.000 HD 
BRANCH  23  25
HETATM   25  C   UNL     1      -9.241   8.921  71.453  1.00  0.00    -0.258 C  
HETATM   26  O   UNL     1      -8.494   8.125  71.998  1.00  0.00    -0.127 OA 
BRANCH  25  27
HETATM   27  N   UNL     1     -10.572   9.025  71.750  1.00  0.00    -0.354 N  
HETATM   28  H   UNL     1     -10.865   9.135  72.721  1.00  0.00     0.000 HD 
BRANCH  27  29
HETATM   29  C   UNL     1     -11.577   8.980  70.693  1.00  0.00    -0.224 C  
HETATM   30  C   UNL     1     -12.023   7.542  70.404  1.00  0.00     0.004 C  
HETATM   31  C   UNL     1     -12.950   6.974  71.477  1.00  0.00    -0.411 C  
HETATM   32  C   UNL     1     -14.139   7.892  71.739  1.00  0.00    -0.520 C  
HETATM   33  C   UNL     1     -13.690   9.308  72.085  1.00  0.00    -0.517 C  
HETATM   34  C   UNL     1     -12.775   9.887  71.008  1.00  0.00    -0.425 C  
ENDBRANCH  27  29
ENDBRANCH  25  27
ENDBRANCH  23  25
ENDBRANCH  20  23
ENDBRANCH  17  20
ENDBRANCH  13  14
ENDBRANCH  12  13
ENDBRANCH  10  12
ENDBRANCH   5   8
TORSDOF 9
ENDMDL
MODEL       43
REMARK 921   NORMALIZED FREE ENERGY PREDICTED BY IDOCK:   -6.33 KCAL/MOL
REMARK 922        TOTAL FREE ENERGY PREDICTED BY IDOCK:  -11.15 KCAL/MOL
REMARK 923 INTER-LIGAND FREE ENERGY PREDICTED BY IDOCK:   -9.85 KCAL/MOL
REMARK 924 INTRA-LIGAND FREE ENERGY PREDICTED BY IDOCK:   -1.30 KCAL/MOL
REMARK 927      BINDING AFFINITY PREDICTED BY RF-SCORE:    0.00 PKD
ROOT
HETATM    1  C   UNL     1     -12.169  12.918  63.311  1.00  0.00    -0.481 C  
HETATM    2  C   UNL     1     -11.955  13.271  64.749  1.00  0.00    -0.388 A  
HETATM    3  N   UNL     1     -12.108  12.284  65.667  1.00  0.00    -0.578 NA 
HETATM    4  C   UNL     1     -11.939  12.651  66.963  1.00  0.00    -0.260 A  
HETATM    5  C   UNL     1     -11.624  13.950  67.332  1.00  0.00    -0.368 A  
HETATM    6  C   UNL     1     -11.622  14.571  65.129  1.00  0.00    -0.371 A  
HETATM    7  N   UNL     1     -11.448  14.950  66.421  1.00  0.00    -0.321 NA 
ENDROOT
BRANCH   5   8
HETATM    8  C   UNL     1     -11.506  14.289  68.777  1.00  0.00    -0.296 C  
HETATM    9  O   UNL     1     -10.543  14.921  69.198  1.00  0.00    -0.233 OA 
HETATM   10  N   UNL     1     -12.529  13.829  69.584  1.00  0.00    -0.299 N  
HETATM   11  H   UNL     1     -13.340  13.382  69.156  1.00  0.00     0.000 HD 
BRANCH  10  12
HETATM   12  C   UNL     1     -12.477  13.969  71.027  1.00  0.00    -0.371 C  
BRANCH  12  13
HETATM   13  C   UNL     1     -13.343  12.932  71.762  1.00  0.00    -0.451 C  
BRANCH  13  14
HETATM   14  C   UNL     1     -12.922  11.489  71.549  1.00  0.00    -0.485 A  
HETATM   15  C   UNL     1     -13.612  10.425  72.149  1.00  0.00    -0.202 A  
HETATM   16  C   UNL     1     -13.187   9.106  71.982  1.00  0.00    -0.505 A  
HETATM   17  C   UNL     1     -12.099   8.823  71.160  1.00  0.00    -0.267 A  
HETATM   18  C   UNL     1     -11.425   9.863  70.511  1.00  0.00    -0.391 A  
HETATM   19  C   UNL     1     -11.841  11.186  70.702  1.00  0.00    -0.403 A  
BRANCH  17  20
HETATM   20  S   UNL     1     -11.492   7.155  71.068  1.00  0.00    -0.312 S  
HETATM   21  O   UNL     1     -12.257   6.324  71.972  1.00  0.00    -0.338 OA 
HETATM   22  O   UNL     1     -10.047   7.216  71.179  1.00  0.00    -0.188 OA 
BRANCH  20  23
HETATM   23  N   UNL     1     -11.777   6.689  69.495  1.00  0.00    -0.657 N  
HETATM   24  H   UNL     1     -12.748   6.598  69.195  1.00  0.00     0.000 HD 
BRANCH  23  25
HETATM   25  C   UNL     1     -10.789   6.415  68.566  1.00  0.00    -0.314 C  
HETATM   26  O   UNL     1     -10.549   5.291  68.155  1.00  0.00    -0.120 OA 
BRANCH  25  27
HETATM   27  N   UNL     1     -10.124   7.529  68.137  1.00  0.00    -0.176 N  
HETATM   28  H   UNL     1      -9.687   8.149  68.818  1.00  0.00     0.000 HD 
BRANCH  27  29
HETATM   29  C   UNL     1     -10.030   7.839  66.713  1.00  0.00    -0.261 C  
HETATM   30  C   UNL     1     -10.170   9.344  66.458  1.00  0.00    -0.308 C  
HETATM   31  C   UNL     1      -8.920  10.136  66.837  1.00  0.00    -0.146 C  
HETATM   32  C   UNL     1      -7.669   9.565  66.178  1.00  0.00    -0.101 C  
HETATM   33  C   UNL     1      -7.501   8.081  66.484  1.00  0.00    -0.088 C  
HETATM   34  C   UNL     1      -8.742   7.281  66.092  1.00  0.00    -0.170 C  
ENDBRANCH  27  29
ENDBRANCH  25  27
ENDBRANCH  23  25
ENDBRANCH  20  23
ENDBRANCH  17  20
ENDBRANCH  13  14
ENDBRANCH  12  13
ENDBRANCH  10  12
ENDBRANCH   5   8
TORSDOF 9
ENDMDL
MODEL       44
REMARK 921   NORMALIZED FREE ENERGY PREDICTED BY IDOCK:   -6.32 KCAL/MOL
REMARK 922        TOTAL FREE ENERGY PREDICTED BY IDOCK:  -11.14 KCAL/MOL
REMARK 923 INTER-LIGAND FREE ENERGY PREDICTED BY IDOCK:   -9.11 KCAL/MOL
REMARK 924 INTRA-LIGAND FREE ENERGY PREDICTED BY IDOCK:   -2.03 KCAL/MOL
REMARK 927      BINDING AFFINITY PREDICTED BY RF-SCORE:    0.00 PKD
ROOT
HETATM    1  C   UNL     1     -10.395   5.039  70.137  1.00  0.00    -0.306 C  
HETATM    2  C   UNL     1     -10.027   6.054  69.102  1.00  0.00    -0.162 A  
HETATM    3  N   UNL     1      -8.817   6.657  69.213  1.00  0.00    -0.133 NA 
HETATM    4  C   UNL     1      -8.535   7.596  68.275  1.00  0.00    -0.125 A  
HETATM    5  C   UNL     1      -9.422   7.920  67.259  1.00  0.00    -0.149 A  
HETATM    6  C   UNL     1     -10.906   6.377  68.067  1.00  0.00    -0.316 A  
HETATM    7  N   UNL     1     -10.635   7.312  67.121  1.00  0.00    -0.321 NA 
ENDROOT
BRANCH   5   8
HETATM    8  C   UNL     1      -9.065   8.999  66.297  1.00  0.00    -0.179 C  
HETATM    9  O   UNL     1      -8.008   9.611  66.403  1.00  0.00    -0.107 OA 
HETATM   10  N   UNL     1     -10.004   9.262  65.318  1.00  0.00    -0.345 N  
HETATM   11  H   UNL     1     -10.824   8.660  65.239  1.00  0.00     0.000 HD 
BRANCH  10  12
HETATM   12  C   UNL     1      -9.851  10.374  64.400  1.00  0.00    -0.328 C  
BRANCH  12  13
HETATM   13  C   UNL     1     -11.033  11.357  64.443  1.00  0.00    -0.371 C  
BRANCH  13  14
HETATM   14  C   UNL     1     -10.960  12.387  65.556  1.00  0.00    -0.328 A  
HETATM   15  C   UNL     1      -9.749  12.700  66.190  1.00  0.00    -0.253 A  
HETATM   16  C   UNL     1      -9.703  13.616  67.244  1.00  0.00    -0.243 A  
HETATM   17  C   UNL     1     -10.862  14.280  67.639  1.00  0.00    -0.268 A  
HETATM   18  C   UNL     1     -12.072  14.021  66.990  1.00  0.00    -0.455 A  
HETATM   19  C   UNL     1     -12.116  13.085  65.950  1.00  0.00    -0.503 A  
BRANCH  17  20
HETATM   20  S   UNL     1     -10.809  15.339  69.067  1.00  0.00    -0.259 S  
HETATM   21  O   UNL     1     -11.891  16.295  68.985  1.00  0.00    -0.267 OA 
HETATM   22  O   UNL     1      -9.440  15.797  69.211  1.00  0.00    -0.238 OA 
BRANCH  20  23
HETATM   23  N   UNL     1     -11.053  14.318  70.359  1.00  0.00    -0.473 N  
HETATM   24  H   UNL     1     -10.266  14.151  70.986  1.00  0.00     0.000 HD 
BRANCH  23  25
HETATM   25  C   UNL     1     -12.247  13.679  70.641  1.00  0.00    -0.360 C  
HETATM   26  O   UNL     1     -13.338  14.209  70.507  1.00  0.00    -0.131 OA 
BRANCH  25  27
HETATM   27  N   UNL     1     -12.086  12.390  71.064  1.00  0.00    -0.357 N  
HETATM   28  H   UNL     1     -11.688  12.207  71.985  1.00  0.00     0.000 HD 
BRANCH  27  29
HETATM   29  C   UNL     1     -12.477  11.271  70.211  1.00  0.00    -0.250 C  
HETATM   30  C   UNL     1     -11.271  10.683  69.470  1.00  0.00    -0.331 C  
HETATM   31  C   UNL     1     -10.367   9.841  70.368  1.00  0.00    -0.354 C  
HETATM   32  C   UNL     1     -11.153   8.766  71.110  1.00  0.00    -0.340 C  
HETATM   33  C   UNL     1     -12.316   9.361  71.895  1.00  0.00    -0.450 C  
HETATM   34  C   UNL     1     -13.233  10.192  70.999  1.00  0.00    -0.412 C  
ENDBRANCH  27  29
ENDBRANCH  25  27
ENDBRANCH  23  25
ENDBRANCH  20  23
ENDBRANCH  17  20
ENDBRANCH  13  14
ENDBRANCH  12  13
ENDBRANCH  10  12
ENDBRANCH   5   8
TORSDOF 9
ENDMDL
MODEL       45
REMARK 921   NORMALIZED FREE ENERGY PREDICTED BY IDOCK:   -6.31 KCAL/MOL
REMARK 922        TOTAL FREE ENERGY PREDICTED BY IDOCK:  -11.13 KCAL/MOL
REMARK 923 INTER-LIGAND FREE ENERGY PREDICTED BY IDOCK:   -9.15 KCAL/MOL
REMARK 924 INTRA-LIGAND FREE ENERGY PREDICTED BY IDOCK:   -1.98 KCAL/MOL
REMARK 927      BINDING AFFINITY PREDICTED BY RF-SCORE:    0.00 PKD
ROOT
HETATM    1  C   UNL     1     -11.928  13.337  63.620  1.00  0.00    -0.547 C  
HETATM    2  C   UNL     1     -11.094  12.162  64.021  1.00  0.00    -0.386 A  
HETATM    3  N   UNL     1     -10.331  11.577  63.064  1.00  0.00    -0.290 NA 
HETATM    4  C   UNL     1      -9.616  10.493  63.458  1.00  0.00    -0.326 A  
HETATM    5  C   UNL     1      -9.654  10.011  64.758  1.00  0.00    -0.308 A  
HETATM    6  C   UNL     1     -11.114  11.679  65.329  1.00  0.00    -0.236 A  
HETATM    7  N   UNL     1     -10.402  10.597  65.737  1.00  0.00    -0.244 NA 
ENDROOT
BRANCH   5   8
HETATM    8  C   UNL     1      -8.884   8.784  65.104  1.00  0.00    -0.133 C  
HETATM    9  O   UNL     1      -7.730   8.638  64.716  1.00  0.00    -0.097 OA 
HETATM   10  N   UNL     1      -9.563   7.844  65.854  1.00  0.00    -0.425 N  
HETATM   11  H   UNL     1     -10.492   8.067  66.211  1.00  0.00     0.000 HD 
BRANCH  10  12
HETATM   12  C   UNL     1      -8.984   6.547  66.148  1.00  0.00    -0.146 C  
BRANCH  12  13
HETATM   13  C   UNL     1      -8.212   6.520  67.477  1.00  0.00    -0.121 C  
BRANCH  13  14
HETATM   14  C   UNL     1      -9.085   6.412  68.715  1.00  0.00    -0.125 A  
HETATM   15  C   UNL     1     -10.469   6.202  68.623  1.00  0.00    -0.285 A  
HETATM   16  C   UNL     1     -11.267   6.151  69.767  1.00  0.00    -0.494 A  
HETATM   17  C   UNL     1     -10.683   6.246  71.029  1.00  0.00    -0.259 A  
HETATM   18  C   UNL     1      -9.299   6.406  71.148  1.00  0.00    -0.166 A  
HETATM   19  C   UNL     1      -8.507   6.481  69.996  1.00  0.00    -0.135 A  
BRANCH  17  20
HETATM   20  S   UNL     1     -11.729   6.312  72.465  1.00  0.00    -0.142 S  
HETATM   21  O   UNL     1     -11.166   7.246  73.415  1.00  0.00    -0.262 OA 
HETATM   22  O   UNL     1     -12.002   4.944  72.861  1.00  0.00    -0.153 OA 
BRANCH  20  23
HETATM   23  N   UNL     1     -13.185   6.889  71.900  1.00  0.00    -0.523 N  
HETATM   24  H   UNL     1     -13.846   6.214  71.517  1.00  0.00     0.000 HD 
BRANCH  23  25
HETATM   25  C   UNL     1     -13.561   8.220  71.914  1.00  0.00    -0.357 C  
HETATM   26  O   UNL     1     -14.387   8.675  72.687  1.00  0.00    -0.533 OA 
BRANCH  25  27
HETATM   27  N   UNL     1     -12.900   8.980  70.990  1.00  0.00    -0.510 N  
HETATM   28  H   UNL     1     -13.009   8.774  69.997  1.00  0.00     0.000 HD 
BRANCH  27  29
HETATM   29  C   UNL     1     -12.042  10.084  71.408  1.00  0.00    -0.407 C  
HETATM   30  C   UNL     1     -10.569   9.798  71.094  1.00  0.00    -0.215 C  
HETATM   31  C   UNL     1     -10.233   9.940  69.611  1.00  0.00    -0.261 C  
HETATM   32  C   UNL     1     -10.678  11.290  69.058  1.00  0.00    -0.257 C  
HETATM   33  C   UNL     1     -12.158  11.545  69.320  1.00  0.00    -0.344 C  
HETATM   34  C   UNL     1     -12.496  11.420  70.804  1.00  0.00    -0.460 C  
ENDBRANCH  27  29
ENDBRANCH  25  27
ENDBRANCH  23  25
ENDBRANCH  20  23
ENDBRANCH  17  20
ENDBRANCH  13  14
ENDBRANCH  12  13
ENDBRANCH  10  12
ENDBRANCH   5   8
TORSDOF 9
ENDMDL
MODEL       46
REMARK 921   NORMALIZED FREE ENERGY PREDICTED BY IDOCK:   -6.30 KCAL/MOL
REMARK 922        TOTAL FREE ENERGY PREDICTED BY IDOCK:  -11.11 KCAL/MOL
REMARK 923 INTER-LIGAND FREE ENERGY PREDICTED BY IDOCK:  -10.42 KCAL/MOL
REMARK 924 INTRA-LIGAND FREE ENERGY PREDICTED BY IDOCK:   -0.68 KCAL/MOL
REMARK 927      BINDING AFFINITY PREDICTED BY RF-SCORE:    0.00 PKD
ROOT
HETATM    1  C   UNL     1     -12.506  12.162  63.152  1.00  0.00    -0.365 C  
HETATM    2  C   UNL     1     -12.120  12.889  64.401  1.00  0.00    -0.410 A  
HETATM    3  N   UNL     1     -12.366  12.276  65.586  1.00  0.00    -0.563 NA 
HETATM    4  C   UNL     1     -12.035  12.982  66.697  1.00  0.00    -0.387 A  
HETATM    5  C   UNL     1     -11.474  14.248  66.632  1.00  0.00    -0.364 A  
HETATM    6  C   UNL     1     -11.542  14.158  64.346  1.00  0.00    -0.362 A  
HETATM    7  N   UNL     1     -11.203  14.872  65.450  1.00  0.00    -0.349 NA 
ENDROOT
BRANCH   5   8
HETATM    8  C   UNL     1     -11.186  14.984  67.895  1.00  0.00    -0.323 C  
HETATM    9  O   UNL     1     -10.120  15.569  68.051  1.00  0.00    -0.221 OA 
HETATM   10  N   UNL     1     -12.178  14.935  68.855  1.00  0.00    -0.578 N  
HETATM   11  H   UNL     1     -13.071  14.499  68.627  1.00  0.00     0.000 HD 
BRANCH  10  12
HETATM   12  C   UNL     1     -11.979  15.490  70.180  1.00  0.00    -0.366 C  
BRANCH  12  13
HETATM   13  C   UNL     1     -12.905  14.868  71.238  1.00  0.00    -0.419 C  
BRANCH  13  14
HETATM   14  C   UNL     1     -12.862  13.352  71.305  1.00  0.00    -0.407 A  
HETATM   15  C   UNL     1     -13.647  12.633  72.219  1.00  0.00    -0.508 A  
HETATM   16  C   UNL     1     -13.564  11.242  72.303  1.00  0.00     0.070 A  
HETATM   17  C   UNL     1     -12.737  10.540  71.429  1.00  0.00    -0.442 A  
HETATM   18  C   UNL     1     -11.981  11.230  70.476  1.00  0.00    -0.467 A  
HETATM   19  C   UNL     1     -12.051  12.627  70.413  1.00  0.00    -0.381 A  
BRANCH  17  20
HETATM   20  S   UNL     1     -12.543   8.785  71.640  1.00  0.00    -0.362 S  
HETATM   21  O   UNL     1     -13.813   8.138  71.396  1.00  0.00    -0.320 OA 
HETATM   22  O   UNL     1     -11.848   8.578  72.896  1.00  0.00    -0.238 OA 
BRANCH  20  23
HETATM   23  N   UNL     1     -11.447   8.338  70.470  1.00  0.00    -0.401 N  
HETATM   24  H   UNL     1     -10.917   9.078  70.008  1.00  0.00     0.000 HD 
BRANCH  23  25
HETATM   25  C   UNL     1     -11.204   7.034  70.078  1.00  0.00    -0.269 C  
HETATM   26  O   UNL     1     -10.920   6.720  68.934  1.00  0.00    -0.242 OA 
BRANCH  25  27
HETATM   27  N   UNL     1     -11.292   6.134  71.103  1.00  0.00    -0.296 N  
HETATM   28  H   UNL     1     -12.178   5.663  71.286  1.00  0.00     0.000 HD 
BRANCH  27  29
HETATM   29  C   UNL     1     -10.132   5.839  71.939  1.00  0.00    -0.185 C  
HETATM   30  C   UNL     1     -10.553   5.381  73.340  1.00  0.00    -0.297 C  
HETATM   31  C   UNL     1     -11.089   3.951  73.368  1.00  0.00    -0.329 C  
HETATM   32  C   UNL     1     -10.116   2.971  72.722  1.00  0.00    -0.226 C  
HETATM   33  C   UNL     1      -9.747   3.398  71.305  1.00  0.00    -0.227 C  
HETATM   34  C   UNL     1      -9.195   4.822  71.273  1.00  0.00    -0.191 C  
ENDBRANCH  27  29
ENDBRANCH  25  27
ENDBRANCH  23  25
ENDBRANCH  20  23
ENDBRANCH  17  20
ENDBRANCH  13  14
ENDBRANCH  12  13
ENDBRANCH  10  12
ENDBRANCH   5   8
TORSDOF 9
ENDMDL
MODEL       47
REMARK 921   NORMALIZED FREE ENERGY PREDICTED BY IDOCK:   -6.29 KCAL/MOL
REMARK 922        TOTAL FREE ENERGY PREDICTED BY IDOCK:  -11.10 KCAL/MOL
REMARK 923 INTER-LIGAND FREE ENERGY PREDICTED BY IDOCK:   -9.39 KCAL/MOL
REMARK 924 INTRA-LIGAND FREE ENERGY PREDICTED BY IDOCK:   -1.71 KCAL/MOL
REMARK 927      BINDING AFFINITY PREDICTED BY RF-SCORE:    0.00 PKD
ROOT
HETATM    1  C   UNL     1     -12.708  15.270  70.896  1.00  0.00    -0.496 C  
HETATM    2  C   UNL     1     -12.771  13.787  71.084  1.00  0.00    -0.362 A  
HETATM    3  N   UNL     1     -13.505  13.316  72.123  1.00  0.00    -0.528 NA 
HETATM    4  C   UNL     1     -13.509  11.968  72.280  1.00  0.00    -0.134 A  
HETATM    5  C   UNL     1     -12.814  11.119  71.433  1.00  0.00    -0.439 A  
HETATM    6  C   UNL     1     -12.086  12.924  70.227  1.00  0.00    -0.302 A  
HETATM    7  N   UNL     1     -12.085  11.574  70.373  1.00  0.00    -0.372 NA 
ENDROOT
BRANCH   5   8
HETATM    8  C   UNL     1     -12.822   9.654  71.700  1.00  0.00    -0.405 C  
HETATM    9  O   UNL     1     -13.197   9.215  72.782  1.00  0.00    -0.394 OA 
HETATM   10  N   UNL     1     -12.365   8.855  70.669  1.00  0.00    -0.486 N  
HETATM   11  H   UNL     1     -12.147   9.281  69.769  1.00  0.00     0.000 HD 
BRANCH  10  12
HETATM   12  C   UNL     1     -12.191   7.426  70.838  1.00  0.00    -0.231 C  
BRANCH  12  13
HETATM   13  C   UNL     1     -10.832   6.921  70.324  1.00  0.00    -0.294 C  
BRANCH  13  14
HETATM   14  C   UNL     1      -9.985   7.975  69.633  1.00  0.00    -0.188 A  
HETATM   15  C   UNL     1      -9.129   8.820  70.355  1.00  0.00    -0.198 A  
HETATM   16  C   UNL     1      -8.390   9.816  69.712  1.00  0.00    -0.189 A  
HETATM   17  C   UNL     1      -8.448   9.941  68.326  1.00  0.00    -0.111 A  
HETATM   18  C   UNL     1      -9.256   9.077  67.580  1.00  0.00    -0.152 A  
HETATM   19  C   UNL     1     -10.013   8.097  68.232  1.00  0.00    -0.212 A  
BRANCH  17  20
HETATM   20  S   UNL     1      -7.606  11.296  67.543  1.00  0.00    -0.117 S  
HETATM   21  O   UNL     1      -7.498  11.029  66.125  1.00  0.00    -0.141 OA 
HETATM   22  O   UNL     1      -6.417  11.574  68.326  1.00  0.00    -0.052 OA 
BRANCH  20  23
HETATM   23  N   UNL     1      -8.596  12.610  67.795  1.00  0.00    -0.167 N  
HETATM   24  H   UNL     1      -9.144  12.633  68.656  1.00  0.00     0.000 HD 
BRANCH  23  25
HETATM   25  C   UNL     1      -8.730  13.673  66.920  1.00  0.00    -0.146 C  
HETATM   26  O   UNL     1      -8.204  14.759  67.100  1.00  0.00    -0.200 OA 
BRANCH  25  27
HETATM   27  N   UNL     1      -9.491  13.381  65.823  1.00  0.00    -0.487 N  
HETATM   28  H   UNL     1      -9.151  13.625  64.894  1.00  0.00     0.000 HD 
BRANCH  27  29
HETATM   29  C   UNL     1     -10.786  12.723  65.968  1.00  0.00    -0.276 C  
HETATM   30  C   UNL     1     -11.938  13.671  65.618  1.00  0.00    -0.422 C  
HETATM   31  C   UNL     1     -12.089  13.904  64.116  1.00  0.00    -0.464 C  
HETATM   32  C   UNL     1     -12.184  12.591  63.348  1.00  0.00    -0.613 C  
HETATM   33  C   UNL     1     -11.005  11.674  63.653  1.00  0.00    -0.507 C  
HETATM   34  C   UNL     1     -10.859  11.425  65.153  1.00  0.00    -0.302 C  
ENDBRANCH  27  29
ENDBRANCH  25  27
ENDBRANCH  23  25
ENDBRANCH  20  23
ENDBRANCH  17  20
ENDBRANCH  13  14
ENDBRANCH  12  13
ENDBRANCH  10  12
ENDBRANCH   5   8
TORSDOF 9
ENDMDL
MODEL       48
REMARK 921   NORMALIZED FREE ENERGY PREDICTED BY IDOCK:   -6.27 KCAL/MOL
REMARK 922        TOTAL FREE ENERGY PREDICTED BY IDOCK:  -11.06 KCAL/MOL
REMARK 923 INTER-LIGAND FREE ENERGY PREDICTED BY IDOCK:   -9.77 KCAL/MOL
REMARK 924 INTRA-LIGAND FREE ENERGY PREDICTED BY IDOCK:   -1.29 KCAL/MOL
REMARK 927      BINDING AFFINITY PREDICTED BY RF-SCORE:    0.00 PKD
ROOT
HETATM    1  C   UNL     1     -11.166  11.696  63.086  1.00  0.00    -0.180 C  
HETATM    2  C   UNL     1     -11.229  12.649  64.238  1.00  0.00    -0.362 A  
HETATM    3  N   UNL     1     -10.209  13.532  64.379  1.00  0.00    -0.324 NA 
HETATM    4  C   UNL     1     -10.285  14.355  65.455  1.00  0.00    -0.363 A  
HETATM    5  C   UNL     1     -11.340  14.307  66.354  1.00  0.00    -0.343 A  
HETATM    6  C   UNL     1     -12.293  12.618  65.139  1.00  0.00    -0.484 A  
HETATM    7  N   UNL     1     -12.382  13.438  66.218  1.00  0.00    -0.383 NA 
ENDROOT
BRANCH   5   8
HETATM    8  C   UNL     1     -11.328  15.207  67.541  1.00  0.00    -0.320 C  
HETATM    9  O   UNL     1     -10.777  16.301  67.494  1.00  0.00    -0.316 OA 
HETATM   10  N   UNL     1     -11.950  14.713  68.672  1.00  0.00    -0.510 N  
HETATM   11  H   UNL     1     -12.459  13.831  68.616  1.00  0.00     0.000 HD 
BRANCH  10  12
HETATM   12  C   UNL     1     -11.898  15.421  69.936  1.00  0.00    -0.350 C  
BRANCH  12  13
HETATM   13  C   UNL     1     -12.831  14.821  71.000  1.00  0.00    -0.415 C  
BRANCH  13  14
HETATM   14  C   UNL     1     -12.767  13.309  71.119  1.00  0.00    -0.404 A  
HETATM   15  C   UNL     1     -13.532  12.613  72.067  1.00  0.00    -0.516 A  
HETATM   16  C   UNL     1     -13.429  11.226  72.197  1.00  0.00    -0.197 A  
HETATM   17  C   UNL     1     -12.604  10.505  71.337  1.00  0.00    -0.434 A  
HETATM   18  C   UNL     1     -11.870  11.172  70.351  1.00  0.00    -0.462 A  
HETATM   19  C   UNL     1     -11.959  12.564  70.242  1.00  0.00    -0.364 A  
BRANCH  17  20
HETATM   20  S   UNL     1     -12.386   8.761  71.605  1.00  0.00    -0.357 S  
HETATM   21  O   UNL     1     -13.662   8.173  71.949  1.00  0.00    -0.346 OA 
HETATM   22  O   UNL     1     -11.247   8.602  72.490  1.00  0.00    -0.329 OA 
BRANCH  20  23
HETATM   23  N   UNL     1     -11.868   8.171  70.138  1.00  0.00    -0.401 N  
HETATM   24  H   UNL     1     -12.512   8.228  69.349  1.00  0.00     0.000 HD 
BRANCH  23  25
HETATM   25  C   UNL     1     -10.625   7.607  69.912  1.00  0.00    -0.235 C  
HETATM   26  O   UNL     1     -10.459   6.420  69.682  1.00  0.00    -0.194 OA 
BRANCH  25  27
HETATM   27  N   UNL     1      -9.603   8.514  69.950  1.00  0.00    -0.170 N  
HETATM   28  H   UNL     1      -9.406   9.016  70.816  1.00  0.00     0.000 HD 
BRANCH  27  29
HETATM   29  C   UNL     1      -8.789   8.771  68.766  1.00  0.00    -0.134 C  
HETATM   30  C   UNL     1      -9.652   8.852  67.501  1.00  0.00    -0.183 C  
HETATM   31  C   UNL     1     -10.438  10.157  67.394  1.00  0.00    -0.310 C  
HETATM   32  C   UNL     1      -9.532  11.375  67.540  1.00  0.00    -0.173 C  
HETATM   33  C   UNL     1      -8.720  11.321  68.829  1.00  0.00    -0.105 C  
HETATM   34  C   UNL     1      -7.919  10.024  68.934  1.00  0.00    -0.101 C  
ENDBRANCH  27  29
ENDBRANCH  25  27
ENDBRANCH  23  25
ENDBRANCH  20  23
ENDBRANCH  17  20
ENDBRANCH  13  14
ENDBRANCH  12  13
ENDBRANCH  10  12
ENDBRANCH   5   8
TORSDOF 9
ENDMDL
MODEL       49
REMARK 921   NORMALIZED FREE ENERGY PREDICTED BY IDOCK:   -6.24 KCAL/MOL
REMARK 922        TOTAL FREE ENERGY PREDICTED BY IDOCK:  -11.02 KCAL/MOL
REMARK 923 INTER-LIGAND FREE ENERGY PREDICTED BY IDOCK:   -9.27 KCAL/MOL
REMARK 924 INTRA-LIGAND FREE ENERGY PREDICTED BY IDOCK:   -1.75 KCAL/MOL
REMARK 927      BINDING AFFINITY PREDICTED BY RF-SCORE:    0.00 PKD
ROOT
HETATM    1  C   UNL     1     -12.841  15.527  73.812  1.00  0.00    -0.680 C  
HETATM    2  C   UNL     1     -12.439  15.303  72.389  1.00  0.00    -0.362 A  
HETATM    3  N   UNL     1     -12.666  14.076  71.857  1.00  0.00    -0.319 NA 
HETATM    4  C   UNL     1     -12.256  13.902  70.575  1.00  0.00    -0.373 A  
HETATM    5  C   UNL     1     -11.649  14.913  69.846  1.00  0.00    -0.289 A  
HETATM    6  C   UNL     1     -11.841  16.319  71.642  1.00  0.00    -0.416 A  
HETATM    7  N   UNL     1     -11.429  16.158  70.358  1.00  0.00    -0.362 NA 
ENDROOT
BRANCH   5   8
HETATM    8  C   UNL     1     -11.177  14.632  68.462  1.00  0.00    -0.271 C  
HETATM    9  O   UNL     1     -11.873  14.914  67.492  1.00  0.00    -0.350 OA 
HETATM   10  N   UNL     1      -9.940  14.025  68.363  1.00  0.00    -0.233 N  
HETATM   11  H   UNL     1      -9.380  13.894  69.205  1.00  0.00     0.000 HD 
BRANCH  10  12
HETATM   12  C   UNL     1      -9.418  13.572  67.089  1.00  0.00    -0.244 C  
BRANCH  12  13
HETATM   13  C   UNL     1      -9.225  12.048  67.026  1.00  0.00    -0.195 C  
BRANCH  13  14
HETATM   14  C   UNL     1      -9.916  11.275  68.135  1.00  0.00    -0.191 A  
HETATM   15  C   UNL     1      -9.190  10.656  69.164  1.00  0.00    -0.162 A  
HETATM   16  C   UNL     1      -9.835   9.910  70.153  1.00  0.00    -0.272 A  
HETATM   17  C   UNL     1     -11.225   9.823  70.164  1.00  0.00    -0.272 A  
HETATM   18  C   UNL     1     -11.974  10.473  69.178  1.00  0.00    -0.149 A  
HETATM   19  C   UNL     1     -11.320  11.199  68.176  1.00  0.00    -0.377 A  
BRANCH  17  20
HETATM   20  S   UNL     1     -12.017   8.761  71.350  1.00  0.00    -0.324 S  
HETATM   21  O   UNL     1     -13.341   9.271  71.630  1.00  0.00    -0.357 OA 
HETATM   22  O   UNL     1     -11.074   8.546  72.431  1.00  0.00    -0.361 OA 
BRANCH  20  23
HETATM   23  N   UNL     1     -12.130   7.286  70.586  1.00  0.00    -0.535 N  
HETATM   24  H   UNL     1     -13.024   7.039  70.161  1.00  0.00     0.000 HD 
BRANCH  23  25
HETATM   25  C   UNL     1     -11.097   6.372  70.486  1.00  0.00    -0.328 C  
HETATM   26  O   UNL     1     -10.910   5.481  71.298  1.00  0.00    -0.242 OA 
BRANCH  25  27
HETATM   27  N   UNL     1     -10.317   6.552  69.378  1.00  0.00    -0.192 N  
HETATM   28  H   UNL     1      -9.338   6.815  69.487  1.00  0.00     0.000 HD 
BRANCH  27  29
HETATM   29  C   UNL     1     -10.872   6.371  68.039  1.00  0.00    -0.316 C  
HETATM   30  C   UNL     1     -10.727   7.644  67.197  1.00  0.00    -0.361 C  
HETATM   31  C   UNL     1      -9.300   7.880  66.706  1.00  0.00    -0.232 C  
HETATM   32  C   UNL     1      -8.742   6.658  65.985  1.00  0.00    -0.155 C  
HETATM   33  C   UNL     1      -8.833   5.405  66.849  1.00  0.00    -0.111 C  
HETATM   34  C   UNL     1     -10.261   5.155  67.330  1.00  0.00    -0.239 C  
ENDBRANCH  27  29
ENDBRANCH  25  27
ENDBRANCH  23  25
ENDBRANCH  20  23
ENDBRANCH  17  20
ENDBRANCH  13  14
ENDBRANCH  12  13
ENDBRANCH  10  12
ENDBRANCH   5   8
TORSDOF 9
ENDMDL
MODEL       50
REMARK 921   NORMALIZED FREE ENERGY PREDICTED BY IDOCK:   -6.22 KCAL/MOL
REMARK 922        TOTAL FREE ENERGY PREDICTED BY IDOCK:  -10.99 KCAL/MOL
REMARK 923 INTER-LIGAND FREE ENERGY PREDICTED BY IDOCK:   -9.71 KCAL/MOL
REMARK 924 INTRA-LIGAND FREE ENERGY PREDICTED BY IDOCK:   -1.28 KCAL/MOL
REMARK 927      BINDING AFFINITY PREDICTED BY RF-SCORE:    0.00 PKD
ROOT
HETATM    1  C   UNL     1      -7.187   4.586  67.371  1.00  0.00    -0.069 C  
HETATM    2  C   UNL     1      -8.107   5.059  68.453  1.00  0.00    -0.086 A  
HETATM    3  N   UNL     1      -9.167   4.272  68.765  1.00  0.00    -0.130 NA 
HETATM    4  C   UNL     1      -9.996   4.751  69.726  1.00  0.00    -0.238 A  
HETATM    5  C   UNL     1      -9.777   5.966  70.358  1.00  0.00    -0.174 A  
HETATM    6  C   UNL     1      -7.886   6.273  69.105  1.00  0.00    -0.105 A  
HETATM    7  N   UNL     1      -8.707   6.762  70.070  1.00  0.00    -0.141 NA 
ENDROOT
BRANCH   5   8
HETATM    8  C   UNL     1     -10.760   6.451  71.366  1.00  0.00    -0.245 C  
HETATM    9  O   UNL     1     -11.413   5.660  72.037  1.00  0.00    -0.233 OA 
HETATM   10  N   UNL     1     -10.889   7.824  71.463  1.00  0.00    -0.226 N  
HETATM   11  H   UNL     1     -10.256   8.422  70.932  1.00  0.00     0.000 HD 
BRANCH  10  12
HETATM   12  C   UNL     1     -11.902   8.432  72.302  1.00  0.00    -0.389 C  
BRANCH  12  13
HETATM   13  C   UNL     1     -13.011   9.128  71.496  1.00  0.00    -0.409 C  
BRANCH  13  14
HETATM   14  C   UNL     1     -12.848  10.631  71.360  1.00  0.00    -0.556 A  
HETATM   15  C   UNL     1     -12.007  11.195  70.389  1.00  0.00    -0.469 A  
HETATM   16  C   UNL     1     -11.830  12.578  70.304  1.00  0.00    -0.305 A  
HETATM   17  C   UNL     1     -12.541  13.424  71.152  1.00  0.00    -0.345 A  
HETATM   18  C   UNL     1     -13.422  12.888  72.096  1.00  0.00    -0.619 A  
HETATM   19  C   UNL     1     -13.577  11.500  72.192  1.00  0.00    -0.105 A  
BRANCH  17  20
HETATM   20  S   UNL     1     -12.200  15.169  71.119  1.00  0.00    -0.370 S  
HETATM   21  O   UNL     1     -11.757  15.588  72.430  1.00  0.00    -0.412 OA 
HETATM   22  O   UNL     1     -13.337  15.816  70.492  1.00  0.00    -0.418 OA 
BRANCH  20  23
HETATM   23  N   UNL     1     -10.959  15.336  70.023  1.00  0.00    -0.270 N  
HETATM   24  H   UNL     1     -10.143  14.735  70.136  1.00  0.00     0.000 HD 
BRANCH  23  25
HETATM   25  C   UNL     1     -10.956  16.233  68.970  1.00  0.00    -0.325 C  
HETATM   26  O   UNL     1     -10.483  17.355  69.047  1.00  0.00    -0.346 OA 
BRANCH  25  27
HETATM   27  N   UNL     1     -11.516  15.731  67.828  1.00  0.00    -0.241 N  
HETATM   28  H   UNL     1     -12.384  16.131  67.474  1.00  0.00     0.000 HD 
BRANCH  27  29
HETATM   29  C   UNL     1     -10.882  14.630  67.109  1.00  0.00    -0.303 C  
HETATM   30  C   UNL     1     -11.894  13.530  66.766  1.00  0.00    -0.450 C  
HETATM   31  C   UNL     1     -12.824  13.908  65.615  1.00  0.00    -0.467 C  
HETATM   32  C   UNL     1     -12.044  14.362  64.386  1.00  0.00    -0.491 C  
HETATM   33  C   UNL     1     -11.082  15.497  64.718  1.00  0.00    -0.421 C  
HETATM   34  C   UNL     1     -10.139  15.119  65.859  1.00  0.00    -0.349 C  
ENDBRANCH  27  29
ENDBRANCH  25  27
ENDBRANCH  23  25
ENDBRANCH  20  23
ENDBRANCH  17  20
ENDBRANCH  13  14
ENDBRANCH  12  13
ENDBRANCH  10  12
ENDBRANCH   5   8
TORSDOF 9
ENDMDL
MODEL       51
REMARK 921   NORMALIZED FREE ENERGY PREDICTED BY IDOCK:   -6.20 KCAL/MOL
REMARK 922        TOTAL FREE ENERGY PREDICTED BY IDOCK:  -10.96 KCAL/MOL
REMARK 923 INTER-LIGAND FREE ENERGY PREDICTED BY IDOCK:   -9.69 KCAL/MOL
REMARK 924 INTRA-LIGAND FREE ENERGY PREDICTED BY IDOCK:   -1.26 KCAL/MOL
REMARK 927      BINDING AFFINITY PREDICTED BY RF-SCORE:    0.00 PKD
ROOT
HETATM    1  C   UNL     1      -9.199   3.449  66.840  1.00  0.00    -0.202 C  
HETATM    2  C   UNL     1      -9.704   4.352  67.920  1.00  0.00    -0.129 A  
HETATM    3  N   UNL     1      -9.302   4.099  69.191  1.00  0.00    -0.152 NA 
HETATM    4  C   UNL     1      -9.808   4.918  70.146  1.00  0.00    -0.239 A  
HETATM    5  C   UNL     1     -10.679   5.956  69.849  1.00  0.00    -0.336 A  
HETATM    6  C   UNL     1     -10.568   5.408  67.629  1.00  0.00    -0.113 A  
HETATM    7  N   UNL     1     -11.080   6.237  68.576  1.00  0.00    -0.347 NA 
ENDROOT
BRANCH   5   8
HETATM    8  C   UNL     1     -11.235   6.781  70.957  1.00  0.00    -0.290 C  
HETATM    9  O   UNL     1     -11.801   6.254  71.909  1.00  0.00    -0.319 OA 
HETATM   10  N   UNL     1     -11.087   8.148  70.817  1.00  0.00    -0.256 N  
HETATM   11  H   UNL     1     -10.535   8.513  70.042  1.00  0.00     0.000 HD 
BRANCH  10  12
HETATM   12  C   UNL     1     -11.699   9.075  71.749  1.00  0.00    -0.369 C  
BRANCH  12  13
HETATM   13  C   UNL     1     -12.859   9.871  71.131  1.00  0.00    -0.461 C  
BRANCH  13  14
HETATM   14  C   UNL     1     -12.455  11.188  70.492  1.00  0.00    -0.414 A  
HETATM   15  C   UNL     1     -11.801  11.233  69.251  1.00  0.00    -0.423 A  
HETATM   16  C   UNL     1     -11.393  12.448  68.696  1.00  0.00    -0.332 A  
HETATM   17  C   UNL     1     -11.689  13.645  69.345  1.00  0.00    -0.324 A  
HETATM   18  C   UNL     1     -12.384  13.628  70.559  1.00  0.00    -0.425 A  
HETATM   19  C   UNL     1     -12.768  12.406  71.122  1.00  0.00    -0.336 A  
BRANCH  17  20
HETATM   20  S   UNL     1     -11.045  15.167  68.691  1.00  0.00    -0.288 S  
HETATM   21  O   UNL     1      -9.659  15.299  69.081  1.00  0.00    -0.217 OA 
HETATM   22  O   UNL     1     -11.998  16.211  69.017  1.00  0.00    -0.291 OA 
BRANCH  20  23
HETATM   23  N   UNL     1     -11.154  14.996  67.039  1.00  0.00    -0.330 N  
HETATM   24  H   UNL     1     -11.583  14.144  66.678  1.00  0.00     0.000 HD 
BRANCH  23  25
HETATM   25  C   UNL     1     -10.703  15.927  66.121  1.00  0.00    -0.271 C  
HETATM   26  O   UNL     1     -10.476  15.660  64.952  1.00  0.00    -0.444 OA 
BRANCH  25  27
HETATM   27  N   UNL     1     -10.558  17.181  66.646  1.00  0.00    -0.236 N  
HETATM   28  H   UNL     1     -11.166  17.482  67.407  1.00  0.00     0.000 HD 
BRANCH  27  29
HETATM   29  C   UNL     1      -9.541  18.092  66.129  1.00  0.00    -0.170 C  
HETATM   30  C   UNL     1      -9.969  19.555  66.287  1.00  0.00    -0.538 C  
HETATM   31  C   UNL     1      -9.864  20.060  67.725  1.00  0.00    -0.545 C  
HETATM   32  C   UNL     1      -8.479  19.809  68.311  1.00  0.00    -0.311 C  
HETATM   33  C   UNL     1      -8.081  18.341  68.207  1.00  0.00    -0.311 C  
HETATM   34  C   UNL     1      -8.169  17.836  66.768  1.00  0.00    -0.275 C  
ENDBRANCH  27  29
ENDBRANCH  25  27
ENDBRANCH  23  25
ENDBRANCH  20  23
ENDBRANCH  17  20
ENDBRANCH  13  14
ENDBRANCH  12  13
ENDBRANCH  10  12
ENDBRANCH   5   8
TORSDOF 9
ENDMDL
MODEL       52
REMARK 921   NORMALIZED FREE ENERGY PREDICTED BY IDOCK:   -6.20 KCAL/MOL
REMARK 922        TOTAL FREE ENERGY PREDICTED BY IDOCK:  -10.95 KCAL/MOL
REMARK 923 INTER-LIGAND FREE ENERGY PREDICTED BY IDOCK:   -8.78 KCAL/MOL
REMARK 924 INTRA-LIGAND FREE ENERGY PREDICTED BY IDOCK:   -2.17 KCAL/MOL
REMARK 927      BINDING AFFINITY PREDICTED BY RF-SCORE:    0.00 PKD
ROOT
HETATM    1  C   UNL     1     -11.408  12.329  63.341  1.00  0.00    -0.508 C  
HETATM    2  C   UNL     1     -11.314  12.068  64.811  1.00  0.00    -0.313 A  
HETATM    3  N   UNL     1     -10.411  11.146  65.229  1.00  0.00    -0.268 NA 
HETATM    4  C   UNL     1     -10.380  10.912  66.565  1.00  0.00    -0.247 A  
HETATM    5  C   UNL     1     -11.213  11.573  67.455  1.00  0.00    -0.304 A  
HETATM    6  C   UNL     1     -12.138  12.739  65.716  1.00  0.00    -0.448 A  
HETATM    7  N   UNL     1     -12.115  12.515  67.055  1.00  0.00    -0.514 NA 
ENDROOT
BRANCH   5   8
HETATM    8  C   UNL     1     -11.159  11.224  68.901  1.00  0.00    -0.238 C  
HETATM    9  O   UNL     1     -10.178  10.662  69.375  1.00  0.00    -0.220 OA 
HETATM   10  N   UNL     1     -12.279  11.556  69.639  1.00  0.00    -0.265 N  
HETATM   11  H   UNL     1     -13.024  12.095  69.198  1.00  0.00     0.000 HD 
BRANCH  10  12
HETATM   12  C   UNL     1     -12.420  11.155  71.025  1.00  0.00    -0.403 C  
BRANCH  12  13
HETATM   13  C   UNL     1     -13.221   9.854  71.196  1.00  0.00    -0.424 C  
BRANCH  13  14
HETATM   14  C   UNL     1     -12.397   8.655  71.630  1.00  0.00    -0.384 A  
HETATM   15  C   UNL     1     -12.869   7.343  71.476  1.00  0.00    -0.416 A  
HETATM   16  C   UNL     1     -12.121   6.251  71.922  1.00  0.00    -0.311 A  
HETATM   17  C   UNL     1     -10.858   6.451  72.474  1.00  0.00    -0.238 A  
HETATM   18  C   UNL     1     -10.345   7.746  72.593  1.00  0.00    -0.352 A  
HETATM   19  C   UNL     1     -11.110   8.838  72.166  1.00  0.00    -0.406 A  
BRANCH  17  20
HETATM   20  S   UNL     1      -9.981   5.063  73.156  1.00  0.00    -0.165 S  
HETATM   21  O   UNL     1     -10.663   4.615  74.350  1.00  0.00    -0.286 OA 
HETATM   22  O   UNL     1      -8.578   5.427  73.211  1.00  0.00    -0.117 OA 
BRANCH  20  23
HETATM   23  N   UNL     1     -10.069   3.889  71.980  1.00  0.00    -0.173 N  
HETATM   24  H   UNL     1     -10.750   3.140  72.107  1.00  0.00     0.000 HD 
BRANCH  23  25
HETATM   25  C   UNL     1      -9.283   3.857  70.842  1.00  0.00    -0.129 C  
HETATM   26  O   UNL     1      -8.208   3.283  70.785  1.00  0.00    -0.055 OA 
BRANCH  25  27
HETATM   27  N   UNL     1      -9.840   4.512  69.779  1.00  0.00    -0.219 N  
HETATM   28  H   UNL     1     -10.844   4.448  69.617  1.00  0.00     0.000 HD 
BRANCH  27  29
HETATM   29  C   UNL     1      -9.012   5.304  68.875  1.00  0.00    -0.103 C  
HETATM   30  C   UNL     1      -9.297   4.961  67.409  1.00  0.00    -0.145 C  
HETATM   31  C   UNL     1     -10.616   5.540  66.902  1.00  0.00    -0.348 C  
HETATM   32  C   UNL     1     -10.711   7.040  67.160  1.00  0.00    -0.433 C  
HETATM   33  C   UNL     1     -10.486   7.373  68.631  1.00  0.00    -0.211 C  
HETATM   34  C   UNL     1      -9.160   6.809  69.139  1.00  0.00    -0.138 C  
ENDBRANCH  27  29
ENDBRANCH  25  27
ENDBRANCH  23  25
ENDBRANCH  20  23
ENDBRANCH  17  20
ENDBRANCH  13  14
ENDBRANCH  12  13
ENDBRANCH  10  12
ENDBRANCH   5   8
TORSDOF 9
ENDMDL
MODEL       53
REMARK 921   NORMALIZED FREE ENERGY PREDICTED BY IDOCK:   -6.20 KCAL/MOL
REMARK 922        TOTAL FREE ENERGY PREDICTED BY IDOCK:  -10.95 KCAL/MOL
REMARK 923 INTER-LIGAND FREE ENERGY PREDICTED BY IDOCK:   -9.28 KCAL/MOL
REMARK 924 INTRA-LIGAND FREE ENERGY PREDICTED BY IDOCK:   -1.68 KCAL/MOL
REMARK 927      BINDING AFFINITY PREDICTED BY RF-SCORE:    0.00 PKD
ROOT
HETATM    1  C   UNL     1      -9.271  20.066  66.418  1.00  0.00    -0.453 C  
HETATM    2  C   UNL     1      -9.789  18.698  66.734  1.00  0.00    -0.341 A  
HETATM    3  N   UNL     1      -9.703  17.754  65.763  1.00  0.00    -0.524 NA 
HETATM    4  C   UNL     1     -10.215  16.537  66.075  1.00  0.00    -0.356 A  
HETATM    5  C   UNL     1     -10.785  16.265  67.309  1.00  0.00    -0.265 A  
HETATM    6  C   UNL     1     -10.351  18.411  67.978  1.00  0.00    -0.384 A  
HETATM    7  N   UNL     1     -10.864  17.196  68.303  1.00  0.00    -0.357 NA 
ENDROOT
BRANCH   5   8
HETATM    8  C   UNL     1     -11.374  14.920  67.561  1.00  0.00    -0.342 C  
HETATM    9  O   UNL     1     -11.789  14.615  68.673  1.00  0.00    -0.319 OA 
HETATM   10  N   UNL     1     -11.392  14.064  66.477  1.00  0.00    -0.325 N  
HETATM   11  H   UNL     1     -11.106  14.411  65.562  1.00  0.00     0.000 HD 
BRANCH  10  12
HETATM   12  C   UNL     1     -11.811  12.682  66.610  1.00  0.00    -0.380 C  
BRANCH  12  13
HETATM   13  C   UNL     1     -10.629  11.700  66.672  1.00  0.00    -0.281 C  
BRANCH  13  14
HETATM   14  C   UNL     1     -10.502  10.943  67.982  1.00  0.00    -0.222 A  
HETATM   15  C   UNL     1      -9.294  10.346  68.372  1.00  0.00    -0.150 A  
HETATM   16  C   UNL     1      -9.202   9.614  69.558  1.00  0.00    -0.214 A  
HETATM   17  C   UNL     1     -10.304   9.519  70.405  1.00  0.00    -0.276 A  
HETATM   18  C   UNL     1     -11.506  10.147  70.061  1.00  0.00    -0.344 A  
HETATM   19  C   UNL     1     -11.598  10.859  68.859  1.00  0.00    -0.378 A  
BRANCH  17  20
HETATM   20  S   UNL     1     -10.208   8.473  71.839  1.00  0.00    -0.326 S  
HETATM   21  O   UNL     1     -11.442   8.580  72.585  1.00  0.00    -0.351 OA 
HETATM   22  O   UNL     1      -8.939   8.748  72.486  1.00  0.00    -0.386 OA 
BRANCH  20  23
HETATM   23  N   UNL     1     -10.047   6.933  71.228  1.00  0.00    -0.191 N  
HETATM   24  H   UNL     1      -9.356   6.321  71.662  1.00  0.00     0.000 HD 
BRANCH  23  25
HETATM   25  C   UNL     1     -10.784   6.426  70.174  1.00  0.00    -0.271 C  
HETATM   26  O   UNL     1     -12.004   6.403  70.158  1.00  0.00    -0.354 OA 
BRANCH  25  27
HETATM   27  N   UNL     1     -10.013   5.971  69.141  1.00  0.00    -0.153 N  
HETATM   28  H   UNL     1      -9.021   5.792  69.294  1.00  0.00     0.000 HD 
BRANCH  27  29
HETATM   29  C   UNL     1     -10.594   5.740  67.822  1.00  0.00    -0.237 C  
HETATM   30  C   UNL     1     -10.584   7.016  66.974  1.00  0.00    -0.412 C  
HETATM   31  C   UNL     1      -9.199   7.368  66.435  1.00  0.00    -0.203 C  
HETATM   32  C   UNL     1      -8.565   6.194  65.697  1.00  0.00    -0.148 C  
HETATM   33  C   UNL     1      -8.522   4.941  66.565  1.00  0.00    -0.110 C  
HETATM   34  C   UNL     1      -9.908   4.576  67.094  1.00  0.00    -0.225 C  
ENDBRANCH  27  29
ENDBRANCH  25  27
ENDBRANCH  23  25
ENDBRANCH  20  23
ENDBRANCH  17  20
ENDBRANCH  13  14
ENDBRANCH  12  13
ENDBRANCH  10  12
ENDBRANCH   5   8
TORSDOF 9
ENDMDL
MODEL       54
REMARK 921   NORMALIZED FREE ENERGY PREDICTED BY IDOCK:   -6.20 KCAL/MOL
REMARK 922        TOTAL FREE ENERGY PREDICTED BY IDOCK:  -10.95 KCAL/MOL
REMARK 923 INTER-LIGAND FREE ENERGY PREDICTED BY IDOCK:   -9.59 KCAL/MOL
REMARK 924 INTRA-LIGAND FREE ENERGY PREDICTED BY IDOCK:   -1.37 KCAL/MOL
REMARK 927      BINDING AFFINITY PREDICTED BY RF-SCORE:    0.00 PKD
ROOT
HETATM    1  C   UNL     1     -11.969   8.084  72.542  1.00  0.00    -0.384 C  
HETATM    2  C   UNL     1     -11.513   7.869  71.134  1.00  0.00    -0.273 A  
HETATM    3  N   UNL     1     -11.630   6.619  70.619  1.00  0.00    -0.362 NA 
HETATM    4  C   UNL     1     -11.173   6.456  69.352  1.00  0.00    -0.394 A  
HETATM    5  C   UNL     1     -10.626   7.499  68.620  1.00  0.00    -0.142 A  
HETATM    6  C   UNL     1     -10.974   8.915  70.384  1.00  0.00    -0.244 A  
HETATM    7  N   UNL     1     -10.516   8.765  69.114  1.00  0.00    -0.224 NA 
ENDROOT
BRANCH   5   8
HETATM    8  C   UNL     1     -10.097   7.232  67.254  1.00  0.00    -0.225 C  
HETATM    9  O   UNL     1     -10.313   6.162  66.695  1.00  0.00    -0.201 OA 
HETATM   10  N   UNL     1      -9.346   8.248  66.694  1.00  0.00    -0.178 N  
HETATM   11  H   UNL     1      -9.275   9.141  67.180  1.00  0.00     0.000 HD 
BRANCH  10  12
HETATM   12  C   UNL     1      -8.658   8.073  65.430  1.00  0.00    -0.114 C  
BRANCH  12  13
HETATM   13  C   UNL     1      -8.048   9.378  64.892  1.00  0.00    -0.128 C  
BRANCH  13  14
HETATM   14  C   UNL     1      -9.039  10.514  64.712  1.00  0.00    -0.242 A  
HETATM   15  C   UNL     1      -9.327  11.412  65.751  1.00  0.00    -0.247 A  
HETATM   16  C   UNL     1     -10.274  12.424  65.587  1.00  0.00    -0.285 A  
HETATM   17  C   UNL     1     -10.906  12.594  64.356  1.00  0.00    -0.356 A  
HETATM   18  C   UNL     1     -10.599  11.743  63.290  1.00  0.00    -0.427 A  
HETATM   19  C   UNL     1      -9.666  10.715  63.469  1.00  0.00    -0.389 A  
BRANCH  17  20
HETATM   20  S   UNL     1     -12.203  13.800  64.208  1.00  0.00    -0.360 S  
HETATM   21  O   UNL     1     -12.920  13.879  65.461  1.00  0.00    -0.673 OA 
HETATM   22  O   UNL     1     -12.916  13.515  62.977  1.00  0.00    -0.221 OA 
BRANCH  20  23
HETATM   23  N   UNL     1     -11.413  15.236  63.917  1.00  0.00    -0.527 N  
HETATM   24  H   UNL     1     -11.077  15.409  62.969  1.00  0.00     0.000 HD 
BRANCH  23  25
HETATM   25  C   UNL     1     -11.180  16.211  64.870  1.00  0.00    -0.285 C  
HETATM   26  O   UNL     1     -11.147  17.404  64.614  1.00  0.00    -1.029 OA 
BRANCH  25  27
HETATM   27  N   UNL     1     -11.011  15.710  66.130  1.00  0.00    -0.261 N  
HETATM   28  H   UNL     1     -11.416  14.805  66.371  1.00  0.00     0.000 HD 
BRANCH  27  29
HETATM   29  C   UNL     1     -10.259  16.455  67.135  1.00  0.00    -0.282 C  
HETATM   30  C   UNL     1     -10.576  15.962  68.551  1.00  0.00    -0.263 C  
HETATM   31  C   UNL     1      -9.922  14.622  68.881  1.00  0.00    -0.228 C  
HETATM   32  C   UNL     1      -8.421  14.644  68.613  1.00  0.00    -0.164 C  
HETATM   33  C   UNL     1      -8.112  15.077  67.184  1.00  0.00    -0.245 C  
HETATM   34  C   UNL     1      -8.750  16.425  66.854  1.00  0.00    -0.233 C  
ENDBRANCH  27  29
ENDBRANCH  25  27
ENDBRANCH  23  25
ENDBRANCH  20  23
ENDBRANCH  17  20
ENDBRANCH  13  14
ENDBRANCH  12  13
ENDBRANCH  10  12
ENDBRANCH   5   8
TORSDOF 9
ENDMDL
MODEL       55
REMARK 921   NORMALIZED FREE ENERGY PREDICTED BY IDOCK:   -6.17 KCAL/MOL
REMARK 922        TOTAL FREE ENERGY PREDICTED BY IDOCK:  -10.91 KCAL/MOL
REMARK 923 INTER-LIGAND FREE ENERGY PREDICTED BY IDOCK:  -10.05 KCAL/MOL
REMARK 924 INTRA-LIGAND FREE ENERGY PREDICTED BY IDOCK:   -0.85 KCAL/MOL
REMARK 927      BINDING AFFINITY PREDICTED BY RF-SCORE:    0.00 PKD
ROOT
HETATM    1  C   UNL     1      -7.087   4.975  68.513  1.00  0.00    -0.058 C  
HETATM    2  C   UNL     1      -8.273   5.472  69.276  1.00  0.00    -0.095 A  
HETATM    3  N   UNL     1      -9.159   4.551  69.732  1.00  0.00    -0.099 NA 
HETATM    4  C   UNL     1     -10.239   5.043  70.389  1.00  0.00    -0.254 A  
HETATM    5  C   UNL     1     -10.430   6.402  70.591  1.00  0.00    -0.219 A  
HETATM    6  C   UNL     1      -8.466   6.836  69.498  1.00  0.00    -0.133 A  
HETATM    7  N   UNL     1      -9.542   7.341  70.156  1.00  0.00    -0.168 NA 
ENDROOT
BRANCH   5   8
HETATM    8  C   UNL     1     -11.667   6.871  71.274  1.00  0.00    -0.328 C  
HETATM    9  O   UNL     1     -12.145   6.239  72.210  1.00  0.00    -0.304 OA 
HETATM   10  N   UNL     1     -12.227   8.028  70.768  1.00  0.00    -0.502 N  
HETATM   11  H   UNL     1     -11.732   8.546  70.043  1.00  0.00     0.000 HD 
BRANCH  10  12
HETATM   12  C   UNL     1     -13.503   8.524  71.246  1.00  0.00    -0.132 C  
BRANCH  12  13
HETATM   13  C   UNL     1     -13.363   9.723  72.199  1.00  0.00    -0.527 C  
BRANCH  13  14
HETATM   14  C   UNL     1     -12.933  11.016  71.532  1.00  0.00    -0.553 A  
HETATM   15  C   UNL     1     -12.139  11.019  70.375  1.00  0.00    -0.463 A  
HETATM   16  C   UNL     1     -11.711  12.215  69.797  1.00  0.00    -0.381 A  
HETATM   17  C   UNL     1     -12.123  13.434  70.333  1.00  0.00    -0.333 A  
HETATM   18  C   UNL     1     -12.955  13.457  71.456  1.00  0.00    -0.429 A  
HETATM   19  C   UNL     1     -13.361  12.254  72.045  1.00  0.00    -0.491 A  
BRANCH  17  20
HETATM   20  S   UNL     1     -11.461  14.942  69.665  1.00  0.00    -0.312 S  
HETATM   21  O   UNL     1     -11.845  16.045  70.519  1.00  0.00    -0.359 OA 
HETATM   22  O   UNL     1     -11.785  14.966  68.252  1.00  0.00    -0.321 OA 
BRANCH  20  23
HETATM   23  N   UNL     1      -9.809  14.737  69.717  1.00  0.00    -0.433 N  
HETATM   24  H   UNL     1      -9.449  13.906  70.187  1.00  0.00     0.000 HD 
BRANCH  23  25
HETATM   25  C   UNL     1      -8.891  15.614  69.169  1.00  0.00    -0.251 C  
HETATM   26  O   UNL     1      -7.706  15.352  69.046  1.00  0.00    -0.153 OA 
BRANCH  25  27
HETATM   27  N   UNL     1      -9.445  16.794  68.759  1.00  0.00    -0.253 N  
HETATM   28  H   UNL     1     -10.404  17.020  69.024  1.00  0.00     0.000 HD 
BRANCH  27  29
HETATM   29  C   UNL     1      -8.679  17.735  67.947  1.00  0.00    -0.251 C  
HETATM   30  C   UNL     1      -9.149  17.726  66.488  1.00  0.00    -0.281 C  
HETATM   31  C   UNL     1     -10.481  18.444  66.281  1.00  0.00    -0.421 C  
HETATM   32  C   UNL     1     -10.456  19.855  66.858  1.00  0.00    -0.577 C  
HETATM   33  C   UNL     1     -10.047  19.855  68.327  1.00  0.00    -0.571 C  
HETATM   34  C   UNL     1      -8.708  19.151  68.538  1.00  0.00    -0.401 C  
ENDBRANCH  27  29
ENDBRANCH  25  27
ENDBRANCH  23  25
ENDBRANCH  20  23
ENDBRANCH  17  20
ENDBRANCH  13  14
ENDBRANCH  12  13
ENDBRANCH  10  12
ENDBRANCH   5   8
TORSDOF 9
ENDMDL
MODEL       56
REMARK 921   NORMALIZED FREE ENERGY PREDICTED BY IDOCK:   -6.14 KCAL/MOL
REMARK 922        TOTAL FREE ENERGY PREDICTED BY IDOCK:  -10.86 KCAL/MOL
REMARK 923 INTER-LIGAND FREE ENERGY PREDICTED BY IDOCK:   -9.56 KCAL/MOL
REMARK 924 INTRA-LIGAND FREE ENERGY PREDICTED BY IDOCK:   -1.30 KCAL/MOL
REMARK 927      BINDING AFFINITY PREDICTED BY RF-SCORE:    0.00 PKD
ROOT
HETATM    1  C   UNL     1      -6.725  20.241  68.782  1.00  0.00    -0.275 C  
HETATM    2  C   UNL     1      -7.639  19.418  67.930  1.00  0.00    -0.281 A  
HETATM    3  N   UNL     1      -8.858  19.105  68.437  1.00  0.00    -0.335 NA 
HETATM    4  C   UNL     1      -9.644  18.328  67.649  1.00  0.00    -0.282 A  
HETATM    5  C   UNL     1      -9.236  17.884  66.401  1.00  0.00    -0.242 A  
HETATM    6  C   UNL     1      -7.243  18.979  66.666  1.00  0.00    -0.215 A  
HETATM    7  N   UNL     1      -8.022  18.204  65.868  1.00  0.00    -0.535 NA 
ENDROOT
BRANCH   5   8
HETATM    8  C   UNL     1     -10.132  16.991  65.616  1.00  0.00    -0.112 C  
HETATM    9  O   UNL     1     -11.053  17.453  64.951  1.00  0.00    -0.849 OA 
HETATM   10  N   UNL     1      -9.863  15.639  65.712  1.00  0.00    -0.340 N  
HETATM   11  H   UNL     1      -9.032  15.331  66.216  1.00  0.00     0.000 HD 
BRANCH  10  12
HETATM   12  C   UNL     1     -10.735  14.648  65.112  1.00  0.00    -0.414 C  
BRANCH  12  13
HETATM   13  C   UNL     1     -11.936  14.287  66.001  1.00  0.00    -0.412 C  
BRANCH  13  14
HETATM   14  C   UNL     1     -11.686  13.147  66.972  1.00  0.00    -0.431 A  
HETATM   15  C   UNL     1     -11.728  13.340  68.361  1.00  0.00    -0.389 A  
HETATM   16  C   UNL     1     -11.451  12.294  69.243  1.00  0.00    -0.352 A  
HETATM   17  C   UNL     1     -11.187  11.018  68.749  1.00  0.00    -0.266 A  
HETATM   18  C   UNL     1     -11.188  10.789  67.369  1.00  0.00    -0.315 A  
HETATM   19  C   UNL     1     -11.443  11.848  66.490  1.00  0.00    -0.381 A  
BRANCH  17  20
HETATM   20  S   UNL     1     -10.706   9.734  69.879  1.00  0.00    -0.287 S  
HETATM   21  O   UNL     1     -10.885   8.450  69.238  1.00  0.00    -0.175 OA 
HETATM   22  O   UNL     1     -11.352  10.013  71.147  1.00  0.00    -0.360 OA 
BRANCH  20  23
HETATM   23  N   UNL     1      -9.087  10.003  70.160  1.00  0.00    -0.379 N  
HETATM   24  H   UNL     1      -8.662  10.825  69.730  1.00  0.00     0.000 HD 
BRANCH  23  25
HETATM   25  C   UNL     1      -8.278   9.192  70.935  1.00  0.00    -0.177 C  
HETATM   26  O   UNL     1      -7.166   9.521  71.313  1.00  0.00    -0.325 OA 
BRANCH  25  27
HETATM   27  N   UNL     1      -8.855   7.995  71.253  1.00  0.00    -0.133 N  
HETATM   28  H   UNL     1      -9.332   7.457  70.530  1.00  0.00     0.000 HD 
BRANCH  27  29
HETATM   29  C   UNL     1      -8.797   7.479  72.617  1.00  0.00    -0.139 C  
HETATM   30  C   UNL     1     -10.150   7.615  73.326  1.00  0.00    -0.393 C  
HETATM   31  C   UNL     1     -11.181   6.592  72.853  1.00  0.00    -0.215 C  
HETATM   32  C   UNL     1     -10.641   5.168  72.934  1.00  0.00    -0.280 C  
HETATM   33  C   UNL     1      -9.325   5.021  72.177  1.00  0.00    -0.163 C  
HETATM   34  C   UNL     1      -8.285   6.032  72.657  1.00  0.00    -0.111 C  
ENDBRANCH  27  29
ENDBRANCH  25  27
ENDBRANCH  23  25
ENDBRANCH  20  23
ENDBRANCH  17  20
ENDBRANCH  13  14
ENDBRANCH  12  13
ENDBRANCH  10  12
ENDBRANCH   5   8
TORSDOF 9
ENDMDL
MODEL       57
REMARK 921   NORMALIZED FREE ENERGY PREDICTED BY IDOCK:   -6.14 KCAL/MOL
REMARK 922        TOTAL FREE ENERGY PREDICTED BY IDOCK:  -10.86 KCAL/MOL
REMARK 923 INTER-LIGAND FREE ENERGY PREDICTED BY IDOCK:   -9.59 KCAL/MOL
REMARK 924 INTRA-LIGAND FREE ENERGY PREDICTED BY IDOCK:   -1.27 KCAL/MOL
REMARK 927      BINDING AFFINITY PREDICTED BY RF-SCORE:    0.00 PKD
ROOT
HETATM    1  C   UNL     1     -10.082   4.266  65.149  1.00  0.00    -0.221 C  
HETATM    2  C   UNL     1      -9.975   4.507  66.621  1.00  0.00    -0.230 A  
HETATM    3  N   UNL     1      -9.459   3.512  67.385  1.00  0.00    -0.209 NA 
HETATM    4  C   UNL     1      -9.411   3.755  68.719  1.00  0.00    -0.151 A  
HETATM    5  C   UNL     1      -9.856   4.945  69.274  1.00  0.00    -0.201 A  
HETATM    6  C   UNL     1     -10.406   5.707  67.187  1.00  0.00    -0.248 A  
HETATM    7  N   UNL     1     -10.361   5.963  68.520  1.00  0.00    -0.192 NA 
ENDROOT
BRANCH   5   8
HETATM    8  C   UNL     1      -9.821   5.119  70.753  1.00  0.00    -0.202 C  
HETATM    9  O   UNL     1      -8.823   4.817  71.397  1.00  0.00    -0.124 OA 
HETATM   10  N   UNL     1     -10.979   5.612  71.324  1.00  0.00    -0.222 N  
HETATM   11  H   UNL     1     -11.741   5.919  70.720  1.00  0.00     0.000 HD 
BRANCH  10  12
HETATM   12  C   UNL     1     -11.134   5.703  72.762  1.00  0.00    -0.289 C  
BRANCH  12  13
HETATM   13  C   UNL     1     -10.712   7.070  73.327  1.00  0.00    -0.373 C  
BRANCH  13  14
HETATM   14  C   UNL     1     -10.923   8.239  72.381  1.00  0.00    -0.438 A  
HETATM   15  C   UNL     1     -12.162   8.889  72.281  1.00  0.00    -0.413 A  
HETATM   16  C   UNL     1     -12.356   9.933  71.374  1.00  0.00    -0.498 A  
HETATM   17  C   UNL     1     -11.293  10.386  70.595  1.00  0.00    -0.325 A  
HETATM   18  C   UNL     1     -10.035   9.786  70.713  1.00  0.00    -0.151 A  
HETATM   19  C   UNL     1      -9.854   8.724  71.607  1.00  0.00    -0.378 A  
BRANCH  17  20
HETATM   20  S   UNL     1     -11.593  11.622  69.354  1.00  0.00    -0.353 S  
HETATM   21  O   UNL     1     -12.270  12.747  69.962  1.00  0.00    -0.284 OA 
HETATM   22  O   UNL     1     -12.179  10.950  68.210  1.00  0.00    -0.526 OA 
BRANCH  20  23
HETATM   23  N   UNL     1     -10.077  12.084  68.843  1.00  0.00    -0.411 N  
HETATM   24  H   UNL     1      -9.285  11.509  69.130  1.00  0.00     0.000 HD 
BRANCH  23  25
HETATM   25  C   UNL     1      -9.817  13.192  68.057  1.00  0.00    -0.231 C  
HETATM   26  O   UNL     1      -8.924  13.989  68.298  1.00  0.00    -0.180 OA 
BRANCH  25  27
HETATM   27  N   UNL     1     -10.643  13.296  66.973  1.00  0.00    -0.259 N  
HETATM   28  H   UNL     1     -11.653  13.276  67.106  1.00  0.00     0.000 HD 
BRANCH  27  29
HETATM   29  C   UNL     1     -10.093  13.435  65.628  1.00  0.00    -0.274 C  
HETATM   30  C   UNL     1     -10.310  12.163  64.801  1.00  0.00    -0.320 C  
HETATM   31  C   UNL     1     -11.752  11.993  64.326  1.00  0.00    -0.425 C  
HETATM   32  C   UNL     1     -12.255  13.235  63.597  1.00  0.00    -0.522 C  
HETATM   33  C   UNL     1     -12.093  14.490  64.447  1.00  0.00    -0.492 C  
HETATM   34  C   UNL     1     -10.650  14.673  64.911  1.00  0.00    -0.446 C  
ENDBRANCH  27  29
ENDBRANCH  25  27
ENDBRANCH  23  25
ENDBRANCH  20  23
ENDBRANCH  17  20
ENDBRANCH  13  14
ENDBRANCH  12  13
ENDBRANCH  10  12
ENDBRANCH   5   8
TORSDOF 9
ENDMDL
MODEL       58
REMARK 921   NORMALIZED FREE ENERGY PREDICTED BY IDOCK:   -6.13 KCAL/MOL
REMARK 922        TOTAL FREE ENERGY PREDICTED BY IDOCK:  -10.85 KCAL/MOL
REMARK 923 INTER-LIGAND FREE ENERGY PREDICTED BY IDOCK:   -9.97 KCAL/MOL
REMARK 924 INTRA-LIGAND FREE ENERGY PREDICTED BY IDOCK:   -0.89 KCAL/MOL
REMARK 927      BINDING AFFINITY PREDICTED BY RF-SCORE:    0.00 PKD
ROOT
HETATM    1  C   UNL     1      -7.352  20.526  67.708  1.00  0.00    -0.302 C  
HETATM    2  C   UNL     1      -8.245  19.474  67.130  1.00  0.00    -0.277 A  
HETATM    3  N   UNL     1      -7.779  18.200  67.103  1.00  0.00    -0.216 NA 
HETATM    4  C   UNL     1      -8.603  17.281  66.539  1.00  0.00    -0.264 A  
HETATM    5  C   UNL     1      -9.848  17.615  66.026  1.00  0.00    -0.170 A  
HETATM    6  C   UNL     1      -9.504  19.798  66.625  1.00  0.00    -0.389 A  
HETATM    7  N   UNL     1     -10.339  18.887  66.061  1.00  0.00    -0.509 NA 
ENDROOT
BRANCH   5   8
HETATM    8  C   UNL     1     -10.674  16.562  65.375  1.00  0.00    -0.259 C  
HETATM    9  O   UNL     1     -11.202  16.762  64.286  1.00  0.00    -1.163 OA 
HETATM   10  N   UNL     1     -10.812  15.385  66.085  1.00  0.00    -0.323 N  
HETATM   11  H   UNL     1     -10.279  15.257  66.945  1.00  0.00     0.000 HD 
BRANCH  10  12
HETATM   12  C   UNL     1     -11.697  14.328  65.636  1.00  0.00    -0.358 C  
BRANCH  12  13
HETATM   13  C   UNL     1     -11.025  12.945  65.628  1.00  0.00    -0.297 C  
BRANCH  13  14
HETATM   14  C   UNL     1     -11.191  12.152  66.912  1.00  0.00    -0.375 A  
HETATM   15  C   UNL     1     -11.755  12.724  68.062  1.00  0.00    -0.405 A  
HETATM   16  C   UNL     1     -11.861  11.998  69.250  1.00  0.00    -0.377 A  
HETATM   17  C   UNL     1     -11.459  10.665  69.290  1.00  0.00    -0.281 A  
HETATM   18  C   UNL     1     -10.940  10.057  68.143  1.00  0.00    -0.289 A  
HETATM   19  C   UNL     1     -10.815  10.798  66.961  1.00  0.00    -0.311 A  
BRANCH  17  20
HETATM   20  S   UNL     1     -11.477   9.800  70.843  1.00  0.00    -0.398 S  
HETATM   21  O   UNL     1     -12.355  10.493  71.759  1.00  0.00    -0.331 OA 
HETATM   22  O   UNL     1     -10.096   9.545  71.208  1.00  0.00    -0.273 OA 
BRANCH  20  23
HETATM   23  N   UNL     1     -12.104   8.300  70.484  1.00  0.00    -0.479 N  
HETATM   24  H   UNL     1     -12.686   8.217  69.651  1.00  0.00     0.000 HD 
BRANCH  23  25
HETATM   25  C   UNL     1     -11.891   7.160  71.237  1.00  0.00    -0.318 C  
HETATM   26  O   UNL     1     -12.090   7.103  72.439  1.00  0.00    -0.212 OA 
BRANCH  25  27
HETATM   27  N   UNL     1     -11.457   6.095  70.498  1.00  0.00    -0.319 N  
HETATM   28  H   UNL     1     -12.091   5.318  70.311  1.00  0.00     0.000 HD 
BRANCH  27  29
HETATM   29  C   UNL     1     -10.096   6.057  69.972  1.00  0.00    -0.186 C  
HETATM   30  C   UNL     1      -9.065   6.362  71.065  1.00  0.00    -0.154 C  
HETATM   31  C   UNL     1      -8.854   5.200  72.033  1.00  0.00    -0.138 C  
HETATM   32  C   UNL     1      -8.530   3.904  71.296  1.00  0.00    -0.094 C  
HETATM   33  C   UNL     1      -9.589   3.572  70.251  1.00  0.00    -0.232 C  
HETATM   34  C   UNL     1      -9.793   4.726  69.271  1.00  0.00    -0.269 C  
ENDBRANCH  27  29
ENDBRANCH  25  27
ENDBRANCH  23  25
ENDBRANCH  20  23
ENDBRANCH  17  20
ENDBRANCH  13  14
ENDBRANCH  12  13
ENDBRANCH  10  12
ENDBRANCH   5   8
TORSDOF 9
ENDMDL
MODEL       59
REMARK 921   NORMALIZED FREE ENERGY PREDICTED BY IDOCK:   -6.13 KCAL/MOL
REMARK 922        TOTAL FREE ENERGY PREDICTED BY IDOCK:  -10.85 KCAL/MOL
REMARK 923 INTER-LIGAND FREE ENERGY PREDICTED BY IDOCK:   -9.55 KCAL/MOL
REMARK 924 INTRA-LIGAND FREE ENERGY PREDICTED BY IDOCK:   -1.30 KCAL/MOL
REMARK 927      BINDING AFFINITY PREDICTED BY RF-SCORE:    0.00 PKD
ROOT
HETATM    1  C   UNL     1     -10.637  17.168  69.036  1.00  0.00    -0.282 C  
HETATM    2  C   UNL     1     -11.226  16.000  69.762  1.00  0.00    -0.344 A  
HETATM    3  N   UNL     1     -11.531  14.896  69.035  1.00  0.00    -0.284 NA 
HETATM    4  C   UNL     1     -12.095  13.872  69.723  1.00  0.00    -0.345 A  
HETATM    5  C   UNL     1     -12.342  13.940  71.086  1.00  0.00    -0.359 A  
HETATM    6  C   UNL     1     -11.465  16.053  71.136  1.00  0.00    -0.419 A  
HETATM    7  N   UNL     1     -12.026  15.034  71.836  1.00  0.00    -0.365 NA 
ENDROOT
BRANCH   5   8
HETATM    8  C   UNL     1     -13.013  12.796  71.764  1.00  0.00    -0.314 C  
HETATM    9  O   UNL     1     -13.783  12.984  72.699  1.00  0.00    -0.621 OA 
HETATM   10  N   UNL     1     -12.689  11.542  71.282  1.00  0.00    -0.398 N  
HETATM   11  H   UNL     1     -12.105  11.463  70.449  1.00  0.00     0.000 HD 
BRANCH  10  12
HETATM   12  C   UNL     1     -13.161  10.335  71.932  1.00  0.00    -0.463 C  
BRANCH  12  13
HETATM   13  C   UNL     1     -12.130   9.195  71.904  1.00  0.00    -0.448 C  
BRANCH  13  14
HETATM   14  C   UNL     1     -11.062   9.332  70.834  1.00  0.00    -0.374 A  
HETATM   15  C   UNL     1     -11.392   9.462  69.476  1.00  0.00     0.026 A  
HETATM   16  C   UNL     1     -10.400   9.542  68.497  1.00  0.00    -0.234 A  
HETATM   17  C   UNL     1      -9.057   9.555  68.867  1.00  0.00    -0.141 A  
HETATM   18  C   UNL     1      -8.703   9.476  70.218  1.00  0.00    -0.270 A  
HETATM   19  C   UNL     1      -9.703   9.372  71.192  1.00  0.00    -0.257 A  
BRANCH  17  20
HETATM   20  S   UNL     1      -7.809   9.521  67.601  1.00  0.00    -0.102 S  
HETATM   21  O   UNL     1      -8.354   8.891  66.419  1.00  0.00    -0.112 OA 
HETATM   22  O   UNL     1      -6.595   9.009  68.207  1.00  0.00    -0.058 OA 
BRANCH  20  23
HETATM   23  N   UNL     1      -7.483  11.123  67.288  1.00  0.00    -0.112 N  
HETATM   24  H   UNL     1      -6.507  11.391  67.157  1.00  0.00     0.000 HD 
BRANCH  23  25
HETATM   25  C   UNL     1      -8.441  12.116  67.193  1.00  0.00    -0.182 C  
HETATM   26  O   UNL     1      -8.699  12.887  68.102  1.00  0.00    -0.180 OA 
BRANCH  25  27
HETATM   27  N   UNL     1      -9.055  12.163  65.973  1.00  0.00    -0.413 N  
HETATM   28  H   UNL     1      -8.628  12.694  65.214  1.00  0.00     0.000 HD 
BRANCH  27  29
HETATM   29  C   UNL     1     -10.315  11.462  65.744  1.00  0.00    -0.255 C  
HETATM   30  C   UNL     1     -11.507  12.265  66.276  1.00  0.00    -0.435 C  
HETATM   31  C   UNL     1     -11.871  13.457  65.393  1.00  0.00    -0.381 C  
HETATM   32  C   UNL     1     -12.072  13.042  63.940  1.00  0.00    -0.541 C  
HETATM   33  C   UNL     1     -10.859  12.296  63.395  1.00  0.00    -0.457 C  
HETATM   34  C   UNL     1     -10.501  11.093  64.266  1.00  0.00    -0.427 C  
ENDBRANCH  27  29
ENDBRANCH  25  27
ENDBRANCH  23  25
ENDBRANCH  20  23
ENDBRANCH  17  20
ENDBRANCH  13  14
ENDBRANCH  12  13
ENDBRANCH  10  12
ENDBRANCH   5   8
TORSDOF 9
ENDMDL
MODEL       60
REMARK 921   NORMALIZED FREE ENERGY PREDICTED BY IDOCK:   -6.13 KCAL/MOL
REMARK 922        TOTAL FREE ENERGY PREDICTED BY IDOCK:  -10.84 KCAL/MOL
REMARK 923 INTER-LIGAND FREE ENERGY PREDICTED BY IDOCK:   -9.64 KCAL/MOL
REMARK 924 INTRA-LIGAND FREE ENERGY PREDICTED BY IDOCK:   -1.20 KCAL/MOL
REMARK 927      BINDING AFFINITY PREDICTED BY RF-SCORE:    0.00 PKD
ROOT
HETATM    1  C   UNL     1      -8.033  20.071  66.607  1.00  0.00    -0.346 C  
HETATM    2  C   UNL     1      -8.799  18.799  66.790  1.00  0.00    -0.305 A  
HETATM    3  N   UNL     1      -8.419  17.724  66.055  1.00  0.00    -0.522 NA 
HETATM    4  C   UNL     1      -9.160  16.600  66.223  1.00  0.00    -0.298 A  
HETATM    5  C   UNL     1     -10.237  16.544  67.094  1.00  0.00    -0.284 A  
HETATM    6  C   UNL     1      -9.876  18.729  67.675  1.00  0.00    -0.324 A  
HETATM    7  N   UNL     1     -10.623  17.610  67.854  1.00  0.00    -0.395 NA 
ENDROOT
BRANCH   5   8
HETATM    8  C   UNL     1     -11.037  15.291  67.186  1.00  0.00    -0.323 C  
HETATM    9  O   UNL     1     -11.621  14.846  66.205  1.00  0.00    -0.324 OA 
HETATM   10  N   UNL     1     -11.083  14.702  68.435  1.00  0.00    -0.248 N  
HETATM   11  H   UNL     1     -10.507  15.080  69.187  1.00  0.00     0.000 HD 
BRANCH  10  12
HETATM   12  C   UNL     1     -11.931  13.556  68.701  1.00  0.00    -0.343 C  
BRANCH  12  13
HETATM   13  C   UNL     1     -12.110  13.277  70.203  1.00  0.00    -0.403 C  
BRANCH  13  14
HETATM   14  C   UNL     1     -12.137  11.806  70.574  1.00  0.00    -0.439 A  
HETATM   15  C   UNL     1     -11.287  10.875  69.958  1.00  0.00    -0.386 A  
HETATM   16  C   UNL     1     -11.354   9.517  70.276  1.00  0.00    -0.284 A  
HETATM   17  C   UNL     1     -12.231   9.075  71.264  1.00  0.00    -0.312 A  
HETATM   18  C   UNL     1     -13.054   9.991  71.928  1.00  0.00    -0.563 A  
HETATM   19  C   UNL     1     -12.999  11.348  71.587  1.00  0.00    -0.523 A  
BRANCH  17  20
HETATM   20  S   UNL     1     -12.397   7.330  71.559  1.00  0.00    -0.378 S  
HETATM   21  O   UNL     1     -11.669   6.608  70.538  1.00  0.00    -0.369 OA 
HETATM   22  O   UNL     1     -13.805   7.063  71.777  1.00  0.00    -0.335 OA 
BRANCH  20  23
HETATM   23  N   UNL     1     -11.684   7.084  73.043  1.00  0.00    -0.502 N  
HETATM   24  H   UNL     1     -11.989   7.671  73.819  1.00  0.00     0.000 HD 
BRANCH  23  25
HETATM   25  C   UNL     1     -10.706   6.139  73.297  1.00  0.00    -0.260 C  
HETATM   26  O   UNL     1     -10.909   5.119  73.934  1.00  0.00    -0.289 OA 
BRANCH  25  27
HETATM   27  N   UNL     1      -9.494   6.451  72.747  1.00  0.00    -0.144 N  
HETATM   28  H   UNL     1      -9.042   5.790  72.115  1.00  0.00     0.000 HD 
BRANCH  27  29
HETATM   29  C   UNL     1      -8.840   7.719  73.053  1.00  0.00    -0.192 C  
HETATM   30  C   UNL     1      -7.589   7.511  73.915  1.00  0.00    -0.152 C  
HETATM   31  C   UNL     1      -6.405   6.951  73.130  1.00  0.00    -0.062 C  
HETATM   32  C   UNL     1      -6.104   7.786  71.890  1.00  0.00    -0.039 C  
HETATM   33  C   UNL     1      -7.336   7.941  71.004  1.00  0.00    -0.062 C  
HETATM   34  C   UNL     1      -8.519   8.516  71.781  1.00  0.00    -0.236 C  
ENDBRANCH  27  29
ENDBRANCH  25  27
ENDBRANCH  23  25
ENDBRANCH  20  23
ENDBRANCH  17  20
ENDBRANCH  13  14
ENDBRANCH  12  13
ENDBRANCH  10  12
ENDBRANCH   5   8
TORSDOF 9
ENDMDL
MODEL       61
REMARK 921   NORMALIZED FREE ENERGY PREDICTED BY IDOCK:   -6.09 KCAL/MOL
REMARK 922        TOTAL FREE ENERGY PREDICTED BY IDOCK:  -10.79 KCAL/MOL
REMARK 923 INTER-LIGAND FREE ENERGY PREDICTED BY IDOCK:  -10.27 KCAL/MOL
REMARK 924 INTRA-LIGAND FREE ENERGY PREDICTED BY IDOCK:   -0.52 KCAL/MOL
REMARK 927      BINDING AFFINITY PREDICTED BY RF-SCORE:    0.00 PKD
ROOT
HETATM    1  C   UNL     1     -11.359   4.779  73.432  1.00  0.00    -0.397 C  
HETATM    2  C   UNL     1     -11.055   5.966  72.574  1.00  0.00    -0.283 A  
HETATM    3  N   UNL     1     -11.312   5.864  71.246  1.00  0.00    -0.225 NA 
HETATM    4  C   UNL     1     -10.991   6.949  70.496  1.00  0.00    -0.273 A  
HETATM    5  C   UNL     1     -10.440   8.096  71.048  1.00  0.00    -0.201 A  
HETATM    6  C   UNL     1     -10.515   7.130  73.122  1.00  0.00    -0.321 A  
HETATM    7  N   UNL     1     -10.192   8.223  72.383  1.00  0.00    -0.306 NA 
ENDROOT
BRANCH   5   8
HETATM    8  C   UNL     1     -10.065   9.227  70.154  1.00  0.00    -0.213 C  
HETATM    9  O   UNL     1      -9.028   9.855  70.338  1.00  0.00    -0.160 OA 
HETATM   10  N   UNL     1     -10.964   9.515  69.145  1.00  0.00    -0.390 N  
HETATM   11  H   UNL     1     -11.764   8.901  69.000  1.00  0.00     0.000 HD 
BRANCH  10  12
HETATM   12  C   UNL     1     -10.794  10.672  68.287  1.00  0.00    -0.241 C  
BRANCH  12  13
HETATM   13  C   UNL     1     -11.767  11.815  68.620  1.00  0.00    -0.389 C  
BRANCH  13  14
HETATM   14  C   UNL     1     -11.434  13.142  67.962  1.00  0.00    -0.346 A  
HETATM   15  C   UNL     1     -12.182  13.637  66.883  1.00  0.00    -0.398 A  
HETATM   16  C   UNL     1     -11.837  14.836  66.258  1.00  0.00    -0.215 A  
HETATM   17  C   UNL     1     -10.773  15.594  66.742  1.00  0.00    -0.300 A  
HETATM   18  C   UNL     1     -10.043  15.146  67.847  1.00  0.00    -0.222 A  
HETATM   19  C   UNL     1     -10.379  13.931  68.455  1.00  0.00    -0.244 A  
BRANCH  17  20
HETATM   20  S   UNL     1     -10.268  17.047  65.851  1.00  0.00    -0.237 S  
HETATM   21  O   UNL     1     -11.036  17.142  64.630  1.00  0.00    -1.036 OA 
HETATM   22  O   UNL     1      -8.818  17.038  65.802  1.00  0.00    -0.523 OA 
BRANCH  20  23
HETATM   23  N   UNL     1     -10.650  18.314  66.860  1.00  0.00    -0.363 N  
HETATM   24  H   UNL     1     -11.535  18.797  66.701  1.00  0.00     0.000 HD 
BRANCH  23  25
HETATM   25  C   UNL     1      -9.852  18.760  67.898  1.00  0.00    -0.341 C  
HETATM   26  O   UNL     1     -10.001  18.407  69.057  1.00  0.00    -0.365 OA 
BRANCH  25  27
HETATM   27  N   UNL     1      -8.867  19.618  67.496  1.00  0.00    -0.303 N  
HETATM   28  H   UNL     1      -9.092  20.596  67.318  1.00  0.00     0.000 HD 
BRANCH  27  29
HETATM   29  C   UNL     1      -7.496  19.149  67.320  1.00  0.00    -0.228 C  
HETATM   30  C   UNL     1      -6.606  20.236  66.707  1.00  0.00    -0.265 C  
HETATM   31  C   UNL     1      -6.231  21.335  67.699  1.00  0.00    -0.409 C  
HETATM   32  C   UNL     1      -5.625  20.761  68.975  1.00  0.00    -0.405 C  
HETATM   33  C   UNL     1      -6.540  19.723  69.615  1.00  0.00    -0.378 C  
HETATM   34  C   UNL     1      -6.905  18.613  68.631  1.00  0.00    -0.294 C  
ENDBRANCH  27  29
ENDBRANCH  25  27
ENDBRANCH  23  25
ENDBRANCH  20  23
ENDBRANCH  17  20
ENDBRANCH  13  14
ENDBRANCH  12  13
ENDBRANCH  10  12
ENDBRANCH   5   8
TORSDOF 9
ENDMDL
MODEL       62
REMARK 921   NORMALIZED FREE ENERGY PREDICTED BY IDOCK:   -6.09 KCAL/MOL
REMARK 922        TOTAL FREE ENERGY PREDICTED BY IDOCK:  -10.79 KCAL/MOL
REMARK 923 INTER-LIGAND FREE ENERGY PREDICTED BY IDOCK:   -9.46 KCAL/MOL
REMARK 924 INTRA-LIGAND FREE ENERGY PREDICTED BY IDOCK:   -1.33 KCAL/MOL
REMARK 927      BINDING AFFINITY PREDICTED BY RF-SCORE:    0.00 PKD
ROOT
HETATM    1  C   UNL     1     -10.434  16.879  69.056  1.00  0.00    -0.341 C  
HETATM    2  C   UNL     1     -11.177  15.771  69.732  1.00  0.00    -0.330 A  
HETATM    3  N   UNL     1     -11.855  16.070  70.868  1.00  0.00    -0.401 NA 
HETATM    4  C   UNL     1     -12.488  15.032  71.470  1.00  0.00    -0.333 A  
HETATM    5  C   UNL     1     -12.453  13.743  70.959  1.00  0.00    -0.380 A  
HETATM    6  C   UNL     1     -11.160  14.474  69.217  1.00  0.00    -0.270 A  
HETATM    7  N   UNL     1     -11.791  13.427  69.808  1.00  0.00    -0.320 NA 
ENDROOT
BRANCH   5   8
HETATM    8  C   UNL     1     -13.127  12.644  71.704  1.00  0.00    -0.323 C  
HETATM    9  O   UNL     1     -13.799  12.882  72.702  1.00  0.00    -0.596 OA 
HETATM   10  N   UNL     1     -12.921  11.371  71.207  1.00  0.00    -0.368 N  
HETATM   11  H   UNL     1     -12.420  11.255  70.327  1.00  0.00     0.000 HD 
BRANCH  10  12
HETATM   12  C   UNL     1     -13.403  10.197  71.909  1.00  0.00    -0.402 C  
BRANCH  12  13
HETATM   13  C   UNL     1     -12.294   9.174  72.202  1.00  0.00    -0.424 C  
BRANCH  13  14
HETATM   14  C   UNL     1     -11.657   8.559  70.969  1.00  0.00    -0.317 A  
HETATM   15  C   UNL     1     -11.835   7.206  70.646  1.00  0.00    -0.334 A  
HETATM   16  C   UNL     1     -11.207   6.641  69.534  1.00  0.00    -0.383 A  
HETATM   17  C   UNL     1     -10.437   7.439  68.690  1.00  0.00    -0.189 A  
HETATM   18  C   UNL     1     -10.284   8.801  68.963  1.00  0.00    -0.218 A  
HETATM   19  C   UNL     1     -10.897   9.356  70.093  1.00  0.00    -0.287 A  
BRANCH  17  20
HETATM   20  S   UNL     1      -9.538   6.676  67.359  1.00  0.00    -0.131 S  
HETATM   21  O   UNL     1     -10.476   6.213  66.360  1.00  0.00    -0.140 OA 
HETATM   22  O   UNL     1      -8.591   5.752  67.954  1.00  0.00    -0.104 OA 
BRANCH  20  23
HETATM   23  N   UNL     1      -8.599   7.898  66.730  1.00  0.00    -0.127 N  
HETATM   24  H   UNL     1      -7.931   8.352  67.353  1.00  0.00     0.000 HD 
BRANCH  23  25
HETATM   25  C   UNL     1      -8.660   8.341  65.421  1.00  0.00    -0.151 C  
HETATM   26  O   UNL     1      -7.947   7.906  64.532  1.00  0.00    -0.135 OA 
BRANCH  25  27
HETATM   27  N   UNL     1      -9.613   9.300  65.217  1.00  0.00    -0.455 N  
HETATM   28  H   UNL     1     -10.591   9.026  65.122  1.00  0.00     0.000 HD 
BRANCH  27  29
HETATM   29  C   UNL     1      -9.246  10.710  65.132  1.00  0.00    -0.207 C  
HETATM   30  C   UNL     1      -9.829  11.366  63.876  1.00  0.00    -0.335 C  
HETATM   31  C   UNL     1     -11.328  11.638  63.982  1.00  0.00    -0.428 C  
HETATM   32  C   UNL     1     -11.672  12.424  65.242  1.00  0.00    -0.437 C  
HETATM   33  C   UNL     1     -11.142  11.737  66.495  1.00  0.00    -0.364 C  
HETATM   34  C   UNL     1      -9.640  11.477  66.402  1.00  0.00    -0.230 C  
ENDBRANCH  27  29
ENDBRANCH  25  27
ENDBRANCH  23  25
ENDBRANCH  20  23
ENDBRANCH  17  20
ENDBRANCH  13  14
ENDBRANCH  12  13
ENDBRANCH  10  12
ENDBRANCH   5   8
TORSDOF 9
ENDMDL
MODEL       63
REMARK 921   NORMALIZED FREE ENERGY PREDICTED BY IDOCK:   -6.08 KCAL/MOL
REMARK 922        TOTAL FREE ENERGY PREDICTED BY IDOCK:  -10.77 KCAL/MOL
REMARK 923 INTER-LIGAND FREE ENERGY PREDICTED BY IDOCK:   -9.51 KCAL/MOL
REMARK 924 INTRA-LIGAND FREE ENERGY PREDICTED BY IDOCK:   -1.25 KCAL/MOL
REMARK 927      BINDING AFFINITY PREDICTED BY RF-SCORE:    0.00 PKD
ROOT
HETATM    1  C   UNL     1     -10.726   4.459  72.840  1.00  0.00    -0.263 C  
HETATM    2  C   UNL     1     -10.029   5.393  71.904  1.00  0.00    -0.184 A  
HETATM    3  N   UNL     1     -10.787   6.051  70.991  1.00  0.00    -0.270 NA 
HETATM    4  C   UNL     1     -10.114   6.862  70.137  1.00  0.00    -0.182 A  
HETATM    5  C   UNL     1      -8.737   7.020  70.192  1.00  0.00    -0.141 A  
HETATM    6  C   UNL     1      -8.646   5.570  71.961  1.00  0.00    -0.131 A  
HETATM    7  N   UNL     1      -7.961   6.381  71.114  1.00  0.00    -0.114 NA 
ENDROOT
BRANCH   5   8
HETATM    8  C   UNL     1      -8.062   7.887  69.187  1.00  0.00    -0.124 C  
HETATM    9  O   UNL     1      -7.068   8.539  69.487  1.00  0.00    -0.051 OA 
HETATM   10  N   UNL     1      -8.643   7.914  67.933  1.00  0.00    -0.125 N  
HETATM   11  H   UNL     1      -9.419   7.284  67.730  1.00  0.00     0.000 HD 
BRANCH  10  12
HETATM   12  C   UNL     1      -8.173   8.815  66.900  1.00  0.00    -0.108 C  
BRANCH  12  13
HETATM   13  C   UNL     1      -9.067   8.813  65.649  1.00  0.00    -0.247 C  
BRANCH  13  14
HETATM   14  C   UNL     1      -9.805  10.116  65.395  1.00  0.00    -0.375 A  
HETATM   15  C   UNL     1     -10.583  10.726  66.390  1.00  0.00    -0.266 A  
HETATM   16  C   UNL     1     -11.294  11.900  66.129  1.00  0.00    -0.383 A  
HETATM   17  C   UNL     1     -11.188  12.516  64.885  1.00  0.00    -0.305 A  
HETATM   18  C   UNL     1     -10.379  11.954  63.893  1.00  0.00    -0.426 A  
HETATM   19  C   UNL     1      -9.688  10.764  64.152  1.00  0.00    -0.364 A  
BRANCH  17  20
HETATM   20  S   UNL     1     -12.203  13.932  64.530  1.00  0.00    -0.396 S  
HETATM   21  O   UNL     1     -13.187  14.081  65.579  1.00  0.00    -0.710 OA 
HETATM   22  O   UNL     1     -12.623  13.823  63.146  1.00  0.00    -0.793 OA 
BRANCH  20  23
HETATM   23  N   UNL     1     -11.152  15.222  64.554  1.00  0.00    -0.673 N  
HETATM   24  H   UNL     1     -11.035  15.755  63.691  1.00  0.00     0.000 HD 
BRANCH  23  25
HETATM   25  C   UNL     1     -10.424  15.623  65.660  1.00  0.00    -0.382 C  
HETATM   26  O   UNL     1      -9.347  16.190  65.584  1.00  0.00    -0.420 OA 
BRANCH  25  27
HETATM   27  N   UNL     1     -11.041  15.340  66.847  1.00  0.00    -0.314 N  
HETATM   28  H   UNL     1     -12.035  15.114  66.857  1.00  0.00     0.000 HD 
BRANCH  27  29
HETATM   29  C   UNL     1     -10.292  15.359  68.099  1.00  0.00    -0.239 C  
HETATM   30  C   UNL     1     -10.969  16.255  69.143  1.00  0.00    -0.324 C  
HETATM   31  C   UNL     1     -12.217  15.623  69.758  1.00  0.00    -0.293 C  
HETATM   32  C   UNL     1     -11.931  14.230  70.308  1.00  0.00    -0.398 C  
HETATM   33  C   UNL     1     -11.313  13.323  69.250  1.00  0.00    -0.311 C  
HETATM   34  C   UNL     1     -10.056  13.943  68.643  1.00  0.00    -0.203 C  
ENDBRANCH  27  29
ENDBRANCH  25  27
ENDBRANCH  23  25
ENDBRANCH  20  23
ENDBRANCH  17  20
ENDBRANCH  13  14
ENDBRANCH  12  13
ENDBRANCH  10  12
ENDBRANCH   5   8
TORSDOF 9
ENDMDL
MODEL       64
REMARK 921   NORMALIZED FREE ENERGY PREDICTED BY IDOCK:   -6.07 KCAL/MOL
REMARK 922        TOTAL FREE ENERGY PREDICTED BY IDOCK:  -10.76 KCAL/MOL
REMARK 923 INTER-LIGAND FREE ENERGY PREDICTED BY IDOCK:   -9.28 KCAL/MOL
REMARK 924 INTRA-LIGAND FREE ENERGY PREDICTED BY IDOCK:   -1.48 KCAL/MOL
REMARK 927      BINDING AFFINITY PREDICTED BY RF-SCORE:    0.00 PKD
ROOT
HETATM    1  C   UNL     1      -8.893   1.488  63.616  1.00  0.00    -0.084 C  
HETATM    2  C   UNL     1      -8.728   2.913  64.041  1.00  0.00    -0.090 A  
HETATM    3  N   UNL     1      -7.716   3.623  63.483  1.00  0.00    -0.066 NA 
HETATM    4  C   UNL     1      -7.578   4.900  63.920  1.00  0.00    -0.066 A  
HETATM    5  C   UNL     1      -8.419   5.454  64.873  1.00  0.00    -0.148 A  
HETATM    6  C   UNL     1      -9.579   3.484  64.989  1.00  0.00    -0.160 A  
HETATM    7  N   UNL     1      -9.453   4.761  65.432  1.00  0.00    -0.162 NA 
ENDROOT
BRANCH   5   8
HETATM    8  C   UNL     1      -8.173   6.846  65.342  1.00  0.00    -0.134 C  
HETATM    9  O   UNL     1      -7.590   7.655  64.629  1.00  0.00    -0.095 OA 
HETATM   10  N   UNL     1      -8.622   7.135  66.617  1.00  0.00    -0.119 N  
HETATM   11  H   UNL     1      -9.170   6.440  67.122  1.00  0.00     0.000 HD 
BRANCH  10  12
HETATM   12  C   UNL     1      -8.331   8.405  67.252  1.00  0.00    -0.123 C  
BRANCH  12  13
HETATM   13  C   UNL     1      -9.570   9.057  67.889  1.00  0.00    -0.170 C  
BRANCH  13  14
HETATM   14  C   UNL     1     -10.197  10.166  67.063  1.00  0.00    -0.290 A  
HETATM   15  C   UNL     1     -11.037  11.129  67.642  1.00  0.00    -0.348 A  
HETATM   16  C   UNL     1     -11.645  12.116  66.864  1.00  0.00    -0.408 A  
HETATM   17  C   UNL     1     -11.371  12.194  65.500  1.00  0.00    -0.344 A  
HETATM   18  C   UNL     1     -10.498  11.276  64.909  1.00  0.00    -0.375 A  
HETATM   19  C   UNL     1      -9.911  10.273  65.690  1.00  0.00    -0.347 A  
BRANCH  17  20
HETATM   20  S   UNL     1     -12.257  13.372  64.505  1.00  0.00    -0.388 S  
HETATM   21  O   UNL     1     -13.322  13.950  65.294  1.00  0.00    -0.732 OA 
HETATM   22  O   UNL     1     -12.553  12.728  63.239  1.00  0.00    -0.676 OA 
BRANCH  20  23
HETATM   23  N   UNL     1     -11.131  14.540  64.133  1.00  0.00    -0.541 N  
HETATM   24  H   UNL     1     -10.360  14.278  63.519  1.00  0.00     0.000 HD 
BRANCH  23  25
HETATM   25  C   UNL     1     -11.168  15.842  64.598  1.00  0.00    -0.351 C  
HETATM   26  O   UNL     1     -11.650  16.767  63.965  1.00  0.00    -1.195 OA 
BRANCH  25  27
HETATM   27  N   UNL     1     -10.629  15.989  65.846  1.00  0.00    -0.335 N  
HETATM   28  H   UNL     1     -11.231  16.251  66.627  1.00  0.00     0.000 HD 
BRANCH  27  29
HETATM   29  C   UNL     1      -9.204  15.773  66.073  1.00  0.00    -0.344 C  
HETATM   30  C   UNL     1      -8.567  16.961  66.804  1.00  0.00    -0.256 C  
HETATM   31  C   UNL     1      -8.920  17.011  68.289  1.00  0.00    -0.242 C  
HETATM   32  C   UNL     1      -8.616  15.689  68.986  1.00  0.00    -0.232 C  
HETATM   33  C   UNL     1      -9.300  14.517  68.292  1.00  0.00    -0.203 C  
HETATM   34  C   UNL     1      -8.938  14.453  66.809  1.00  0.00    -0.256 C  
ENDBRANCH  27  29
ENDBRANCH  25  27
ENDBRANCH  23  25
ENDBRANCH  20  23
ENDBRANCH  17  20
ENDBRANCH  13  14
ENDBRANCH  12  13
ENDBRANCH  10  12
ENDBRANCH   5   8
TORSDOF 9
ENDMDL
MODEL       65
REMARK 921   NORMALIZED FREE ENERGY PREDICTED BY IDOCK:   -6.06 KCAL/MOL
REMARK 922        TOTAL FREE ENERGY PREDICTED BY IDOCK:  -10.75 KCAL/MOL
REMARK 923 INTER-LIGAND FREE ENERGY PREDICTED BY IDOCK:   -9.66 KCAL/MOL
REMARK 924 INTRA-LIGAND FREE ENERGY PREDICTED BY IDOCK:   -1.09 KCAL/MOL
REMARK 927      BINDING AFFINITY PREDICTED BY RF-SCORE:    0.00 PKD
ROOT
HETATM    1  C   UNL     1      -7.055  19.169  69.157  1.00  0.00    -0.349 C  
HETATM    2  C   UNL     1      -8.011  18.556  68.183  1.00  0.00    -0.289 A  
HETATM    3  N   UNL     1      -9.161  18.033  68.676  1.00  0.00    -0.289 NA 
HETATM    4  C   UNL     1      -9.986  17.456  67.767  1.00  0.00    -0.301 A  
HETATM    5  C   UNL     1      -9.681  17.406  66.415  1.00  0.00    -0.290 A  
HETATM    6  C   UNL     1      -7.720  18.514  66.819  1.00  0.00    -0.236 A  
HETATM    7  N   UNL     1      -8.538  17.942  65.899  1.00  0.00    -0.507 NA 
ENDROOT
BRANCH   5   8
HETATM    8  C   UNL     1     -10.611  16.708  65.483  1.00  0.00    -0.258 C  
HETATM    9  O   UNL     1     -11.060  17.283  64.498  1.00  0.00    -1.082 OA 
HETATM   10  N   UNL     1     -10.933  15.408  65.822  1.00  0.00    -0.327 N  
HETATM   11  H   UNL     1     -10.459  14.966  66.610  1.00  0.00     0.000 HD 
BRANCH  10  12
HETATM   12  C   UNL     1     -11.929  14.657  65.083  1.00  0.00    -0.334 C  
BRANCH  12  13
HETATM   13  C   UNL     1     -12.510  13.480  65.884  1.00  0.00    -0.484 C  
BRANCH  13  14
HETATM   14  C   UNL     1     -11.612  12.258  65.956  1.00  0.00    -0.451 A  
HETATM   15  C   UNL     1     -11.356  11.603  67.170  1.00  0.00    -0.373 A  
HETATM   16  C   UNL     1     -10.492  10.508  67.230  1.00  0.00    -0.300 A  
HETATM   17  C   UNL     1      -9.917  10.011  66.063  1.00  0.00    -0.267 A  
HETATM   18  C   UNL     1     -10.195  10.615  64.834  1.00  0.00    -0.395 A  
HETATM   19  C   UNL     1     -11.043  11.728  64.784  1.00  0.00    -0.356 A  
BRANCH  17  20
HETATM   20  S   UNL     1      -8.717   8.703  66.178  1.00  0.00    -0.166 S  
HETATM   21  O   UNL     1      -7.957   8.867  67.398  1.00  0.00    -0.100 OA 
HETATM   22  O   UNL     1      -8.037   8.631  64.899  1.00  0.00    -0.129 OA 
BRANCH  20  23
HETATM   23  N   UNL     1      -9.620   7.308  66.258  1.00  0.00    -0.388 N  
HETATM   24  H   UNL     1     -10.403   7.212  65.610  1.00  0.00     0.000 HD 
BRANCH  23  25
HETATM   25  C   UNL     1      -9.385   6.269  67.140  1.00  0.00    -0.123 C  
HETATM   26  O   UNL     1      -8.921   5.193  66.800  1.00  0.00    -0.114 OA 
BRANCH  25  27
HETATM   27  N   UNL     1      -9.704   6.573  68.434  1.00  0.00    -0.131 N  
HETATM   28  H   UNL     1      -9.327   7.419  68.860  1.00  0.00     0.000 HD 
BRANCH  27  29
HETATM   29  C   UNL     1     -10.577   5.699  69.212  1.00  0.00    -0.288 C  
HETATM   30  C   UNL     1      -9.784   4.888  70.242  1.00  0.00    -0.287 C  
HETATM   31  C   UNL     1      -9.339   5.717  71.446  1.00  0.00    -0.169 C  
HETATM   32  C   UNL     1     -10.510   6.454  72.086  1.00  0.00    -0.234 C  
HETATM   33  C   UNL     1     -11.261   7.308  71.070  1.00  0.00    -0.291 C  
HETATM   34  C   UNL     1     -11.722   6.481  69.872  1.00  0.00    -0.349 C  
ENDBRANCH  27  29
ENDBRANCH  25  27
ENDBRANCH  23  25
ENDBRANCH  20  23
ENDBRANCH  17  20
ENDBRANCH  13  14
ENDBRANCH  12  13
ENDBRANCH  10  12
ENDBRANCH   5   8
TORSDOF 9
ENDMDL
MODEL       66
REMARK 921   NORMALIZED FREE ENERGY PREDICTED BY IDOCK:   -6.05 KCAL/MOL
REMARK 922        TOTAL FREE ENERGY PREDICTED BY IDOCK:  -10.74 KCAL/MOL
REMARK 923 INTER-LIGAND FREE ENERGY PREDICTED BY IDOCK:   -9.66 KCAL/MOL
REMARK 924 INTRA-LIGAND FREE ENERGY PREDICTED BY IDOCK:   -1.08 KCAL/MOL
REMARK 927      BINDING AFFINITY PREDICTED BY RF-SCORE:    0.00 PKD
ROOT
HETATM    1  C   UNL     1      -7.354  20.640  67.371  1.00  0.00    -0.384 C  
HETATM    2  C   UNL     1      -8.343  19.522  67.476  1.00  0.00    -0.297 A  
HETATM    3  N   UNL     1      -8.180  18.631  68.486  1.00  0.00    -0.335 NA 
HETATM    4  C   UNL     1      -9.075  17.613  68.527  1.00  0.00    -0.279 A  
HETATM    5  C   UNL     1     -10.100  17.487  67.602  1.00  0.00    -0.328 A  
HETATM    6  C   UNL     1      -9.386  19.395  66.558  1.00  0.00    -0.359 A  
HETATM    7  N   UNL     1     -10.290  18.383  66.590  1.00  0.00    -0.382 NA 
ENDROOT
BRANCH   5   8
HETATM    8  C   UNL     1     -11.013  16.313  67.679  1.00  0.00    -0.245 C  
HETATM    9  O   UNL     1     -11.660  16.087  68.696  1.00  0.00    -0.386 OA 
HETATM   10  N   UNL     1     -11.053  15.512  66.554  1.00  0.00    -0.243 N  
HETATM   11  H   UNL     1     -10.553  15.805  65.715  1.00  0.00     0.000 HD 
BRANCH  10  12
HETATM   12  C   UNL     1     -11.792  14.265  66.538  1.00  0.00    -0.415 C  
BRANCH  12  13
HETATM   13  C   UNL     1     -10.881  13.026  66.542  1.00  0.00    -0.294 C  
BRANCH  13  14
HETATM   14  C   UNL     1     -11.054  12.115  67.744  1.00  0.00    -0.302 A  
HETATM   15  C   UNL     1     -10.466  10.843  67.794  1.00  0.00    -0.238 A  
HETATM   16  C   UNL     1     -10.671   9.996  68.885  1.00  0.00    -0.243 A  
HETATM   17  C   UNL     1     -11.419  10.435  69.976  1.00  0.00    -0.308 A  
HETATM   18  C   UNL     1     -11.974  11.718  69.971  1.00  0.00    -0.421 A  
HETATM   19  C   UNL     1     -11.785  12.553  68.863  1.00  0.00    -0.367 A  
BRANCH  17  20
HETATM   20  S   UNL     1     -11.780   9.297  71.293  1.00  0.00    -0.374 S  
HETATM   21  O   UNL     1     -12.875   9.820  72.081  1.00  0.00    -0.391 OA 
HETATM   22  O   UNL     1     -10.520   8.961  71.928  1.00  0.00    -0.326 OA 
BRANCH  20  23
HETATM   23  N   UNL     1     -12.253   7.899  70.525  1.00  0.00    -0.472 N  
HETATM   24  H   UNL     1     -12.883   7.986  69.727  1.00  0.00     0.000 HD 
BRANCH  23  25
HETATM   25  C   UNL     1     -11.854   6.627  70.892  1.00  0.00    -0.377 C  
HETATM   26  O   UNL     1     -12.113   6.129  71.975  1.00  0.00    -0.318 OA 
BRANCH  25  27
HETATM   27  N   UNL     1     -11.158   5.973  69.914  1.00  0.00    -0.391 N  
HETATM   28  H   UNL     1     -11.170   4.954  69.882  1.00  0.00     0.000 HD 
BRANCH  27  29
HETATM   29  C   UNL     1     -10.398   6.717  68.914  1.00  0.00    -0.192 C  
HETATM   30  C   UNL     1      -8.896   6.434  69.028  1.00  0.00    -0.129 C  
HETATM   31  C   UNL     1      -8.501   5.063  68.483  1.00  0.00    -0.091 C  
HETATM   32  C   UNL     1      -9.010   4.852  67.061  1.00  0.00    -0.109 C  
HETATM   33  C   UNL     1     -10.515   5.076  66.964  1.00  0.00    -0.208 C  
HETATM   34  C   UNL     1     -10.914   6.453  67.493  1.00  0.00    -0.454 C  
ENDBRANCH  27  29
ENDBRANCH  25  27
ENDBRANCH  23  25
ENDBRANCH  20  23
ENDBRANCH  17  20
ENDBRANCH  13  14
ENDBRANCH  12  13
ENDBRANCH  10  12
ENDBRANCH   5   8
TORSDOF 9
ENDMDL
MODEL       67
REMARK 921   NORMALIZED FREE ENERGY PREDICTED BY IDOCK:   -6.04 KCAL/MOL
REMARK 922        TOTAL FREE ENERGY PREDICTED BY IDOCK:  -10.72 KCAL/MOL
REMARK 923 INTER-LIGAND FREE ENERGY PREDICTED BY IDOCK:   -9.01 KCAL/MOL
REMARK 924 INTRA-LIGAND FREE ENERGY PREDICTED BY IDOCK:   -1.70 KCAL/MOL
REMARK 927      BINDING AFFINITY PREDICTED BY RF-SCORE:    0.00 PKD
ROOT
HETATM    1  C   UNL     1      -9.351  19.340  69.034  1.00  0.00    -0.354 C  
HETATM    2  C   UNL     1      -9.921  18.488  67.945  1.00  0.00    -0.346 A  
HETATM    3  N   UNL     1     -10.300  17.226  68.267  1.00  0.00    -0.340 NA 
HETATM    4  C   UNL     1     -10.780  16.473  67.244  1.00  0.00    -0.243 A  
HETATM    5  C   UNL     1     -10.884  16.959  65.950  1.00  0.00    -0.037 A  
HETATM    6  C   UNL     1     -10.044  18.973  66.642  1.00  0.00    -0.392 A  
HETATM    7  N   UNL     1     -10.524  18.231  65.611  1.00  0.00    -0.623 NA 
ENDROOT
BRANCH   5   8
HETATM    8  C   UNL     1     -11.370  16.057  64.869  1.00  0.00    -0.229 C  
HETATM    9  O   UNL     1     -11.459  16.454  63.713  1.00  0.00    -1.002 OA 
HETATM   10  N   UNL     1     -11.722  14.781  65.268  1.00  0.00    -0.339 N  
HETATM   11  H   UNL     1     -11.544  14.493  66.230  1.00  0.00     0.000 HD 
BRANCH  10  12
HETATM   12  C   UNL     1     -12.336  13.843  64.350  1.00  0.00    -0.361 C  
BRANCH  12  13
HETATM   13  C   UNL     1     -11.371  12.742  63.880  1.00  0.00    -0.498 C  
BRANCH  13  14
HETATM   14  C   UNL     1     -10.988  11.736  64.950  1.00  0.00    -0.358 A  
HETATM   15  C   UNL     1     -11.530  11.793  66.242  1.00  0.00    -0.296 A  
HETATM   16  C   UNL     1     -11.134  10.890  67.231  1.00  0.00    -0.350 A  
HETATM   17  C   UNL     1     -10.232   9.874  66.924  1.00  0.00    -0.240 A  
HETATM   18  C   UNL     1      -9.715   9.766  65.630  1.00  0.00    -0.357 A  
HETATM   19  C   UNL     1     -10.097  10.689  64.650  1.00  0.00    -0.417 A  
BRANCH  17  20
HETATM   20  S   UNL     1      -9.640   8.819  68.227  1.00  0.00    -0.149 S  
HETATM   21  O   UNL     1      -9.579   7.458  67.741  1.00  0.00    -0.138 OA 
HETATM   22  O   UNL     1     -10.405   9.136  69.418  1.00  0.00    -0.203 OA 
BRANCH  20  23
HETATM   23  N   UNL     1      -8.103   9.372  68.551  1.00  0.00    -0.104 N  
HETATM   24  H   UNL     1      -7.329   8.949  68.038  1.00  0.00     0.000 HD 
BRANCH  23  25
HETATM   25  C   UNL     1      -7.802  10.363  69.467  1.00  0.00    -0.155 C  
HETATM   26  O   UNL     1      -7.334  10.136  70.570  1.00  0.00    -0.292 OA 
BRANCH  25  27
HETATM   27  N   UNL     1      -8.059  11.624  69.006  1.00  0.00    -0.363 N  
HETATM   28  H   UNL     1      -8.559  12.286  69.601  1.00  0.00     0.000 HD 
BRANCH  27  29
HETATM   29  C   UNL     1      -7.627  12.034  67.674  1.00  0.00    -0.136 C  
HETATM   30  C   UNL     1      -8.314  13.333  67.237  1.00  0.00    -0.182 C  
HETATM   31  C   UNL     1      -7.754  14.572  67.933  1.00  0.00    -0.147 C  
HETATM   32  C   UNL     1      -6.238  14.660  67.793  1.00  0.00    -0.154 C  
HETATM   33  C   UNL     1      -5.553  13.389  68.285  1.00  0.00    -0.098 C  
HETATM   34  C   UNL     1      -6.099  12.148  67.581  1.00  0.00    -0.110 C  
ENDBRANCH  27  29
ENDBRANCH  25  27
ENDBRANCH  23  25
ENDBRANCH  20  23
ENDBRANCH  17  20
ENDBRANCH  13  14
ENDBRANCH  12  13
ENDBRANCH  10  12
ENDBRANCH   5   8
TORSDOF 9
ENDMDL
MODEL       68
REMARK 921   NORMALIZED FREE ENERGY PREDICTED BY IDOCK:   -6.04 KCAL/MOL
REMARK 922        TOTAL FREE ENERGY PREDICTED BY IDOCK:  -10.71 KCAL/MOL
REMARK 923 INTER-LIGAND FREE ENERGY PREDICTED BY IDOCK:   -9.18 KCAL/MOL
REMARK 924 INTRA-LIGAND FREE ENERGY PREDICTED BY IDOCK:   -1.52 KCAL/MOL
REMARK 927      BINDING AFFINITY PREDICTED BY RF-SCORE:    0.00 PKD
ROOT
HETATM    1  C   UNL     1      -5.620  13.829  70.073  1.00  0.00    -0.116 C  
HETATM    2  C   UNL     1      -6.819  14.209  69.265  1.00  0.00    -0.118 A  
HETATM    3  N   UNL     1      -7.394  13.246  68.502  1.00  0.00    -0.111 NA 
HETATM    4  C   UNL     1      -8.458  13.639  67.756  1.00  0.00    -0.183 A  
HETATM    5  C   UNL     1      -8.937  14.940  67.773  1.00  0.00    -0.177 A  
HETATM    6  C   UNL     1      -7.317  15.513  69.286  1.00  0.00    -0.202 A  
HETATM    7  N   UNL     1      -8.382  15.917  68.547  1.00  0.00    -0.173 NA 
ENDROOT
BRANCH   5   8
HETATM    8  C   UNL     1     -10.075  15.310  66.887  1.00  0.00    -0.256 C  
HETATM    9  O   UNL     1     -10.990  16.013  67.301  1.00  0.00    -0.300 OA 
HETATM   10  N   UNL     1     -10.029  14.792  65.607  1.00  0.00    -0.345 N  
HETATM   11  H   UNL     1      -9.199  14.283  65.304  1.00  0.00     0.000 HD 
BRANCH  10  12
HETATM   12  C   UNL     1     -11.134  14.957  64.683  1.00  0.00    -0.323 C  
BRANCH  12  13
HETATM   13  C   UNL     1     -12.041  13.718  64.602  1.00  0.00    -0.452 C  
BRANCH  13  14
HETATM   14  C   UNL     1     -11.452  12.461  65.218  1.00  0.00    -0.389 A  
HETATM   15  C   UNL     1     -11.645  12.145  66.571  1.00  0.00    -0.425 A  
HETATM   16  C   UNL     1     -11.060  11.010  67.135  1.00  0.00    -0.333 A  
HETATM   17  C   UNL     1     -10.322  10.137  66.339  1.00  0.00    -0.188 A  
HETATM   18  C   UNL     1     -10.157  10.405  64.976  1.00  0.00    -0.379 A  
HETATM   19  C   UNL     1     -10.726  11.557  64.421  1.00  0.00    -0.404 A  
BRANCH  17  20
HETATM   20  S   UNL     1      -9.475   8.773  67.102  1.00  0.00    -0.173 S  
HETATM   21  O   UNL     1      -8.510   9.287  68.048  1.00  0.00    -0.119 OA 
HETATM   22  O   UNL     1      -9.052   7.881  66.039  1.00  0.00    -0.174 OA 
BRANCH  20  23
HETATM   23  N   UNL     1     -10.666   7.935  67.909  1.00  0.00    -0.442 N  
HETATM   24  H   UNL     1     -11.579   7.858  67.459  1.00  0.00     0.000 HD 
BRANCH  23  25
HETATM   25  C   UNL     1     -10.506   7.337  69.145  1.00  0.00    -0.215 C  
HETATM   26  O   UNL     1      -9.614   6.543  69.394  1.00  0.00    -0.144 OA 
BRANCH  25  27
HETATM   27  N   UNL     1     -11.432   7.738  70.067  1.00  0.00    -0.470 N  
HETATM   28  H   UNL     1     -12.395   7.413  69.988  1.00  0.00     0.000 HD 
BRANCH  27  29
HETATM   29  C   UNL     1     -11.056   8.627  71.163  1.00  0.00    -0.266 C  
HETATM   30  C   UNL     1     -11.008  10.089  70.707  1.00  0.00    -0.375 C  
HETATM   31  C   UNL     1     -12.394  10.705  70.521  1.00  0.00    -0.448 C  
HETATM   32  C   UNL     1     -13.261  10.528  71.762  1.00  0.00    -0.522 C  
HETATM   33  C   UNL     1     -13.355   9.064  72.178  1.00  0.00    -0.510 C  
HETATM   34  C   UNL     1     -11.973   8.447  72.381  1.00  0.00    -0.451 C  
ENDBRANCH  27  29
ENDBRANCH  25  27
ENDBRANCH  23  25
ENDBRANCH  20  23
ENDBRANCH  17  20
ENDBRANCH  13  14
ENDBRANCH  12  13
ENDBRANCH  10  12
ENDBRANCH   5   8
TORSDOF 9
ENDMDL
MODEL       69
REMARK 921   NORMALIZED FREE ENERGY PREDICTED BY IDOCK:   -6.03 KCAL/MOL
REMARK 922        TOTAL FREE ENERGY PREDICTED BY IDOCK:  -10.69 KCAL/MOL
REMARK 923 INTER-LIGAND FREE ENERGY PREDICTED BY IDOCK:   -8.38 KCAL/MOL
REMARK 924 INTRA-LIGAND FREE ENERGY PREDICTED BY IDOCK:   -2.31 KCAL/MOL
REMARK 927      BINDING AFFINITY PREDICTED BY RF-SCORE:    0.00 PKD
ROOT
HETATM    1  C   UNL     1     -11.513   6.464  70.990  1.00  0.00    -0.394 C  
HETATM    2  C   UNL     1     -11.840   7.924  71.008  1.00  0.00    -0.268 A  
HETATM    3  N   UNL     1     -11.146   8.734  70.171  1.00  0.00    -0.236 NA 
HETATM    4  C   UNL     1     -11.448  10.055  70.241  1.00  0.00    -0.300 A  
HETATM    5  C   UNL     1     -12.408  10.553  71.109  1.00  0.00    -0.405 A  
HETATM    6  C   UNL     1     -12.815   8.432  71.868  1.00  0.00    -0.353 A  
HETATM    7  N   UNL     1     -13.128   9.751  71.946  1.00  0.00    -0.418 NA 
ENDROOT
BRANCH   5   8
HETATM    8  C   UNL     1     -12.646  12.021  71.168  1.00  0.00    -0.271 C  
HETATM    9  O   UNL     1     -13.418  12.499  71.993  1.00  0.00    -0.493 OA 
HETATM   10  N   UNL     1     -11.965  12.776  70.233  1.00  0.00    -0.499 N  
HETATM   11  H   UNL     1     -11.277  12.323  69.632  1.00  0.00     0.000 HD 
BRANCH  10  12
HETATM   12  C   UNL     1     -12.204  14.199  70.087  1.00  0.00    -0.351 C  
BRANCH  12  13
HETATM   13  C   UNL     1     -11.739  14.750  68.729  1.00  0.00    -0.354 C  
BRANCH  13  14
HETATM   14  C   UNL     1     -11.158  13.710  67.788  1.00  0.00    -0.293 A  
HETATM   15  C   UNL     1     -11.939  13.091  66.801  1.00  0.00    -0.434 A  
HETATM   16  C   UNL     1     -11.404  12.103  65.973  1.00  0.00    -0.410 A  
HETATM   17  C   UNL     1     -10.058  11.762  66.077  1.00  0.00    -0.231 A  
HETATM   18  C   UNL     1      -9.246  12.400  67.019  1.00  0.00    -0.208 A  
HETATM   19  C   UNL     1      -9.794  13.373  67.863  1.00  0.00    -0.237 A  
BRANCH  17  20
HETATM   20  S   UNL     1      -9.429  10.410  65.107  1.00  0.00    -0.275 S  
HETATM   21  O   UNL     1      -7.991  10.354  65.253  1.00  0.00    -0.150 OA 
HETATM   22  O   UNL     1     -10.026  10.513  63.789  1.00  0.00    -0.323 OA 
BRANCH  20  23
HETATM   23  N   UNL     1     -10.119   9.053  65.779  1.00  0.00    -0.362 N  
HETATM   24  H   UNL     1     -11.123   8.920  65.656  1.00  0.00     0.000 HD 
BRANCH  23  25
HETATM   25  C   UNL     1      -9.427   8.092  66.494  1.00  0.00    -0.214 C  
HETATM   26  O   UNL     1      -9.181   6.979  66.057  1.00  0.00    -0.127 OA 
BRANCH  25  27
HETATM   27  N   UNL     1      -9.026   8.517  67.729  1.00  0.00    -0.136 N  
HETATM   28  H   UNL     1      -9.713   8.904  68.377  1.00  0.00     0.000 HD 
BRANCH  27  29
HETATM   29  C   UNL     1      -7.626   8.424  68.133  1.00  0.00    -0.098 C  
HETATM   30  C   UNL     1      -7.110   9.761  68.676  1.00  0.00    -0.071 C  
HETATM   31  C   UNL     1      -7.620  10.075  70.081  1.00  0.00    -0.168 C  
HETATM   32  C   UNL     1      -7.349   8.928  71.049  1.00  0.00    -0.114 C  
HETATM   33  C   UNL     1      -7.917   7.611  70.534  1.00  0.00    -0.100 C  
HETATM   34  C   UNL     1      -7.398   7.284  69.135  1.00  0.00    -0.087 C  
ENDBRANCH  27  29
ENDBRANCH  25  27
ENDBRANCH  23  25
ENDBRANCH  20  23
ENDBRANCH  17  20
ENDBRANCH  13  14
ENDBRANCH  12  13
ENDBRANCH  10  12
ENDBRANCH   5   8
TORSDOF 9
ENDMDL
MODEL       70
REMARK 921   NORMALIZED FREE ENERGY PREDICTED BY IDOCK:   -6.02 KCAL/MOL
REMARK 922        TOTAL FREE ENERGY PREDICTED BY IDOCK:  -10.69 KCAL/MOL
REMARK 923 INTER-LIGAND FREE ENERGY PREDICTED BY IDOCK:   -9.24 KCAL/MOL
REMARK 924 INTRA-LIGAND FREE ENERGY PREDICTED BY IDOCK:   -1.45 KCAL/MOL
REMARK 927      BINDING AFFINITY PREDICTED BY RF-SCORE:    0.00 PKD
ROOT
HETATM    1  C   UNL     1     -13.683   9.096  72.613  1.00  0.00    -0.416 C  
HETATM    2  C   UNL     1     -12.626   9.032  71.556  1.00  0.00    -0.338 A  
HETATM    3  N   UNL     1     -12.157  10.206  71.065  1.00  0.00    -0.345 NA 
HETATM    4  C   UNL     1     -11.225  10.106  70.083  1.00  0.00    -0.310 A  
HETATM    5  C   UNL     1     -10.772   8.884  69.611  1.00  0.00    -0.217 A  
HETATM    6  C   UNL     1     -12.153   7.807  71.085  1.00  0.00    -0.286 A  
HETATM    7  N   UNL     1     -11.220   7.694  70.105  1.00  0.00    -0.226 NA 
ENDROOT
BRANCH   5   8
HETATM    8  C   UNL     1      -9.787   8.853  68.494  1.00  0.00    -0.167 C  
HETATM    9  O   UNL     1      -8.584   8.932  68.716  1.00  0.00    -0.133 OA 
HETATM   10  N   UNL     1     -10.324   8.754  67.225  1.00  0.00    -0.270 N  
HETATM   11  H   UNL     1     -11.328   8.609  67.119  1.00  0.00     0.000 HD 
BRANCH  10  12
HETATM   12  C   UNL     1      -9.494   8.849  66.041  1.00  0.00    -0.252 C  
BRANCH  12  13
HETATM   13  C   UNL     1      -9.850  10.053  65.153  1.00  0.00    -0.388 C  
BRANCH  13  14
HETATM   14  C   UNL     1     -10.067  11.353  65.905  1.00  0.00    -0.286 A  
HETATM   15  C   UNL     1      -8.991  12.118  66.381  1.00  0.00    -0.138 A  
HETATM   16  C   UNL     1      -9.205  13.288  67.111  1.00  0.00    -0.235 A  
HETATM   17  C   UNL     1     -10.503  13.747  67.325  1.00  0.00    -0.264 A  
HETATM   18  C   UNL     1     -11.591  13.029  66.819  1.00  0.00    -0.420 A  
HETATM   19  C   UNL     1     -11.370  11.844  66.108  1.00  0.00    -0.383 A  
BRANCH  17  20
HETATM   20  S   UNL     1     -10.760  15.163  68.369  1.00  0.00    -0.257 S  
HETATM   21  O   UNL     1      -9.529  15.465  69.066  1.00  0.00    -0.206 OA 
HETATM   22  O   UNL     1     -11.982  14.931  69.115  1.00  0.00    -0.304 OA 
BRANCH  20  23
HETATM   23  N   UNL     1     -11.133  16.400  67.319  1.00  0.00    -0.106 N  
HETATM   24  H   UNL     1     -12.053  16.832  67.404  1.00  0.00     0.000 HD 
BRANCH  23  25
HETATM   25  C   UNL     1     -10.283  16.882  66.340  1.00  0.00    -0.321 C  
HETATM   26  O   UNL     1     -10.447  16.673  65.149  1.00  0.00    -0.647 OA 
BRANCH  25  27
HETATM   27  N   UNL     1      -9.255  17.633  66.835  1.00  0.00    -0.256 N  
HETATM   28  H   UNL     1      -8.310  17.251  66.844  1.00  0.00     0.000 HD 
BRANCH  27  29
HETATM   29  C   UNL     1      -9.495  18.977  67.352  1.00  0.00    -0.301 C  
HETATM   30  C   UNL     1      -8.825  19.181  68.715  1.00  0.00    -0.372 C  
HETATM   31  C   UNL     1      -7.311  19.357  68.620  1.00  0.00    -0.375 C  
HETATM   32  C   UNL     1      -6.932  20.457  67.634  1.00  0.00    -0.342 C  
HETATM   33  C   UNL     1      -7.551  20.218  66.261  1.00  0.00    -0.255 C  
HETATM   34  C   UNL     1      -9.068  20.057  66.348  1.00  0.00    -0.427 C  
ENDBRANCH  27  29
ENDBRANCH  25  27
ENDBRANCH  23  25
ENDBRANCH  20  23
ENDBRANCH  17  20
ENDBRANCH  13  14
ENDBRANCH  12  13
ENDBRANCH  10  12
ENDBRANCH   5   8
TORSDOF 9
ENDMDL
MODEL       71
REMARK 921   NORMALIZED FREE ENERGY PREDICTED BY IDOCK:   -6.01 KCAL/MOL
REMARK 922        TOTAL FREE ENERGY PREDICTED BY IDOCK:  -10.67 KCAL/MOL
REMARK 923 INTER-LIGAND FREE ENERGY PREDICTED BY IDOCK:   -8.69 KCAL/MOL
REMARK 924 INTRA-LIGAND FREE ENERGY PREDICTED BY IDOCK:   -1.98 KCAL/MOL
REMARK 927      BINDING AFFINITY PREDICTED BY RF-SCORE:    0.00 PKD
ROOT
HETATM    1  C   UNL     1     -13.042  15.479  70.965  1.00  0.00    -0.551 C  
HETATM    2  C   UNL     1     -12.909  13.996  71.107  1.00  0.00    -0.357 A  
HETATM    3  N   UNL     1     -13.564  13.402  72.136  1.00  0.00    -0.530 NA 
HETATM    4  C   UNL     1     -13.390  12.061  72.252  1.00  0.00    -0.156 A  
HETATM    5  C   UNL     1     -12.599  11.336  71.374  1.00  0.00    -0.351 A  
HETATM    6  C   UNL     1     -12.127  13.256  70.220  1.00  0.00    -0.335 A  
HETATM    7  N   UNL     1     -11.948  11.914  70.324  1.00  0.00    -0.352 NA 
ENDROOT
BRANCH   5   8
HETATM    8  C   UNL     1     -12.413   9.875  71.596  1.00  0.00    -0.415 C  
HETATM    9  O   UNL     1     -13.366   9.157  71.878  1.00  0.00    -0.368 OA 
HETATM   10  N   UNL     1     -11.116   9.414  71.484  1.00  0.00    -0.376 N  
HETATM   11  H   UNL     1     -10.386  10.051  71.166  1.00  0.00     0.000 HD 
BRANCH  10  12
HETATM   12  C   UNL     1     -10.768   8.044  71.806  1.00  0.00    -0.240 C  
BRANCH  12  13
HETATM   13  C   UNL     1     -10.618   7.153  70.562  1.00  0.00    -0.243 C  
BRANCH  13  14
HETATM   14  C   UNL     1     -10.190   7.888  69.304  1.00  0.00    -0.216 A  
HETATM   15  C   UNL     1      -9.076   8.740  69.292  1.00  0.00    -0.145 A  
HETATM   16  C   UNL     1      -8.721   9.446  68.141  1.00  0.00    -0.124 A  
HETATM   17  C   UNL     1      -9.440   9.262  66.962  1.00  0.00    -0.159 A  
HETATM   18  C   UNL     1     -10.525   8.381  66.936  1.00  0.00    -0.359 A  
HETATM   19  C   UNL     1     -10.891   7.695  68.100  1.00  0.00    -0.040 A  
BRANCH  17  20
HETATM   20  S   UNL     1      -9.057  10.269  65.548  1.00  0.00    -0.191 S  
HETATM   21  O   UNL     1      -9.028   9.433  64.368  1.00  0.00    -0.217 OA 
HETATM   22  O   UNL     1      -7.905  11.078  65.896  1.00  0.00    -0.130 OA 
BRANCH  20  23
HETATM   23  N   UNL     1     -10.318  11.350  65.444  1.00  0.00    -0.268 N  
HETATM   24  H   UNL     1     -10.698  11.548  64.518  1.00  0.00     0.000 HD 
BRANCH  23  25
HETATM   25  C   UNL     1     -10.888  11.998  66.525  1.00  0.00    -0.277 C  
HETATM   26  O   UNL     1     -12.048  11.839  66.867  1.00  0.00    -0.566 OA 
BRANCH  25  27
HETATM   27  N   UNL     1     -10.017  12.819  67.186  1.00  0.00    -0.215 N  
HETATM   28  H   UNL     1      -9.657  12.542  68.099  1.00  0.00     0.000 HD 
BRANCH  27  29
HETATM   29  C   UNL     1      -9.597  14.088  66.599  1.00  0.00    -0.289 C  
HETATM   30  C   UNL     1     -10.797  14.998  66.315  1.00  0.00    -0.333 C  
HETATM   31  C   UNL     1     -11.379  15.635  67.575  1.00  0.00    -0.198 C  
HETATM   32  C   UNL     1     -10.308  16.350  68.392  1.00  0.00    -0.282 C  
HETATM   33  C   UNL     1      -9.143  15.424  68.725  1.00  0.00    -0.207 C  
HETATM   34  C   UNL     1      -8.547  14.796  67.466  1.00  0.00    -0.198 C  
ENDBRANCH  27  29
ENDBRANCH  25  27
ENDBRANCH  23  25
ENDBRANCH  20  23
ENDBRANCH  17  20
ENDBRANCH  13  14
ENDBRANCH  12  13
ENDBRANCH  10  12
ENDBRANCH   5   8
TORSDOF 9
ENDMDL
MODEL       72
REMARK 921   NORMALIZED FREE ENERGY PREDICTED BY IDOCK:   -6.01 KCAL/MOL
REMARK 922        TOTAL FREE ENERGY PREDICTED BY IDOCK:  -10.66 KCAL/MOL
REMARK 923 INTER-LIGAND FREE ENERGY PREDICTED BY IDOCK:   -9.26 KCAL/MOL
REMARK 924 INTRA-LIGAND FREE ENERGY PREDICTED BY IDOCK:   -1.40 KCAL/MOL
REMARK 927      BINDING AFFINITY PREDICTED BY RF-SCORE:    0.00 PKD
ROOT
HETATM    1  C   UNL     1     -12.527  15.400  64.305  1.00  0.00     0.048 C  
HETATM    2  C   UNL     1     -11.814  14.089  64.406  1.00  0.00    -0.431 A  
HETATM    3  N   UNL     1     -12.193  13.100  63.558  1.00  0.00    -0.701 NA 
HETATM    4  C   UNL     1     -11.547  11.916  63.704  1.00  0.00    -0.464 A  
HETATM    5  C   UNL     1     -10.556  11.722  64.654  1.00  0.00    -0.308 A  
HETATM    6  C   UNL     1     -10.805  13.889  65.349  1.00  0.00    -0.319 A  
HETATM    7  N   UNL     1     -10.150  12.710  65.503  1.00  0.00    -0.274 NA 
ENDROOT
BRANCH   5   8
HETATM    8  C   UNL     1      -9.929  10.379  64.791  1.00  0.00    -0.339 C  
HETATM    9  O   UNL     1      -9.435   9.814  63.821  1.00  0.00    -0.223 OA 
HETATM   10  N   UNL     1      -9.968   9.827  66.057  1.00  0.00    -0.273 N  
HETATM   11  H   UNL     1     -10.321  10.385  66.834  1.00  0.00     0.000 HD 
BRANCH  10  12
HETATM   12  C   UNL     1      -9.519   8.471  66.307  1.00  0.00    -0.231 C  
BRANCH  12  13
HETATM   13  C   UNL     1     -10.588   7.598  66.984  1.00  0.00    -0.406 C  
BRANCH  13  14
HETATM   14  C   UNL     1     -10.143   6.940  68.278  1.00  0.00    -0.182 A  
HETATM   15  C   UNL     1     -10.772   5.787  68.771  1.00  0.00    -0.318 A  
HETATM   16  C   UNL     1     -10.383   5.219  69.986  1.00  0.00    -0.365 A  
HETATM   17  C   UNL     1      -9.316   5.760  70.698  1.00  0.00    -0.159 A  
HETATM   18  C   UNL     1      -8.641   6.880  70.203  1.00  0.00    -0.141 A  
HETATM   19  C   UNL     1      -9.051   7.460  68.996  1.00  0.00    -0.133 A  
BRANCH  17  20
HETATM   20  S   UNL     1      -8.924   5.105  72.304  1.00  0.00    -0.128 S  
HETATM   21  O   UNL     1      -7.613   5.571  72.697  1.00  0.00    -0.095 OA 
HETATM   22  O   UNL     1      -9.214   3.684  72.271  1.00  0.00    -0.109 OA 
BRANCH  20  23
HETATM   23  N   UNL     1     -10.079   5.749  73.315  1.00  0.00    -0.180 N  
HETATM   24  H   UNL     1     -10.644   5.101  73.864  1.00  0.00     0.000 HD 
BRANCH  23  25
HETATM   25  C   UNL     1     -10.327   7.102  73.464  1.00  0.00    -0.369 C  
HETATM   26  O   UNL     1      -9.480   7.903  73.823  1.00  0.00    -0.268 OA 
BRANCH  25  27
HETATM   27  N   UNL     1     -11.609   7.457  73.147  1.00  0.00    -0.588 N  
HETATM   28  H   UNL     1     -12.278   7.644  73.893  1.00  0.00     0.000 HD 
BRANCH  27  29
HETATM   29  C   UNL     1     -12.028   7.570  71.754  1.00  0.00    -0.301 C  
HETATM   30  C   UNL     1     -13.550   7.449  71.616  1.00  0.00    -0.449 C  
HETATM   31  C   UNL     1     -14.295   8.703  72.069  1.00  0.00    -0.512 C  
HETATM   32  C   UNL     1     -13.763   9.956  71.381  1.00  0.00    -0.203 C  
HETATM   33  C   UNL     1     -12.258  10.105  71.572  1.00  0.00    -0.473 C  
HETATM   34  C   UNL     1     -11.506   8.859  71.105  1.00  0.00    -0.364 C  
ENDBRANCH  27  29
ENDBRANCH  25  27
ENDBRANCH  23  25
ENDBRANCH  20  23
ENDBRANCH  17  20
ENDBRANCH  13  14
ENDBRANCH  12  13
ENDBRANCH  10  12
ENDBRANCH   5   8
TORSDOF 9
ENDMDL
MODEL       73
REMARK 921   NORMALIZED FREE ENERGY PREDICTED BY IDOCK:   -5.98 KCAL/MOL
REMARK 922        TOTAL FREE ENERGY PREDICTED BY IDOCK:  -10.62 KCAL/MOL
REMARK 923 INTER-LIGAND FREE ENERGY PREDICTED BY IDOCK:   -8.54 KCAL/MOL
REMARK 924 INTRA-LIGAND FREE ENERGY PREDICTED BY IDOCK:   -2.09 KCAL/MOL
REMARK 927      BINDING AFFINITY PREDICTED BY RF-SCORE:    0.00 PKD
ROOT
HETATM    1  C   UNL     1     -10.642  18.903  66.148  1.00  0.00    -0.476 C  
HETATM    2  C   UNL     1     -10.629  17.435  65.862  1.00  0.00    -0.200 A  
HETATM    3  N   UNL     1     -11.174  17.017  64.693  1.00  0.00    -0.972 NA 
HETATM    4  C   UNL     1     -11.174  15.675  64.486  1.00  0.00    -0.325 A  
HETATM    5  C   UNL     1     -10.646  14.782  65.406  1.00  0.00    -0.378 A  
HETATM    6  C   UNL     1     -10.087  16.529  66.775  1.00  0.00    -0.288 A  
HETATM    7  N   UNL     1     -10.078  15.186  66.579  1.00  0.00    -0.260 NA 
ENDROOT
BRANCH   5   8
HETATM    8  C   UNL     1     -10.730  13.321  65.135  1.00  0.00    -0.322 C  
HETATM    9  O   UNL     1     -11.460  12.887  64.249  1.00  0.00    -0.336 OA 
HETATM   10  N   UNL     1      -9.960  12.515  65.951  1.00  0.00    -0.256 N  
HETATM   11  H   UNL     1      -9.315  12.948  66.612  1.00  0.00     0.000 HD 
BRANCH  10  12
HETATM   12  C   UNL     1     -10.047  11.069  65.890  1.00  0.00    -0.249 C  
BRANCH  12  13
HETATM   13  C   UNL     1     -10.683  10.451  67.146  1.00  0.00    -0.316 C  
BRANCH  13  14
HETATM   14  C   UNL     1     -10.108   9.106  67.551  1.00  0.00    -0.284 A  
HETATM   15  C   UNL     1     -10.624   7.903  67.048  1.00  0.00    -0.381 A  
HETATM   16  C   UNL     1     -10.116   6.671  67.464  1.00  0.00    -0.202 A  
HETATM   17  C   UNL     1      -9.039   6.624  68.347  1.00  0.00    -0.124 A  
HETATM   18  C   UNL     1      -8.475   7.811  68.824  1.00  0.00    -0.129 A  
HETATM   19  C   UNL     1      -9.004   9.043  68.421  1.00  0.00    -0.133 A  
BRANCH  17  20
HETATM   20  S   UNL     1      -8.495   5.050  68.968  1.00  0.00    -0.082 S  
HETATM   21  O   UNL     1      -7.334   5.249  69.807  1.00  0.00    -0.061 OA 
HETATM   22  O   UNL     1      -8.431   4.141  67.839  1.00  0.00    -0.093 OA 
BRANCH  20  23
HETATM   23  N   UNL     1      -9.768   4.496  69.886  1.00  0.00    -0.203 N  
HETATM   24  H   UNL     1     -10.587   4.138  69.394  1.00  0.00     0.000 HD 
BRANCH  23  25
HETATM   25  C   UNL     1      -9.794   4.487  71.269  1.00  0.00    -0.190 C  
HETATM   26  O   UNL     1      -9.982   3.479  71.929  1.00  0.00    -0.166 OA 
BRANCH  25  27
HETATM   27  N   UNL     1      -9.566   5.716  71.824  1.00  0.00    -0.155 N  
HETATM   28  H   UNL     1      -8.658   6.164  71.701  1.00  0.00     0.000 HD 
BRANCH  27  29
HETATM   29  C   UNL     1     -10.609   6.393  72.589  1.00  0.00    -0.224 C  
HETATM   30  C   UNL     1     -10.154   7.783  73.046  1.00  0.00    -0.382 C  
HETATM   31  C   UNL     1     -10.145   8.813  71.918  1.00  0.00    -0.409 C  
HETATM   32  C   UNL     1     -11.485   8.866  71.192  1.00  0.00    -0.364 C  
HETATM   33  C   UNL     1     -11.905   7.491  70.686  1.00  0.00    -0.205 C  
HETATM   34  C   UNL     1     -11.931   6.460  71.814  1.00  0.00    -0.370 C  
ENDBRANCH  27  29
ENDBRANCH  25  27
ENDBRANCH  23  25
ENDBRANCH  20  23
ENDBRANCH  17  20
ENDBRANCH  13  14
ENDBRANCH  12  13
ENDBRANCH  10  12
ENDBRANCH   5   8
TORSDOF 9
ENDMDL
MODEL       74
REMARK 921   NORMALIZED FREE ENERGY PREDICTED BY IDOCK:   -5.95 KCAL/MOL
REMARK 922        TOTAL FREE ENERGY PREDICTED BY IDOCK:  -10.58 KCAL/MOL
REMARK 923 INTER-LIGAND FREE ENERGY PREDICTED BY IDOCK:   -9.35 KCAL/MOL
REMARK 924 INTRA-LIGAND FREE ENERGY PREDICTED BY IDOCK:   -1.23 KCAL/MOL
REMARK 927      BINDING AFFINITY PREDICTED BY RF-SCORE:    0.00 PKD
ROOT
HETATM    1  C   UNL     1      -5.921  19.827  70.293  1.00  0.00    -0.337 C  
HETATM    2  C   UNL     1      -6.745  19.014  69.346  1.00  0.00    -0.266 A  
HETATM    3  N   UNL     1      -7.798  19.624  68.746  1.00  0.00    -0.333 NA 
HETATM    4  C   UNL     1      -8.542  18.844  67.922  1.00  0.00    -0.294 A  
HETATM    5  C   UNL     1      -8.247  17.508  67.697  1.00  0.00    -0.215 A  
HETATM    6  C   UNL     1      -6.448  17.673  69.102  1.00  0.00    -0.237 A  
HETATM    7  N   UNL     1      -7.182  16.883  68.277  1.00  0.00    -0.179 NA 
ENDROOT
BRANCH   5   8
HETATM    8  C   UNL     1      -9.140  16.701  66.820  1.00  0.00    -0.237 C  
HETATM    9  O   UNL     1      -9.257  16.967  65.629  1.00  0.00    -0.512 OA 
HETATM   10  N   UNL     1      -9.822  15.674  67.444  1.00  0.00    -0.224 N  
HETATM   11  H   UNL     1      -9.615  15.458  68.419  1.00  0.00     0.000 HD 
BRANCH  10  12
HETATM   12  C   UNL     1     -10.826  14.896  66.745  1.00  0.00    -0.320 C  
BRANCH  12  13
HETATM   13  C   UNL     1     -12.000  14.479  67.646  1.00  0.00    -0.355 C  
BRANCH  13  14
HETATM   14  C   UNL     1     -11.839  13.122  68.308  1.00  0.00    -0.384 A  
HETATM   15  C   UNL     1     -12.036  12.948  69.686  1.00  0.00    -0.358 A  
HETATM   16  C   UNL     1     -11.840  11.704  70.290  1.00  0.00    -0.414 A  
HETATM   17  C   UNL     1     -11.504  10.598  69.513  1.00  0.00    -0.291 A  
HETATM   18  C   UNL     1     -11.351  10.736  68.130  1.00  0.00    -0.377 A  
HETATM   19  C   UNL     1     -11.525  11.991  67.534  1.00  0.00    -0.403 A  
BRANCH  17  20
HETATM   20  S   UNL     1     -11.129   9.056  70.316  1.00  0.00    -0.207 S  
HETATM   21  O   UNL     1     -10.368   9.323  71.517  1.00  0.00    -0.336 OA 
HETATM   22  O   UNL     1     -10.603   8.161  69.303  1.00  0.00    -0.222 OA 
BRANCH  20  23
HETATM   23  N   UNL     1     -12.613   8.417  70.717  1.00  0.00    -0.479 N  
HETATM   24  H   UNL     1     -13.442   8.858  70.318  1.00  0.00     0.000 HD 
BRANCH  23  25
HETATM   25  C   UNL     1     -12.801   7.331  71.552  1.00  0.00    -0.388 C  
HETATM   26  O   UNL     1     -13.871   6.760  71.678  1.00  0.00    -0.232 OA 
BRANCH  25  27
HETATM   27  N   UNL     1     -11.664   6.946  72.206  1.00  0.00    -0.360 N  
HETATM   28  H   UNL     1     -11.187   7.606  72.820  1.00  0.00     0.000 HD 
BRANCH  27  29
HETATM   29  C   UNL     1     -11.125   5.600  72.035  1.00  0.00    -0.230 C  
HETATM   30  C   UNL     1      -9.686   5.636  71.509  1.00  0.00    -0.200 C  
HETATM   31  C   UNL     1      -8.667   6.040  72.573  1.00  0.00    -0.122 C  
HETATM   32  C   UNL     1      -8.790   5.180  73.826  1.00  0.00    -0.118 C  
HETATM   33  C   UNL     1     -10.209   5.196  74.382  1.00  0.00    -0.301 C  
HETATM   34  C   UNL     1     -11.231   4.777  73.326  1.00  0.00    -0.421 C  
ENDBRANCH  27  29
ENDBRANCH  25  27
ENDBRANCH  23  25
ENDBRANCH  20  23
ENDBRANCH  17  20
ENDBRANCH  13  14
ENDBRANCH  12  13
ENDBRANCH  10  12
ENDBRANCH   5   8
TORSDOF 9
ENDMDL
MODEL       75
REMARK 921   NORMALIZED FREE ENERGY PREDICTED BY IDOCK:   -5.95 KCAL/MOL
REMARK 922        TOTAL FREE ENERGY PREDICTED BY IDOCK:  -10.58 KCAL/MOL
REMARK 923 INTER-LIGAND FREE ENERGY PREDICTED BY IDOCK:   -9.54 KCAL/MOL
REMARK 924 INTRA-LIGAND FREE ENERGY PREDICTED BY IDOCK:   -1.04 KCAL/MOL
REMARK 927      BINDING AFFINITY PREDICTED BY RF-SCORE:    0.00 PKD
ROOT
HETATM    1  C   UNL     1      -9.696  18.389  68.260  1.00  0.00    -0.366 C  
HETATM    2  C   UNL     1     -10.232  17.377  67.298  1.00  0.00    -0.324 A  
HETATM    3  N   UNL     1     -10.571  16.159  67.791  1.00  0.00    -0.302 NA 
HETATM    4  C   UNL     1     -11.020  15.257  66.882  1.00  0.00    -0.315 A  
HETATM    5  C   UNL     1     -11.135  15.557  65.533  1.00  0.00    -0.262 A  
HETATM    6  C   UNL     1     -10.365  17.673  65.941  1.00  0.00    -0.257 A  
HETATM    7  N   UNL     1     -10.817  16.781  65.022  1.00  0.00    -0.653 NA 
ENDROOT
BRANCH   5   8
HETATM    8  C   UNL     1     -11.586  14.499  64.587  1.00  0.00    -0.408 C  
HETATM    9  O   UNL     1     -12.627  14.627  63.951  1.00  0.00    -0.834 OA 
HETATM   10  N   UNL     1     -10.772  13.385  64.503  1.00  0.00    -0.402 N  
HETATM   11  H   UNL     1      -9.881  13.381  64.998  1.00  0.00     0.000 HD 
BRANCH  10  12
HETATM   12  C   UNL     1     -11.157  12.222  63.727  1.00  0.00    -0.442 C  
BRANCH  12  13
HETATM   13  C   UNL     1      -9.952  11.426  63.200  1.00  0.00    -0.402 C  
BRANCH  13  14
HETATM   14  C   UNL     1      -9.525  10.266  64.081  1.00  0.00    -0.358 A  
HETATM   15  C   UNL     1      -8.542   9.353  63.671  1.00  0.00    -0.220 A  
HETATM   16  C   UNL     1      -8.191   8.264  64.471  1.00  0.00    -0.138 A  
HETATM   17  C   UNL     1      -8.774   8.105  65.726  1.00  0.00    -0.154 A  
HETATM   18  C   UNL     1      -9.720   9.029  66.178  1.00  0.00    -0.354 A  
HETATM   19  C   UNL     1     -10.086  10.106  65.361  1.00  0.00    -0.342 A  
BRANCH  17  20
HETATM   20  S   UNL     1      -8.414   6.642  66.670  1.00  0.00    -0.124 S  
HETATM   21  O   UNL     1      -7.309   6.917  67.562  1.00  0.00    -0.091 OA 
HETATM   22  O   UNL     1      -8.339   5.535  65.736  1.00  0.00    -0.118 OA 
BRANCH  20  23
HETATM   23  N   UNL     1      -9.796   6.359  67.553  1.00  0.00    -0.119 N  
HETATM   24  H   UNL     1     -10.690   6.594  67.123  1.00  0.00     0.000 HD 
BRANCH  23  25
HETATM   25  C   UNL     1      -9.817   5.828  68.830  1.00  0.00    -0.147 C  
HETATM   26  O   UNL     1     -10.003   4.645  69.061  1.00  0.00    -0.175 OA 
BRANCH  25  27
HETATM   27  N   UNL     1      -9.589   6.756  69.808  1.00  0.00    -0.151 N  
HETATM   28  H   UNL     1      -8.678   6.792  70.266  1.00  0.00     0.000 HD 
BRANCH  27  29
HETATM   29  C   UNL     1     -10.634   7.695  70.203  1.00  0.00    -0.236 C  
HETATM   30  C   UNL     1     -11.858   6.966  70.768  1.00  0.00    -0.427 C  
HETATM   31  C   UNL     1     -11.638   6.429  72.181  1.00  0.00    -0.357 C  
HETATM   32  C   UNL     1     -11.141   7.516  73.127  1.00  0.00    -0.378 C  
HETATM   33  C   UNL     1      -9.888   8.199  72.591  1.00  0.00    -0.364 C  
HETATM   34  C   UNL     1     -10.107   8.752  71.184  1.00  0.00    -0.317 C  
ENDBRANCH  27  29
ENDBRANCH  25  27
ENDBRANCH  23  25
ENDBRANCH  20  23
ENDBRANCH  17  20
ENDBRANCH  13  14
ENDBRANCH  12  13
ENDBRANCH  10  12
ENDBRANCH   5   8
TORSDOF 9
ENDMDL
MODEL       76
REMARK 921   NORMALIZED FREE ENERGY PREDICTED BY IDOCK:   -5.95 KCAL/MOL
REMARK 922        TOTAL FREE ENERGY PREDICTED BY IDOCK:  -10.57 KCAL/MOL
REMARK 923 INTER-LIGAND FREE ENERGY PREDICTED BY IDOCK:   -8.41 KCAL/MOL
REMARK 924 INTRA-LIGAND FREE ENERGY PREDICTED BY IDOCK:   -2.16 KCAL/MOL
REMARK 927      BINDING AFFINITY PREDICTED BY RF-SCORE:    0.00 PKD
ROOT
HETATM    1  C   UNL     1     -11.394  11.342  63.744  1.00  0.00    -0.310 C  
HETATM    2  C   UNL     1     -11.296  12.788  64.116  1.00  0.00    -0.390 A  
HETATM    3  N   UNL     1     -10.189  13.189  64.791  1.00  0.00    -0.326 NA 
HETATM    4  C   UNL     1     -10.153  14.500  65.141  1.00  0.00    -0.327 A  
HETATM    5  C   UNL     1     -11.177  15.381  64.827  1.00  0.00    -0.395 A  
HETATM    6  C   UNL     1     -12.314  13.685  63.792  1.00  0.00    -0.296 A  
HETATM    7  N   UNL     1     -12.288  14.999  64.134  1.00  0.00    -0.711 NA 
ENDROOT
BRANCH   5   8
HETATM    8  C   UNL     1     -11.091  16.793  65.291  1.00  0.00     0.007 C  
HETATM    9  O   UNL     1     -11.194  17.722  64.497  1.00  0.00    -0.692 OA 
HETATM   10  N   UNL     1     -10.871  16.965  66.644  1.00  0.00    -0.070 N  
HETATM   11  H   UNL     1     -10.877  16.151  67.258  1.00  0.00     0.000 HD 
BRANCH  10  12
HETATM   12  C   UNL     1     -10.631  18.278  67.212  1.00  0.00    -0.381 C  
BRANCH  12  13
HETATM   13  C   UNL     1      -9.381  18.327  68.106  1.00  0.00    -0.307 C  
BRANCH  13  14
HETATM   14  C   UNL     1      -8.584  17.036  68.152  1.00  0.00    -0.228 A  
HETATM   15  C   UNL     1      -7.699  16.680  67.123  1.00  0.00    -0.213 A  
HETATM   16  C   UNL     1      -7.007  15.468  67.156  1.00  0.00    -0.125 A  
HETATM   17  C   UNL     1      -7.141  14.618  68.252  1.00  0.00    -0.115 A  
HETATM   18  C   UNL     1      -7.980  14.974  69.313  1.00  0.00    -0.190 A  
HETATM   19  C   UNL     1      -8.689  16.180  69.263  1.00  0.00    -0.190 A  
BRANCH  17  20
HETATM   20  S   UNL     1      -6.358  13.023  68.213  1.00  0.00    -0.103 S  
HETATM   21  O   UNL     1      -6.205  12.539  69.568  1.00  0.00    -0.105 OA 
HETATM   22  O   UNL     1      -5.203  13.132  67.343  1.00  0.00    -0.313 OA 
BRANCH  20  23
HETATM   23  N   UNL     1      -7.423  12.050  67.383  1.00  0.00    -0.142 N  
HETATM   24  H   UNL     1      -7.412  12.095  66.364  1.00  0.00     0.000 HD 
BRANCH  23  25
HETATM   25  C   UNL     1      -8.324  11.185  67.977  1.00  0.00    -0.134 C  
HETATM   26  O   UNL     1      -8.267   9.972  67.857  1.00  0.00    -0.112 OA 
BRANCH  25  27
HETATM   27  N   UNL     1      -9.271  11.820  68.731  1.00  0.00    -0.389 N  
HETATM   28  H   UNL     1      -9.024  12.179  69.653  1.00  0.00     0.000 HD 
BRANCH  27  29
HETATM   29  C   UNL     1     -10.632  11.989  68.230  1.00  0.00    -0.212 C  
HETATM   30  C   UNL     1     -11.564  10.894  68.761  1.00  0.00    -0.378 C  
HETATM   31  C   UNL     1     -11.949  11.091  70.226  1.00  0.00    -0.452 C  
HETATM   32  C   UNL     1     -12.513  12.485  70.479  1.00  0.00    -0.266 C  
HETATM   33  C   UNL     1     -11.556  13.573  70.005  1.00  0.00    -0.234 C  
HETATM   34  C   UNL     1     -11.180  13.390  68.535  1.00  0.00    -0.316 C  
ENDBRANCH  27  29
ENDBRANCH  25  27
ENDBRANCH  23  25
ENDBRANCH  20  23
ENDBRANCH  17  20
ENDBRANCH  13  14
ENDBRANCH  12  13
ENDBRANCH  10  12
ENDBRANCH   5   8
TORSDOF 9
ENDMDL
MODEL       77
REMARK 921   NORMALIZED FREE ENERGY PREDICTED BY IDOCK:   -5.90 KCAL/MOL
REMARK 922        TOTAL FREE ENERGY PREDICTED BY IDOCK:  -10.51 KCAL/MOL
REMARK 923 INTER-LIGAND FREE ENERGY PREDICTED BY IDOCK:   -9.29 KCAL/MOL
REMARK 924 INTRA-LIGAND FREE ENERGY PREDICTED BY IDOCK:   -1.21 KCAL/MOL
REMARK 927      BINDING AFFINITY PREDICTED BY RF-SCORE:    0.00 PKD
ROOT
HETATM    1  C   UNL     1     -12.733  15.611  74.177  1.00  0.00    -0.663 C  
HETATM    2  C   UNL     1     -12.498  15.459  72.707  1.00  0.00    -0.401 A  
HETATM    3  N   UNL     1     -11.214  15.332  72.286  1.00  0.00    -0.318 NA 
HETATM    4  C   UNL     1     -11.040  15.231  70.944  1.00  0.00    -0.301 A  
HETATM    5  C   UNL     1     -12.102  15.251  70.053  1.00  0.00    -0.352 A  
HETATM    6  C   UNL     1     -13.561  15.463  71.804  1.00  0.00    -0.498 A  
HETATM    7  N   UNL     1     -13.400  15.360  70.460  1.00  0.00    -0.301 NA 
ENDROOT
BRANCH   5   8
HETATM    8  C   UNL     1     -11.829  15.190  68.591  1.00  0.00    -0.302 C  
HETATM    9  O   UNL     1     -11.196  16.079  68.032  1.00  0.00    -0.344 OA 
HETATM   10  N   UNL     1     -12.350  14.093  67.930  1.00  0.00    -0.533 N  
HETATM   11  H   UNL     1     -12.795  13.352  68.470  1.00  0.00     0.000 HD 
BRANCH  10  12
HETATM   12  C   UNL     1     -12.279  13.973  66.487  1.00  0.00    -0.451 C  
BRANCH  12  13
HETATM   13  C   UNL     1     -11.728  12.615  66.024  1.00  0.00    -0.470 C  
BRANCH  13  14
HETATM   14  C   UNL     1     -10.866  11.897  67.048  1.00  0.00    -0.303 A  
HETATM   15  C   UNL     1      -9.502  12.188  67.195  1.00  0.00    -0.190 A  
HETATM   16  C   UNL     1      -8.710  11.489  68.108  1.00  0.00    -0.157 A  
HETATM   17  C   UNL     1      -9.286  10.528  68.936  1.00  0.00    -0.187 A  
HETATM   18  C   UNL     1     -10.654  10.255  68.842  1.00  0.00    -0.242 A  
HETATM   19  C   UNL     1     -11.438  10.942  67.908  1.00  0.00    -0.344 A  
BRANCH  17  20
HETATM   20  S   UNL     1      -8.240   9.556  69.995  1.00  0.00    -0.184 S  
HETATM   21  O   UNL     1      -7.169  10.391  70.494  1.00  0.00    -0.276 OA 
HETATM   22  O   UNL     1      -7.936   8.326  69.289  1.00  0.00    -0.110 OA 
BRANCH  20  23
HETATM   23  N   UNL     1      -9.227   9.091  71.252  1.00  0.00    -0.252 N  
HETATM   24  H   UNL     1     -10.171   9.476  71.281  1.00  0.00     0.000 HD 
BRANCH  23  25
HETATM   25  C   UNL     1      -8.857   8.219  72.260  1.00  0.00    -0.209 C  
HETATM   26  O   UNL     1      -8.577   8.582  73.390  1.00  0.00    -0.350 OA 
BRANCH  25  27
HETATM   27  N   UNL     1      -8.856   6.909  71.871  1.00  0.00    -0.127 N  
HETATM   28  H   UNL     1      -7.974   6.452  71.640  1.00  0.00     0.000 HD 
BRANCH  27  29
HETATM   29  C   UNL     1     -10.104   6.156  71.784  1.00  0.00    -0.185 C  
HETATM   30  C   UNL     1     -10.508   5.910  70.326  1.00  0.00    -0.327 C  
HETATM   31  C   UNL     1      -9.669   4.832  69.644  1.00  0.00    -0.272 C  
HETATM   32  C   UNL     1      -9.648   3.538  70.451  1.00  0.00    -0.241 C  
HETATM   33  C   UNL     1      -9.187   3.777  71.885  1.00  0.00    -0.180 C  
HETATM   34  C   UNL     1     -10.034   4.844  72.577  1.00  0.00    -0.221 C  
ENDBRANCH  27  29
ENDBRANCH  25  27
ENDBRANCH  23  25
ENDBRANCH  20  23
ENDBRANCH  17  20
ENDBRANCH  13  14
ENDBRANCH  12  13
ENDBRANCH  10  12
ENDBRANCH   5   8
TORSDOF 9
ENDMDL
MODEL       78
REMARK 921   NORMALIZED FREE ENERGY PREDICTED BY IDOCK:   -5.90 KCAL/MOL
REMARK 922        TOTAL FREE ENERGY PREDICTED BY IDOCK:  -10.50 KCAL/MOL
REMARK 923 INTER-LIGAND FREE ENERGY PREDICTED BY IDOCK:   -9.83 KCAL/MOL
REMARK 924 INTRA-LIGAND FREE ENERGY PREDICTED BY IDOCK:   -0.67 KCAL/MOL
REMARK 927      BINDING AFFINITY PREDICTED BY RF-SCORE:    0.00 PKD
ROOT
HETATM    1  C   UNL     1      -8.399   6.512  69.496  1.00  0.00    -0.130 C  
HETATM    2  C   UNL     1      -9.412   7.534  69.904  1.00  0.00    -0.160 A  
HETATM    3  N   UNL     1      -9.065   8.841  69.796  1.00  0.00    -0.148 NA 
HETATM    4  C   UNL     1      -9.997   9.737  70.209  1.00  0.00    -0.253 A  
HETATM    5  C   UNL     1     -11.232   9.348  70.705  1.00  0.00    -0.302 A  
HETATM    6  C   UNL     1     -10.663   7.153  70.391  1.00  0.00    -0.235 A  
HETATM    7  N   UNL     1     -11.605   8.039  70.804  1.00  0.00    -0.272 NA 
ENDROOT
BRANCH   5   8
HETATM    8  C   UNL     1     -12.184  10.386  71.189  1.00  0.00    -0.394 C  
HETATM    9  O   UNL     1     -13.100  10.093  71.949  1.00  0.00    -0.426 OA 
HETATM   10  N   UNL     1     -11.970  11.664  70.708  1.00  0.00    -0.433 N  
HETATM   11  H   UNL     1     -11.141  11.852  70.145  1.00  0.00     0.000 HD 
BRANCH  10  12
HETATM   12  C   UNL     1     -12.897  12.743  70.987  1.00  0.00    -0.176 C  
BRANCH  12  13
HETATM   13  C   UNL     1     -12.197  14.096  71.201  1.00  0.00    -0.435 C  
BRANCH  13  14
HETATM   14  C   UNL     1     -11.752  14.788  69.926  1.00  0.00    -0.352 A  
HETATM   15  C   UNL     1     -11.988  14.226  68.662  1.00  0.00    -0.348 A  
HETATM   16  C   UNL     1     -11.532  14.851  67.499  1.00  0.00    -0.361 A  
HETATM   17  C   UNL     1     -10.885  16.082  67.578  1.00  0.00    -0.292 A  
HETATM   18  C   UNL     1     -10.681  16.686  68.822  1.00  0.00    -0.342 A  
HETATM   19  C   UNL     1     -11.119  16.043  69.986  1.00  0.00    -0.362 A  
BRANCH  17  20
HETATM   20  S   UNL     1     -10.195  16.794  66.102  1.00  0.00    -0.336 S  
HETATM   21  O   UNL     1     -10.435  18.220  66.109  1.00  0.00    -0.420 OA 
HETATM   22  O   UNL     1     -10.644  15.985  64.984  1.00  0.00    -0.551 OA 
BRANCH  20  23
HETATM   23  N   UNL     1      -8.562  16.494  66.213  1.00  0.00    -0.315 N  
HETATM   24  H   UNL     1      -8.257  15.521  66.215  1.00  0.00     0.000 HD 
BRANCH  23  25
HETATM   25  C   UNL     1      -7.588  17.473  66.303  1.00  0.00    -0.308 C  
HETATM   26  O   UNL     1      -7.011  17.935  65.332  1.00  0.00    -0.434 OA 
BRANCH  25  27
HETATM   27  N   UNL     1      -7.352  17.888  67.584  1.00  0.00    -0.203 N  
HETATM   28  H   UNL     1      -6.774  17.317  68.200  1.00  0.00     0.000 HD 
BRANCH  27  29
HETATM   29  C   UNL     1      -7.918  19.139  68.079  1.00  0.00    -0.296 C  
HETATM   30  C   UNL     1      -7.357  19.500  69.459  1.00  0.00    -0.161 C  
HETATM   31  C   UNL     1      -5.925  20.028  69.405  1.00  0.00    -0.336 C  
HETATM   32  C   UNL     1      -5.786  21.183  68.419  1.00  0.00    -0.355 C  
HETATM   33  C   UNL     1      -6.289  20.800  67.031  1.00  0.00    -0.335 C  
HETATM   34  C   UNL     1      -7.727  20.286  67.076  1.00  0.00    -0.360 C  
ENDBRANCH  27  29
ENDBRANCH  25  27
ENDBRANCH  23  25
ENDBRANCH  20  23
ENDBRANCH  17  20
ENDBRANCH  13  14
ENDBRANCH  12  13
ENDBRANCH  10  12
ENDBRANCH   5   8
TORSDOF 9
ENDMDL
MODEL       79
REMARK 921   NORMALIZED FREE ENERGY PREDICTED BY IDOCK:   -5.90 KCAL/MOL
REMARK 922        TOTAL FREE ENERGY PREDICTED BY IDOCK:  -10.50 KCAL/MOL
REMARK 923 INTER-LIGAND FREE ENERGY PREDICTED BY IDOCK:   -9.11 KCAL/MOL
REMARK 924 INTRA-LIGAND FREE ENERGY PREDICTED BY IDOCK:   -1.39 KCAL/MOL
REMARK 927      BINDING AFFINITY PREDICTED BY RF-SCORE:    0.00 PKD
ROOT
HETATM    1  C   UNL     1     -10.021   1.819  73.610  1.00  0.00    -0.128 C  
HETATM    2  C   UNL     1     -10.314   3.177  73.056  1.00  0.00    -0.162 A  
HETATM    3  N   UNL     1      -9.791   3.487  71.844  1.00  0.00    -0.166 NA 
HETATM    4  C   UNL     1     -10.051   4.740  71.391  1.00  0.00    -0.189 A  
HETATM    5  C   UNL     1     -10.808   5.649  72.114  1.00  0.00    -0.245 A  
HETATM    6  C   UNL     1     -11.087   4.093  73.770  1.00  0.00    -0.223 A  
HETATM    7  N   UNL     1     -11.356   5.348  73.326  1.00  0.00    -0.265 NA 
ENDROOT
BRANCH   5   8
HETATM    8  C   UNL     1     -11.006   7.024  71.577  1.00  0.00    -0.234 C  
HETATM    9  O   UNL     1     -12.109   7.395  71.192  1.00  0.00    -0.311 OA 
HETATM   10  N   UNL     1      -9.874   7.816  71.529  1.00  0.00    -0.166 N  
HETATM   11  H   UNL     1      -9.008   7.472  71.941  1.00  0.00     0.000 HD 
BRANCH  10  12
HETATM   12  C   UNL     1      -9.892   9.125  70.906  1.00  0.00    -0.291 C  
BRANCH  12  13
HETATM   13  C   UNL     1      -9.499   9.088  69.419  1.00  0.00    -0.159 C  
BRANCH  13  14
HETATM   14  C   UNL     1      -9.883  10.328  68.632  1.00  0.00    -0.180 A  
HETATM   15  C   UNL     1      -8.917  11.231  68.163  1.00  0.00    -0.166 A  
HETATM   16  C   UNL     1      -9.286  12.391  67.480  1.00  0.00    -0.183 A  
HETATM   17  C   UNL     1     -10.628  12.637  67.200  1.00  0.00    -0.236 A  
HETATM   18  C   UNL     1     -11.606  11.728  67.614  1.00  0.00    -0.364 A  
HETATM   19  C   UNL     1     -11.231  10.578  68.319  1.00  0.00    -0.354 A  
BRANCH  17  20
HETATM   20  S   UNL     1     -11.088  14.182  66.450  1.00  0.00    -0.327 S  
HETATM   21  O   UNL     1     -12.529  14.304  66.466  1.00  0.00    -0.428 OA 
HETATM   22  O   UNL     1     -10.361  14.285  65.199  1.00  0.00    -0.371 OA 
BRANCH  20  23
HETATM   23  N   UNL     1     -10.411  15.345  67.430  1.00  0.00    -0.272 N  
HETATM   24  H   UNL     1      -9.395  15.435  67.427  1.00  0.00     0.000 HD 
BRANCH  23  25
HETATM   25  C   UNL     1     -11.130  16.197  68.249  1.00  0.00    -0.348 C  
HETATM   26  O   UNL     1     -10.928  17.399  68.308  1.00  0.00    -0.317 OA 
BRANCH  25  27
HETATM   27  N   UNL     1     -12.103  15.564  68.970  1.00  0.00    -0.583 N  
HETATM   28  H   UNL     1     -13.085  15.742  68.758  1.00  0.00     0.000 HD 
BRANCH  27  29
HETATM   29  C   UNL     1     -11.753  14.637  70.042  1.00  0.00    -0.294 C  
HETATM   30  C   UNL     1     -11.037  15.354  71.192  1.00  0.00    -0.362 C  
HETATM   31  C   UNL     1     -11.978  16.189  72.057  1.00  0.00    -0.607 C  
HETATM   32  C   UNL     1     -13.164  15.370  72.554  1.00  0.00    -0.543 C  
HETATM   33  C   UNL     1     -13.911  14.706  71.402  1.00  0.00    -0.473 C  
HETATM   34  C   UNL     1     -12.977  13.857  70.542  1.00  0.00    -0.160 C  
ENDBRANCH  27  29
ENDBRANCH  25  27
ENDBRANCH  23  25
ENDBRANCH  20  23
ENDBRANCH  17  20
ENDBRANCH  13  14
ENDBRANCH  12  13
ENDBRANCH  10  12
ENDBRANCH   5   8
TORSDOF 9
ENDMDL
MODEL       80
REMARK 921   NORMALIZED FREE ENERGY PREDICTED BY IDOCK:   -5.88 KCAL/MOL
REMARK 922        TOTAL FREE ENERGY PREDICTED BY IDOCK:  -10.48 KCAL/MOL
REMARK 923 INTER-LIGAND FREE ENERGY PREDICTED BY IDOCK:   -9.19 KCAL/MOL
REMARK 924 INTRA-LIGAND FREE ENERGY PREDICTED BY IDOCK:   -1.29 KCAL/MOL
REMARK 927      BINDING AFFINITY PREDICTED BY RF-SCORE:    0.00 PKD
ROOT
HETATM    1  C   UNL     1      -7.609  19.934  66.006  1.00  0.00    -0.338 C  
HETATM    2  C   UNL     1      -8.514  18.791  66.342  1.00  0.00    -0.284 A  
HETATM    3  N   UNL     1      -8.118  17.547  65.975  1.00  0.00    -0.528 NA 
HETATM    4  C   UNL     1      -8.982  16.541  66.266  1.00  0.00    -0.324 A  
HETATM    5  C   UNL     1     -10.193  16.764  66.904  1.00  0.00    -0.290 A  
HETATM    6  C   UNL     1      -9.728  19.003  66.997  1.00  0.00    -0.315 A  
HETATM    7  N   UNL     1     -10.599  18.006  67.296  1.00  0.00    -0.373 NA 
ENDROOT
BRANCH   5   8
HETATM    8  C   UNL     1     -11.113  15.618  67.142  1.00  0.00    -0.218 C  
HETATM    9  O   UNL     1     -11.581  15.410  68.256  1.00  0.00    -0.351 OA 
HETATM   10  N   UNL     1     -11.370  14.819  66.044  1.00  0.00    -0.343 N  
HETATM   11  H   UNL     1     -11.013  15.097  65.131  1.00  0.00     0.000 HD 
BRANCH  10  12
HETATM   12  C   UNL     1     -12.137  13.594  66.161  1.00  0.00    -0.436 C  
BRANCH  12  13
HETATM   13  C   UNL     1     -11.315  12.337  65.832  1.00  0.00    -0.406 C  
BRANCH  13  14
HETATM   14  C   UNL     1     -11.160  11.362  66.985  1.00  0.00    -0.364 A  
HETATM   15  C   UNL     1     -10.429  10.172  66.850  1.00  0.00    -0.286 A  
HETATM   16  C   UNL     1     -10.332   9.262  67.904  1.00  0.00    -0.279 A  
HETATM   17  C   UNL     1     -10.915   9.556  69.134  1.00  0.00    -0.125 A  
HETATM   18  C   UNL     1     -11.607  10.758  69.309  1.00  0.00    -0.376 A  
HETATM   19  C   UNL     1     -11.721  11.656  68.241  1.00  0.00    -0.374 A  
BRANCH  17  20
HETATM   20  S   UNL     1     -10.895   8.328  70.419  1.00  0.00    -0.234 S  
HETATM   21  O   UNL     1     -10.184   7.161  69.945  1.00  0.00    -0.198 OA 
HETATM   22  O   UNL     1     -12.252   8.203  70.915  1.00  0.00    -0.233 OA 
BRANCH  20  23
HETATM   23  N   UNL     1     -10.051   9.035  71.667  1.00  0.00    -0.338 N  
HETATM   24  H   UNL     1      -9.962  10.052  71.662  1.00  0.00     0.000 HD 
BRANCH  23  25
HETATM   25  C   UNL     1      -9.461   8.343  72.708  1.00  0.00    -0.242 C  
HETATM   26  O   UNL     1      -8.435   8.708  73.260  1.00  0.00    -0.395 OA 
BRANCH  25  27
HETATM   27  N   UNL     1     -10.151   7.221  73.074  1.00  0.00    -0.221 N  
HETATM   28  H   UNL     1     -11.156   7.173  72.914  1.00  0.00     0.000 HD 
BRANCH  27  29
HETATM   29  C   UNL     1      -9.463   6.091  73.692  1.00  0.00    -0.141 C  
HETATM   30  C   UNL     1     -10.444   5.173  74.429  1.00  0.00    -0.294 C  
HETATM   31  C   UNL     1     -11.279   4.307  73.488  1.00  0.00    -0.361 C  
HETATM   32  C   UNL     1     -10.404   3.530  72.511  1.00  0.00    -0.196 C  
HETATM   33  C   UNL     1      -9.470   4.453  71.735  1.00  0.00    -0.206 C  
HETATM   34  C   UNL     1      -8.621   5.311  72.672  1.00  0.00    -0.117 C  
ENDBRANCH  27  29
ENDBRANCH  25  27
ENDBRANCH  23  25
ENDBRANCH  20  23
ENDBRANCH  17  20
ENDBRANCH  13  14
ENDBRANCH  12  13
ENDBRANCH  10  12
ENDBRANCH   5   8
TORSDOF 9
ENDMDL
MODEL       81
REMARK 921   NORMALIZED FREE ENERGY PREDICTED BY IDOCK:   -5.88 KCAL/MOL
REMARK 922        TOTAL FREE ENERGY PREDICTED BY IDOCK:  -10.46 KCAL/MOL
REMARK 923 INTER-LIGAND FREE ENERGY PREDICTED BY IDOCK:   -7.95 KCAL/MOL
REMARK 924 INTRA-LIGAND FREE ENERGY PREDICTED BY IDOCK:   -2.51 KCAL/MOL
REMARK 927      BINDING AFFINITY PREDICTED BY RF-SCORE:    0.00 PKD
ROOT
HETATM    1  C   UNL     1     -10.538  13.603  64.910  1.00  0.00    -0.421 C  
HETATM    2  C   UNL     1     -11.024  13.354  66.302  1.00  0.00    -0.288 A  
HETATM    3  N   UNL     1     -10.870  14.350  67.209  1.00  0.00    -0.286 NA 
HETATM    4  C   UNL     1     -11.291  14.074  68.469  1.00  0.00    -0.277 A  
HETATM    5  C   UNL     1     -11.852  12.853  68.814  1.00  0.00    -0.315 A  
HETATM    6  C   UNL     1     -11.603  12.134  66.655  1.00  0.00    -0.350 A  
HETATM    7  N   UNL     1     -12.031  11.846  67.911  1.00  0.00    -0.577 NA 
ENDROOT
BRANCH   5   8
HETATM    8  C   UNL     1     -12.242  12.603  70.229  1.00  0.00    -0.271 C  
HETATM    9  O   UNL     1     -12.175  13.496  71.066  1.00  0.00    -0.353 OA 
HETATM   10  N   UNL     1     -12.652  11.315  70.517  1.00  0.00    -0.274 N  
HETATM   11  H   UNL     1     -12.762  10.645  69.757  1.00  0.00     0.000 HD 
BRANCH  10  12
HETATM   12  C   UNL     1     -12.931  10.896  71.877  1.00  0.00    -0.396 C  
BRANCH  12  13
HETATM   13  C   UNL     1     -13.495   9.468  71.961  1.00  0.00    -0.522 C  
BRANCH  13  14
HETATM   14  C   UNL     1     -12.453   8.368  71.866  1.00  0.00    -0.390 A  
HETATM   15  C   UNL     1     -12.487   7.409  70.842  1.00  0.00    -0.208 A  
HETATM   16  C   UNL     1     -11.549   6.376  70.792  1.00  0.00    -0.402 A  
HETATM   17  C   UNL     1     -10.522   6.321  71.732  1.00  0.00    -0.211 A  
HETATM   18  C   UNL     1     -10.438   7.293  72.733  1.00  0.00    -0.302 A  
HETATM   19  C   UNL     1     -11.396   8.313  72.792  1.00  0.00    -0.332 A  
BRANCH  17  20
HETATM   20  S   UNL     1      -9.421   4.925  71.731  1.00  0.00    -0.156 S  
HETATM   21  O   UNL     1      -9.869   3.971  70.741  1.00  0.00    -0.194 OA 
HETATM   22  O   UNL     1      -9.245   4.516  73.111  1.00  0.00    -0.118 OA 
BRANCH  20  23
HETATM   23  N   UNL     1      -7.945   5.553  71.284  1.00  0.00    -0.109 N  
HETATM   24  H   UNL     1      -7.353   5.942  72.018  1.00  0.00     0.000 HD 
BRANCH  23  25
HETATM   25  C   UNL     1      -7.466   5.584  69.987  1.00  0.00    -0.070 C  
HETATM   26  O   UNL     1      -6.412   5.071  69.650  1.00  0.00    -0.032 OA 
BRANCH  25  27
HETATM   27  N   UNL     1      -8.298   6.229  69.115  1.00  0.00    -0.119 N  
HETATM   28  H   UNL     1      -9.219   5.839  68.916  1.00  0.00     0.000 HD 
BRANCH  27  29
HETATM   29  C   UNL     1      -7.884   7.469  68.467  1.00  0.00    -0.122 C  
HETATM   30  C   UNL     1      -8.973   8.002  67.530  1.00  0.00    -0.143 C  
HETATM   31  C   UNL     1     -10.145   8.640  68.273  1.00  0.00    -0.225 C  
HETATM   32  C   UNL     1      -9.677   9.705  69.258  1.00  0.00    -0.191 C  
HETATM   33  C   UNL     1      -8.637   9.155  70.228  1.00  0.00    -0.218 C  
HETATM   34  C   UNL     1      -7.454   8.530  69.490  1.00  0.00    -0.080 C  
ENDBRANCH  27  29
ENDBRANCH  25  27
ENDBRANCH  23  25
ENDBRANCH  20  23
ENDBRANCH  17  20
ENDBRANCH  13  14
ENDBRANCH  12  13
ENDBRANCH  10  12
ENDBRANCH   5   8
TORSDOF 9
ENDMDL
MODEL       82
REMARK 921   NORMALIZED FREE ENERGY PREDICTED BY IDOCK:   -5.88 KCAL/MOL
REMARK 922        TOTAL FREE ENERGY PREDICTED BY IDOCK:  -10.46 KCAL/MOL
REMARK 923 INTER-LIGAND FREE ENERGY PREDICTED BY IDOCK:   -8.99 KCAL/MOL
REMARK 924 INTRA-LIGAND FREE ENERGY PREDICTED BY IDOCK:   -1.47 KCAL/MOL
REMARK 927      BINDING AFFINITY PREDICTED BY RF-SCORE:    0.00 PKD
ROOT
HETATM    1  C   UNL     1     -10.077  18.750  66.392  1.00  0.00    -0.443 C  
HETATM    2  C   UNL     1     -10.521  17.397  65.933  1.00  0.00    -0.252 A  
HETATM    3  N   UNL     1     -11.072  17.302  64.697  1.00  0.00    -0.959 NA 
HETATM    4  C   UNL     1     -11.494  16.066  64.331  1.00  0.00    -0.242 A  
HETATM    5  C   UNL     1     -11.367  14.962  65.161  1.00  0.00    -0.379 A  
HETATM    6  C   UNL     1     -10.384  16.278  66.755  1.00  0.00    -0.296 A  
HETATM    7  N   UNL     1     -10.799  15.035  66.399  1.00  0.00    -0.322 NA 
ENDROOT
BRANCH   5   8
HETATM    8  C   UNL     1     -11.901  13.646  64.711  1.00  0.00    -0.387 C  
HETATM    9  O   UNL     1     -12.940  13.197  65.182  1.00  0.00    -0.695 OA 
HETATM   10  N   UNL     1     -11.141  12.984  63.766  1.00  0.00    -0.550 N  
HETATM   11  H   UNL     1     -10.332  13.452  63.359  1.00  0.00     0.000 HD 
BRANCH  10  12
HETATM   12  C   UNL     1     -11.468  11.637  63.340  1.00  0.00    -0.260 C  
BRANCH  12  13
HETATM   13  C   UNL     1     -10.230  10.742  63.173  1.00  0.00    -0.179 C  
BRANCH  13  14
HETATM   14  C   UNL     1      -9.497  10.425  64.464  1.00  0.00    -0.342 A  
HETATM   15  C   UNL     1     -10.158  10.417  65.702  1.00  0.00    -0.337 A  
HETATM   16  C   UNL     1      -9.464  10.170  66.888  1.00  0.00    -0.203 A  
HETATM   17  C   UNL     1      -8.105   9.864  66.848  1.00  0.00    -0.113 A  
HETATM   18  C   UNL     1      -7.435   9.818  65.622  1.00  0.00    -0.110 A  
HETATM   19  C   UNL     1      -8.131  10.091  64.439  1.00  0.00    -0.156 A  
BRANCH  17  20
HETATM   20  S   UNL     1      -7.213   9.685  68.375  1.00  0.00    -0.075 S  
HETATM   21  O   UNL     1      -7.930  10.376  69.424  1.00  0.00    -0.144 OA 
HETATM   22  O   UNL     1      -5.826  10.011  68.103  1.00  0.00    -0.042 OA 
BRANCH  20  23
HETATM   23  N   UNL     1      -7.213   8.048  68.675  1.00  0.00    -0.079 N  
HETATM   24  H   UNL     1      -6.309   7.583  68.767  1.00  0.00     0.000 HD 
BRANCH  23  25
HETATM   25  C   UNL     1      -8.351   7.273  68.806  1.00  0.00    -0.129 C  
HETATM   26  O   UNL     1      -8.575   6.290  68.119  1.00  0.00    -0.117 OA 
BRANCH  25  27
HETATM   27  N   UNL     1      -9.190   7.704  69.795  1.00  0.00    -0.147 N  
HETATM   28  H   UNL     1      -8.819   7.882  70.728  1.00  0.00     0.000 HD 
BRANCH  27  29
HETATM   29  C   UNL     1     -10.610   7.912  69.530  1.00  0.00    -0.219 C  
HETATM   30  C   UNL     1     -11.465   6.807  70.160  1.00  0.00    -0.404 C  
HETATM   31  C   UNL     1     -11.603   6.945  71.675  1.00  0.00    -0.325 C  
HETATM   32  C   UNL     1     -12.091   8.334  72.073  1.00  0.00    -0.402 C  
HETATM   33  C   UNL     1     -11.203   9.430  71.494  1.00  0.00    -0.457 C  
HETATM   34  C   UNL     1     -11.074   9.306  69.977  1.00  0.00    -0.228 C  
ENDBRANCH  27  29
ENDBRANCH  25  27
ENDBRANCH  23  25
ENDBRANCH  20  23
ENDBRANCH  17  20
ENDBRANCH  13  14
ENDBRANCH  12  13
ENDBRANCH  10  12
ENDBRANCH   5   8
TORSDOF 9
ENDMDL
MODEL       83
REMARK 921   NORMALIZED FREE ENERGY PREDICTED BY IDOCK:   -5.87 KCAL/MOL
REMARK 922        TOTAL FREE ENERGY PREDICTED BY IDOCK:  -10.45 KCAL/MOL
REMARK 923 INTER-LIGAND FREE ENERGY PREDICTED BY IDOCK:   -9.15 KCAL/MOL
REMARK 924 INTRA-LIGAND FREE ENERGY PREDICTED BY IDOCK:   -1.29 KCAL/MOL
REMARK 927      BINDING AFFINITY PREDICTED BY RF-SCORE:    0.00 PKD
ROOT
HETATM    1  C   UNL     1      -9.637   1.751  71.410  1.00  0.00    -0.206 C  
HETATM    2  C   UNL     1      -9.584   2.682  70.240  1.00  0.00    -0.044 A  
HETATM    3  N   UNL     1      -9.322   2.146  69.021  1.00  0.00    -0.144 NA 
HETATM    4  C   UNL     1      -9.249   3.027  67.992  1.00  0.00    -0.198 A  
HETATM    5  C   UNL     1      -9.434   4.390  68.165  1.00  0.00    -0.152 A  
HETATM    6  C   UNL     1      -9.784   4.053  70.402  1.00  0.00    -0.193 A  
HETATM    7  N   UNL     1      -9.716   4.944  69.380  1.00  0.00    -0.173 NA 
ENDROOT
BRANCH   5   8
HETATM    8  C   UNL     1      -9.286   5.301  66.997  1.00  0.00    -0.116 C  
HETATM    9  O   UNL     1      -9.320   4.864  65.852  1.00  0.00    -0.147 OA 
HETATM   10  N   UNL     1      -9.089   6.635  67.300  1.00  0.00    -0.117 N  
HETATM   11  H   UNL     1      -9.153   6.940  68.270  1.00  0.00     0.000 HD 
BRANCH  10  12
HETATM   12  C   UNL     1      -8.795   7.610  66.268  1.00  0.00    -0.156 C  
BRANCH  12  13
HETATM   13  C   UNL     1      -8.526   9.016  66.830  1.00  0.00    -0.120 C  
BRANCH  13  14
HETATM   14  C   UNL     1      -9.426  10.104  66.273  1.00  0.00    -0.229 A  
HETATM   15  C   UNL     1      -9.370  10.488  64.925  1.00  0.00    -0.278 A  
HETATM   16  C   UNL     1     -10.171  11.521  64.436  1.00  0.00    -0.350 A  
HETATM   17  C   UNL     1     -11.089  12.148  65.276  1.00  0.00    -0.321 A  
HETATM   18  C   UNL     1     -11.199  11.750  66.612  1.00  0.00    -0.383 A  
HETATM   19  C   UNL     1     -10.376  10.729  67.102  1.00  0.00    -0.269 A  
BRANCH  17  20
HETATM   20  S   UNL     1     -12.002  13.548  64.671  1.00  0.00    -0.422 S  
HETATM   21  O   UNL     1     -12.870  14.035  65.721  1.00  0.00    -0.516 OA 
HETATM   22  O   UNL     1     -12.554  13.176  63.382  1.00  0.00    -0.722 OA 
BRANCH  20  23
HETATM   23  N   UNL     1     -10.842  14.689  64.322  1.00  0.00    -0.521 N  
HETATM   24  H   UNL     1     -10.062  14.406  63.728  1.00  0.00     0.000 HD 
BRANCH  23  25
HETATM   25  C   UNL     1     -10.861  15.994  64.780  1.00  0.00    -0.294 C  
HETATM   26  O   UNL     1     -11.319  16.924  64.137  1.00  0.00    -1.208 OA 
BRANCH  25  27
HETATM   27  N   UNL     1     -10.335  16.137  66.034  1.00  0.00    -0.341 N  
HETATM   28  H   UNL     1     -10.920  16.498  66.787  1.00  0.00     0.000 HD 
BRANCH  27  29
HETATM   29  C   UNL     1      -8.947  15.777  66.306  1.00  0.00    -0.345 C  
HETATM   30  C   UNL     1      -8.232  16.871  67.108  1.00  0.00    -0.215 C  
HETATM   31  C   UNL     1      -8.640  16.899  68.579  1.00  0.00    -0.251 C  
HETATM   32  C   UNL     1      -8.491  15.530  69.233  1.00  0.00    -0.265 C  
HETATM   33  C   UNL     1      -9.253  14.455  68.466  1.00  0.00    -0.198 C  
HETATM   34  C   UNL     1      -8.838  14.411  66.997  1.00  0.00    -0.256 C  
ENDBRANCH  27  29
ENDBRANCH  25  27
ENDBRANCH  23  25
ENDBRANCH  20  23
ENDBRANCH  17  20
ENDBRANCH  13  14
ENDBRANCH  12  13
ENDBRANCH  10  12
ENDBRANCH   5   8
TORSDOF 9
ENDMDL
MODEL       84
REMARK 921   NORMALIZED FREE ENERGY PREDICTED BY IDOCK:   -5.85 KCAL/MOL
REMARK 922        TOTAL FREE ENERGY PREDICTED BY IDOCK:  -10.43 KCAL/MOL
REMARK 923 INTER-LIGAND FREE ENERGY PREDICTED BY IDOCK:   -9.21 KCAL/MOL
REMARK 924 INTRA-LIGAND FREE ENERGY PREDICTED BY IDOCK:   -1.22 KCAL/MOL
REMARK 927      BINDING AFFINITY PREDICTED BY RF-SCORE:    0.00 PKD
ROOT
HETATM    1  C   UNL     1     -14.019   8.765  72.465  1.00  0.00    -0.430 C  
HETATM    2  C   UNL     1     -12.830   8.369  71.649  1.00  0.00    -0.334 A  
HETATM    3  N   UNL     1     -11.864   9.300  71.452  1.00  0.00    -0.331 NA 
HETATM    4  C   UNL     1     -10.819   8.913  70.677  1.00  0.00    -0.239 A  
HETATM    5  C   UNL     1     -10.735   7.645  70.123  1.00  0.00    -0.240 A  
HETATM    6  C   UNL     1     -12.730   7.090  71.099  1.00  0.00    -0.309 A  
HETATM    7  N   UNL     1     -11.688   6.690  70.324  1.00  0.00    -0.397 NA 
ENDROOT
BRANCH   5   8
HETATM    8  C   UNL     1      -9.584   7.310  69.239  1.00  0.00    -0.156 C  
HETATM    9  O   UNL     1      -8.680   6.583  69.635  1.00  0.00    -0.136 OA 
HETATM   10  N   UNL     1      -9.606   7.887  67.984  1.00  0.00    -0.149 N  
HETATM   11  H   UNL     1     -10.428   8.415  67.692  1.00  0.00     0.000 HD 
BRANCH  10  12
HETATM   12  C   UNL     1      -8.487   7.759  67.071  1.00  0.00    -0.124 C  
BRANCH  12  13
HETATM   13  C   UNL     1      -8.715   8.484  65.734  1.00  0.00    -0.210 C  
BRANCH  13  14
HETATM   14  C   UNL     1      -9.073   9.954  65.864  1.00  0.00    -0.201 A  
HETATM   15  C   UNL     1     -10.111  10.527  65.115  1.00  0.00    -0.383 A  
HETATM   16  C   UNL     1     -10.400  11.890  65.210  1.00  0.00    -0.316 A  
HETATM   17  C   UNL     1      -9.693  12.691  66.104  1.00  0.00    -0.251 A  
HETATM   18  C   UNL     1      -8.686  12.133  66.897  1.00  0.00    -0.194 A  
HETATM   19  C   UNL     1      -8.386  10.771  66.780  1.00  0.00    -0.136 A  
BRANCH  17  20
HETATM   20  S   UNL     1      -9.983  14.445  66.112  1.00  0.00    -0.323 S  
HETATM   21  O   UNL     1     -10.653  14.818  64.885  1.00  0.00    -0.414 OA 
HETATM   22  O   UNL     1      -8.737  15.085  66.487  1.00  0.00    -0.269 OA 
BRANCH  20  23
HETATM   23  N   UNL     1     -10.996  14.699  67.408  1.00  0.00    -0.299 N  
HETATM   24  H   UNL     1     -11.459  13.886  67.815  1.00  0.00     0.000 HD 
BRANCH  23  25
HETATM   25  C   UNL     1     -11.255  15.935  67.973  1.00  0.00    -0.319 C  
HETATM   26  O   UNL     1     -11.958  16.087  68.958  1.00  0.00    -0.342 OA 
BRANCH  25  27
HETATM   27  N   UNL     1     -10.628  16.967  67.332  1.00  0.00    -0.320 N  
HETATM   28  H   UNL     1     -10.489  16.923  66.323  1.00  0.00     0.000 HD 
BRANCH  27  29
HETATM   29  C   UNL     1     -10.156  18.130  68.077  1.00  0.00    -0.367 C  
HETATM   30  C   UNL     1      -8.633  18.276  67.981  1.00  0.00    -0.280 C  
HETATM   31  C   UNL     1      -8.165  18.801  66.626  1.00  0.00    -0.298 C  
HETATM   32  C   UNL     1      -8.881  20.092  66.243  1.00  0.00    -0.360 C  
HETATM   33  C   UNL     1     -10.396  19.926  66.280  1.00  0.00    -0.608 C  
HETATM   34  C   UNL     1     -10.872  19.415  67.639  1.00  0.00    -0.470 C  
ENDBRANCH  27  29
ENDBRANCH  25  27
ENDBRANCH  23  25
ENDBRANCH  20  23
ENDBRANCH  17  20
ENDBRANCH  13  14
ENDBRANCH  12  13
ENDBRANCH  10  12
ENDBRANCH   5   8
TORSDOF 9
ENDMDL
MODEL       85
REMARK 921   NORMALIZED FREE ENERGY PREDICTED BY IDOCK:   -5.80 KCAL/MOL
REMARK 922        TOTAL FREE ENERGY PREDICTED BY IDOCK:  -10.35 KCAL/MOL
REMARK 923 INTER-LIGAND FREE ENERGY PREDICTED BY IDOCK:   -9.35 KCAL/MOL
REMARK 924 INTRA-LIGAND FREE ENERGY PREDICTED BY IDOCK:   -1.00 KCAL/MOL
REMARK 927      BINDING AFFINITY PREDICTED BY RF-SCORE:    0.00 PKD
ROOT
HETATM    1  C   UNL     1     -10.177  18.769  65.977  1.00  0.00    -0.413 C  
HETATM    2  C   UNL     1     -10.475  17.349  65.612  1.00  0.00    -0.165 A  
HETATM    3  N   UNL     1     -11.232  17.129  64.508  1.00  0.00    -1.012 NA 
HETATM    4  C   UNL     1     -11.510  15.830  64.231  1.00  0.00    -0.198 A  
HETATM    5  C   UNL     1     -11.048  14.787  65.019  1.00  0.00    -0.405 A  
HETATM    6  C   UNL     1     -10.003  16.292  66.391  1.00  0.00    -0.300 A  
HETATM    7  N   UNL     1     -10.272  14.988  66.122  1.00  0.00    -0.281 NA 
ENDROOT
BRANCH   5   8
HETATM    8  C   UNL     1     -11.438  13.390  64.682  1.00  0.00    -0.348 C  
HETATM    9  O   UNL     1     -12.618  13.054  64.666  1.00  0.00    -0.591 OA 
HETATM   10  N   UNL     1     -10.394  12.524  64.419  1.00  0.00    -0.362 N  
HETATM   11  H   UNL     1      -9.444  12.890  64.370  1.00  0.00     0.000 HD 
BRANCH  10  12
HETATM   12  C   UNL     1     -10.619  11.107  64.211  1.00  0.00    -0.357 C  
BRANCH  12  13
HETATM   13  C   UNL     1      -9.656  10.220  65.018  1.00  0.00    -0.346 C  
BRANCH  13  14
HETATM   14  C   UNL     1     -10.072   9.982  66.458  1.00  0.00    -0.296 A  
HETATM   15  C   UNL     1     -10.333   8.692  66.945  1.00  0.00    -0.355 A  
HETATM   16  C   UNL     1     -10.759   8.490  68.259  1.00  0.00    -0.092 A  
HETATM   17  C   UNL     1     -10.871   9.572  69.129  1.00  0.00    -0.173 A  
HETATM   18  C   UNL     1     -10.569  10.862  68.681  1.00  0.00    -0.224 A  
HETATM   19  C   UNL     1     -10.165  11.061  67.356  1.00  0.00    -0.229 A  
BRANCH  17  20
HETATM   20  S   UNL     1     -11.543   9.312  70.754  1.00  0.00    -0.276 S  
HETATM   21  O   UNL     1     -12.390   8.140  70.732  1.00  0.00    -0.123 OA 
HETATM   22  O   UNL     1     -12.068  10.584  71.211  1.00  0.00    -0.354 OA 
BRANCH  20  23
HETATM   23  N   UNL     1     -10.215   9.031  71.719  1.00  0.00    -0.344 N  
HETATM   24  H   UNL     1      -9.543   9.790  71.834  1.00  0.00     0.000 HD 
BRANCH  23  25
HETATM   25  C   UNL     1      -9.958   7.841  72.374  1.00  0.00    -0.214 C  
HETATM   26  O   UNL     1     -10.061   7.706  73.583  1.00  0.00    -0.321 OA 
BRANCH  25  27
HETATM   27  N   UNL     1      -9.599   6.824  71.534  1.00  0.00    -0.164 N  
HETATM   28  H   UNL     1      -8.697   6.857  71.060  1.00  0.00     0.000 HD 
BRANCH  27  29
HETATM   29  C   UNL     1     -10.493   5.692  71.309  1.00  0.00    -0.236 C  
HETATM   30  C   UNL     1     -10.760   5.479  69.815  1.00  0.00    -0.355 C  
HETATM   31  C   UNL     1      -9.580   4.849  69.078  1.00  0.00    -0.224 C  
HETATM   32  C   UNL     1      -9.109   3.567  69.757  1.00  0.00    -0.196 C  
HETATM   33  C   UNL     1      -8.787   3.797  71.229  1.00  0.00    -0.143 C  
HETATM   34  C   UNL     1      -9.970   4.413  71.975  1.00  0.00    -0.252 C  
ENDBRANCH  27  29
ENDBRANCH  25  27
ENDBRANCH  23  25
ENDBRANCH  20  23
ENDBRANCH  17  20
ENDBRANCH  13  14
ENDBRANCH  12  13
ENDBRANCH  10  12
ENDBRANCH   5   8
TORSDOF 9
ENDMDL
MODEL       86
REMARK 921   NORMALIZED FREE ENERGY PREDICTED BY IDOCK:   -5.75 KCAL/MOL
REMARK 922        TOTAL FREE ENERGY PREDICTED BY IDOCK:  -10.28 KCAL/MOL
REMARK 923 INTER-LIGAND FREE ENERGY PREDICTED BY IDOCK:   -9.70 KCAL/MOL
REMARK 924 INTRA-LIGAND FREE ENERGY PREDICTED BY IDOCK:   -0.58 KCAL/MOL
REMARK 927      BINDING AFFINITY PREDICTED BY RF-SCORE:    0.00 PKD
ROOT
HETATM    1  C   UNL     1      -9.843   6.391  74.562  1.00  0.00    -0.356 C  
HETATM    2  C   UNL     1     -10.091   6.519  73.092  1.00  0.00    -0.193 A  
HETATM    3  N   UNL     1     -10.773   5.519  72.480  1.00  0.00    -0.228 NA 
HETATM    4  C   UNL     1     -10.947   5.655  71.142  1.00  0.00    -0.177 A  
HETATM    5  C   UNL     1     -10.465   6.748  70.437  1.00  0.00    -0.206 A  
HETATM    6  C   UNL     1      -9.623   7.622  72.378  1.00  0.00    -0.168 A  
HETATM    7  N   UNL     1      -9.793   7.771  71.039  1.00  0.00    -0.174 NA 
ENDROOT
BRANCH   5   8
HETATM    8  C   UNL     1     -10.648   6.802  68.960  1.00  0.00    -0.230 C  
HETATM    9  O   UNL     1     -11.383   6.004  68.389  1.00  0.00    -0.196 OA 
HETATM   10  N   UNL     1      -9.926   7.780  68.304  1.00  0.00    -0.172 N  
HETATM   11  H   UNL     1      -9.399   8.461  68.849  1.00  0.00     0.000 HD 
BRANCH  10  12
HETATM   12  C   UNL     1      -9.903   7.862  66.856  1.00  0.00    -0.239 C  
BRANCH  12  13
HETATM   13  C   UNL     1      -9.069   9.043  66.334  1.00  0.00    -0.213 C  
BRANCH  13  14
HETATM   14  C   UNL     1      -9.797  10.375  66.317  1.00  0.00    -0.272 A  
HETATM   15  C   UNL     1     -10.890  10.626  67.160  1.00  0.00    -0.328 A  
HETATM   16  C   UNL     1     -11.581  11.838  67.102  1.00  0.00    -0.342 A  
HETATM   17  C   UNL     1     -11.150  12.845  66.241  1.00  0.00    -0.288 A  
HETATM   18  C   UNL     1     -10.033  12.637  65.426  1.00  0.00    -0.230 A  
HETATM   19  C   UNL     1      -9.359  11.410  65.472  1.00  0.00    -0.228 A  
BRANCH  17  20
HETATM   20  S   UNL     1     -12.120  14.327  66.085  1.00  0.00    -0.379 S  
HETATM   21  O   UNL     1     -13.428  13.982  65.574  1.00  0.00    -0.677 OA 
HETATM   22  O   UNL     1     -11.302  15.305  65.395  1.00  0.00    -0.326 OA 
BRANCH  20  23
HETATM   23  N   UNL     1     -12.255  14.908  67.639  1.00  0.00    -0.477 N  
HETATM   24  H   UNL     1     -13.160  15.279  67.929  1.00  0.00     0.000 HD 
BRANCH  23  25
HETATM   25  C   UNL     1     -11.227  14.924  68.564  1.00  0.00    -0.279 C  
HETATM   26  O   UNL     1     -10.069  15.177  68.275  1.00  0.00    -0.218 OA 
BRANCH  25  27
HETATM   27  N   UNL     1     -11.639  14.649  69.838  1.00  0.00    -0.271 N  
HETATM   28  H   UNL     1     -11.332  13.789  70.293  1.00  0.00     0.000 HD 
BRANCH  27  29
HETATM   29  C   UNL     1     -12.512  15.573  70.555  1.00  0.00    -0.427 C  
HETATM   30  C   UNL     1     -13.802  14.883  71.014  1.00  0.00    -0.332 C  
HETATM   31  C   UNL     1     -13.594  13.958  72.212  1.00  0.00    -0.642 C  
HETATM   32  C   UNL     1     -12.896  14.674  73.363  1.00  0.00    -0.526 C  
HETATM   33  C   UNL     1     -11.583  15.308  72.917  1.00  0.00    -0.394 C  
HETATM   34  C   UNL     1     -11.787  16.247  71.728  1.00  0.00    -0.510 C  
ENDBRANCH  27  29
ENDBRANCH  25  27
ENDBRANCH  23  25
ENDBRANCH  20  23
ENDBRANCH  17  20
ENDBRANCH  13  14
ENDBRANCH  12  13
ENDBRANCH  10  12
ENDBRANCH   5   8
TORSDOF 9
ENDMDL
MODEL       87
REMARK 921   NORMALIZED FREE ENERGY PREDICTED BY IDOCK:   -5.74 KCAL/MOL
REMARK 922        TOTAL FREE ENERGY PREDICTED BY IDOCK:  -10.25 KCAL/MOL
REMARK 923 INTER-LIGAND FREE ENERGY PREDICTED BY IDOCK:   -8.55 KCAL/MOL
REMARK 924 INTRA-LIGAND FREE ENERGY PREDICTED BY IDOCK:   -1.70 KCAL/MOL
REMARK 927      BINDING AFFINITY PREDICTED BY RF-SCORE:    0.00 PKD
ROOT
HETATM    1  C   UNL     1      -9.215   2.544  69.765  1.00  0.00    -0.195 C  
HETATM    2  C   UNL     1      -9.634   3.971  69.602  1.00  0.00    -0.200 A  
HETATM    3  N   UNL     1      -9.610   4.494  68.350  1.00  0.00    -0.150 NA 
HETATM    4  C   UNL     1      -9.964   5.800  68.248  1.00  0.00    -0.149 A  
HETATM    5  C   UNL     1     -10.334   6.558  69.349  1.00  0.00    -0.205 A  
HETATM    6  C   UNL     1     -10.022   4.737  70.701  1.00  0.00    -0.230 A  
HETATM    7  N   UNL     1     -10.381   6.044  70.612  1.00  0.00    -0.211 NA 
ENDROOT
BRANCH   5   8
HETATM    8  C   UNL     1     -10.658   8.000  69.167  1.00  0.00    -0.169 C  
HETATM    9  O   UNL     1     -10.978   8.697  70.124  1.00  0.00    -0.246 OA 
HETATM   10  N   UNL     1     -10.593   8.468  67.869  1.00  0.00    -0.410 N  
HETATM   11  H   UNL     1     -10.241   7.853  67.135  1.00  0.00     0.000 HD 
BRANCH  10  12
HETATM   12  C   UNL     1     -11.012   9.812  67.526  1.00  0.00    -0.138 C  
BRANCH  12  13
HETATM   13  C   UNL     1     -10.266  10.383  66.309  1.00  0.00    -0.286 C  
BRANCH  13  14
HETATM   14  C   UNL     1      -9.839  11.833  66.450  1.00  0.00    -0.237 A  
HETATM   15  C   UNL     1     -10.423  12.851  65.680  1.00  0.00    -0.292 A  
HETATM   16  C   UNL     1      -9.989  14.174  65.787  1.00  0.00    -0.331 A  
HETATM   17  C   UNL     1      -9.005  14.511  66.712  1.00  0.00    -0.246 A  
HETATM   18  C   UNL     1      -8.442  13.523  67.526  1.00  0.00    -0.192 A  
HETATM   19  C   UNL     1      -8.864  12.194  67.397  1.00  0.00    -0.181 A  
BRANCH  17  20
HETATM   20  S   UNL     1      -8.373  16.173  66.738  1.00  0.00    -0.294 S  
HETATM   21  O   UNL     1      -9.075  16.960  65.749  1.00  0.00    -0.523 OA 
HETATM   22  O   UNL     1      -6.926  16.083  66.705  1.00  0.00    -0.215 OA 
BRANCH  20  23
HETATM   23  N   UNL     1      -8.728  16.735  68.264  1.00  0.00    -0.219 N  
HETATM   24  H   UNL     1      -7.948  16.900  68.902  1.00  0.00     0.000 HD 
BRANCH  23  25
HETATM   25  C   UNL     1     -10.004  16.994  68.729  1.00  0.00    -0.293 C  
HETATM   26  O   UNL     1     -10.625  18.007  68.454  1.00  0.00    -0.340 OA 
BRANCH  25  27
HETATM   27  N   UNL     1     -10.511  15.993  69.510  1.00  0.00    -0.264 N  
HETATM   28  H   UNL     1      -9.910  15.532  70.193  1.00  0.00     0.000 HD 
BRANCH  27  29
HETATM   29  C   UNL     1     -11.904  15.576  69.377  1.00  0.00    -0.374 C  
HETATM   30  C   UNL     1     -12.017  14.213  68.685  1.00  0.00    -0.373 C  
HETATM   31  C   UNL     1     -11.628  13.046  69.590  1.00  0.00    -0.322 C  
HETATM   32  C   UNL     1     -12.392  13.076  70.909  1.00  0.00    -0.376 C  
HETATM   33  C   UNL     1     -12.228  14.413  71.624  1.00  0.00    -0.385 C  
HETATM   34  C   UNL     1     -12.631  15.583  70.728  1.00  0.00    -0.505 C  
ENDBRANCH  27  29
ENDBRANCH  25  27
ENDBRANCH  23  25
ENDBRANCH  20  23
ENDBRANCH  17  20
ENDBRANCH  13  14
ENDBRANCH  12  13
ENDBRANCH  10  12
ENDBRANCH   5   8
TORSDOF 9
ENDMDL
MODEL       88
REMARK 921   NORMALIZED FREE ENERGY PREDICTED BY IDOCK:   -5.74 KCAL/MOL
REMARK 922        TOTAL FREE ENERGY PREDICTED BY IDOCK:  -10.25 KCAL/MOL
REMARK 923 INTER-LIGAND FREE ENERGY PREDICTED BY IDOCK:   -8.15 KCAL/MOL
REMARK 924 INTRA-LIGAND FREE ENERGY PREDICTED BY IDOCK:   -2.10 KCAL/MOL
REMARK 927      BINDING AFFINITY PREDICTED BY RF-SCORE:    0.00 PKD
ROOT
HETATM    1  C   UNL     1     -11.845  14.183  67.445  1.00  0.00    -0.447 C  
HETATM    2  C   UNL     1     -11.965  13.135  68.505  1.00  0.00    -0.289 A  
HETATM    3  N   UNL     1     -11.960  11.838  68.110  1.00  0.00    -0.557 NA 
HETATM    4  C   UNL     1     -12.107  10.918  69.097  1.00  0.00    -0.221 A  
HETATM    5  C   UNL     1     -12.247  11.275  70.429  1.00  0.00    -0.365 A  
HETATM    6  C   UNL     1     -12.092  13.484  69.850  1.00  0.00    -0.341 A  
HETATM    7  N   UNL     1     -12.237  12.574  70.847  1.00  0.00    -0.287 NA 
ENDROOT
BRANCH   5   8
HETATM    8  C   UNL     1     -12.457  10.212  71.451  1.00  0.00    -0.423 C  
HETATM    9  O   UNL     1     -13.425  10.245  72.202  1.00  0.00    -0.401 OA 
HETATM   10  N   UNL     1     -11.489   9.227  71.497  1.00  0.00    -0.358 N  
HETATM   11  H   UNL     1     -10.755   9.217  70.789  1.00  0.00     0.000 HD 
BRANCH  10  12
HETATM   12  C   UNL     1     -11.493   8.208  72.528  1.00  0.00    -0.404 C  
BRANCH  12  13
HETATM   13  C   UNL     1     -11.873   6.816  71.996  1.00  0.00    -0.351 C  
BRANCH  13  14
HETATM   14  C   UNL     1     -11.106   6.379  70.761  1.00  0.00    -0.365 A  
HETATM   15  C   UNL     1     -11.655   6.495  69.475  1.00  0.00    -0.298 A  
HETATM   16  C   UNL     1     -10.958   6.047  68.351  1.00  0.00    -0.340 A  
HETATM   17  C   UNL     1      -9.672   5.530  68.489  1.00  0.00    -0.134 A  
HETATM   18  C   UNL     1      -9.083   5.450  69.755  1.00  0.00    -0.157 A  
HETATM   19  C   UNL     1      -9.797   5.879  70.881  1.00  0.00    -0.224 A  
BRANCH  17  20
HETATM   20  S   UNL     1      -8.856   4.843  67.067  1.00  0.00    -0.106 S  
HETATM   21  O   UNL     1      -9.387   3.522  66.812  1.00  0.00    -0.175 OA 
HETATM   22  O   UNL     1      -7.431   5.033  67.255  1.00  0.00    -0.081 OA 
BRANCH  20  23
HETATM   23  N   UNL     1      -9.258   5.864  65.815  1.00  0.00    -0.317 N  
HETATM   24  H   UNL     1     -10.201   5.797  65.432  1.00  0.00     0.000 HD 
BRANCH  23  25
HETATM   25  C   UNL     1      -8.403   6.798  65.258  1.00  0.00    -0.105 C  
HETATM   26  O   UNL     1      -7.857   6.645  64.178  1.00  0.00    -0.108 OA 
BRANCH  25  27
HETATM   27  N   UNL     1      -8.247   7.918  66.026  1.00  0.00    -0.115 N  
HETATM   28  H   UNL     1      -7.311   8.210  66.307  1.00  0.00     0.000 HD 
BRANCH  27  29
HETATM   29  C   UNL     1      -9.405   8.700  66.447  1.00  0.00    -0.211 C  
HETATM   30  C   UNL     1      -9.162   9.375  67.802  1.00  0.00    -0.141 C  
HETATM   31  C   UNL     1      -8.228  10.580  67.713  1.00  0.00    -0.107 C  
HETATM   32  C   UNL     1      -8.693  11.579  66.659  1.00  0.00    -0.182 C  
HETATM   33  C   UNL     1      -8.876  10.916  65.298  1.00  0.00    -0.179 C  
HETATM   34  C   UNL     1      -9.822   9.720  65.378  1.00  0.00    -0.365 C  
ENDBRANCH  27  29
ENDBRANCH  25  27
ENDBRANCH  23  25
ENDBRANCH  20  23
ENDBRANCH  17  20
ENDBRANCH  13  14
ENDBRANCH  12  13
ENDBRANCH  10  12
ENDBRANCH   5   8
TORSDOF 9
ENDMDL
MODEL       89
REMARK 921   NORMALIZED FREE ENERGY PREDICTED BY IDOCK:   -5.74 KCAL/MOL
REMARK 922        TOTAL FREE ENERGY PREDICTED BY IDOCK:  -10.25 KCAL/MOL
REMARK 923 INTER-LIGAND FREE ENERGY PREDICTED BY IDOCK:   -8.68 KCAL/MOL
REMARK 924 INTRA-LIGAND FREE ENERGY PREDICTED BY IDOCK:   -1.57 KCAL/MOL
REMARK 927      BINDING AFFINITY PREDICTED BY RF-SCORE:    0.00 PKD
ROOT
HETATM    1  C   UNL     1     -13.406   9.524  72.183  1.00  0.00    -0.545 C  
HETATM    2  C   UNL     1     -13.091  10.936  71.800  1.00  0.00    -0.459 A  
HETATM    3  N   UNL     1     -13.654  11.927  72.536  1.00  0.00     0.018 NA 
HETATM    4  C   UNL     1     -13.372  13.193  72.136  1.00  0.00    -0.524 A  
HETATM    5  C   UNL     1     -12.556  13.464  71.048  1.00  0.00    -0.343 A  
HETATM    6  C   UNL     1     -12.260  11.219  70.716  1.00  0.00    -0.380 A  
HETATM    7  N   UNL     1     -11.968  12.481  70.308  1.00  0.00    -0.333 NA 
ENDROOT
BRANCH   5   8
HETATM    8  C   UNL     1     -12.336  14.878  70.636  1.00  0.00    -0.344 C  
HETATM    9  O   UNL     1     -13.275  15.662  70.553  1.00  0.00    -0.434 OA 
HETATM   10  N   UNL     1     -11.029  15.219  70.344  1.00  0.00    -0.359 N  
HETATM   11  H   UNL     1     -10.287  14.540  70.514  1.00  0.00     0.000 HD 
BRANCH  10  12
HETATM   12  C   UNL     1     -10.688  16.519  69.801  1.00  0.00    -0.298 C  
BRANCH  12  13
HETATM   13  C   UNL     1     -11.064  16.669  68.318  1.00  0.00    -0.295 C  
BRANCH  13  14
HETATM   14  C   UNL     1     -10.810  15.435  67.472  1.00  0.00    -0.305 A  
HETATM   15  C   UNL     1      -9.511  15.034  67.126  1.00  0.00    -0.223 A  
HETATM   16  C   UNL     1      -9.294  13.923  66.308  1.00  0.00    -0.180 A  
HETATM   17  C   UNL     1     -10.372  13.156  65.874  1.00  0.00    -0.290 A  
HETATM   18  C   UNL     1     -11.674  13.506  66.247  1.00  0.00    -0.401 A  
HETATM   19  C   UNL     1     -11.887  14.635  67.046  1.00  0.00    -0.358 A  
BRANCH  17  20
HETATM   20  S   UNL     1     -10.086  11.828  64.728  1.00  0.00    -0.263 S  
HETATM   21  O   UNL     1      -9.868  12.382  63.409  1.00  0.00    -0.370 OA 
HETATM   22  O   UNL     1     -11.128  10.843  64.942  1.00  0.00    -0.076 OA 
BRANCH  20  23
HETATM   23  N   UNL     1      -8.693  11.096  65.270  1.00  0.00    -0.370 N  
HETATM   24  H   UNL     1      -7.872  11.685  65.415  1.00  0.00     0.000 HD 
BRANCH  23  25
HETATM   25  C   UNL     1      -8.568   9.744  65.538  1.00  0.00    -0.145 C  
HETATM   26  O   UNL     1      -8.521   8.890  64.668  1.00  0.00    -0.167 OA 
BRANCH  25  27
HETATM   27  N   UNL     1      -8.482   9.461  66.872  1.00  0.00    -0.126 N  
HETATM   28  H   UNL     1      -7.630   9.043  67.245  1.00  0.00     0.000 HD 
BRANCH  27  29
HETATM   29  C   UNL     1      -9.597   9.750  67.770  1.00  0.00    -0.135 C  
HETATM   30  C   UNL     1     -10.453   8.503  68.019  1.00  0.00    -0.249 C  
HETATM   31  C   UNL     1      -9.793   7.501  68.964  1.00  0.00    -0.170 C  
HETATM   32  C   UNL     1      -9.359   8.158  70.269  1.00  0.00    -0.155 C  
HETATM   33  C   UNL     1      -8.458   9.363  70.020  1.00  0.00    -0.202 C  
HETATM   34  C   UNL     1      -9.119  10.376  69.087  1.00  0.00    -0.197 C  
ENDBRANCH  27  29
ENDBRANCH  25  27
ENDBRANCH  23  25
ENDBRANCH  20  23
ENDBRANCH  17  20
ENDBRANCH  13  14
ENDBRANCH  12  13
ENDBRANCH  10  12
ENDBRANCH   5   8
TORSDOF 9
ENDMDL
MODEL       90
REMARK 921   NORMALIZED FREE ENERGY PREDICTED BY IDOCK:   -5.73 KCAL/MOL
REMARK 922        TOTAL FREE ENERGY PREDICTED BY IDOCK:  -10.25 KCAL/MOL
REMARK 923 INTER-LIGAND FREE ENERGY PREDICTED BY IDOCK:   -9.33 KCAL/MOL
REMARK 924 INTRA-LIGAND FREE ENERGY PREDICTED BY IDOCK:   -0.92 KCAL/MOL
REMARK 927      BINDING AFFINITY PREDICTED BY RF-SCORE:    0.00 PKD
ROOT
HETATM    1  C   UNL     1      -9.429   3.018  71.627  1.00  0.00    -0.211 C  
HETATM    2  C   UNL     1     -10.146   4.330  71.646  1.00  0.00    -0.146 A  
HETATM    3  N   UNL     1     -10.315   4.972  70.463  1.00  0.00    -0.245 NA 
HETATM    4  C   UNL     1     -10.939   6.175  70.527  1.00  0.00    -0.318 A  
HETATM    5  C   UNL     1     -11.385   6.719  71.722  1.00  0.00    -0.269 A  
HETATM    6  C   UNL     1     -10.611   4.878  72.842  1.00  0.00    -0.219 A  
HETATM    7  N   UNL     1     -11.240   6.080  72.919  1.00  0.00    -0.253 NA 
ENDROOT
BRANCH   5   8
HETATM    8  C   UNL     1     -12.013   8.068  71.720  1.00  0.00    -0.301 C  
HETATM    9  O   UNL     1     -13.196   8.211  72.012  1.00  0.00    -0.319 OA 
HETATM   10  N   UNL     1     -11.187   9.113  71.352  1.00  0.00    -0.320 N  
HETATM   11  H   UNL     1     -10.194   8.933  71.202  1.00  0.00     0.000 HD 
BRANCH  10  12
HETATM   12  C   UNL     1     -11.698  10.458  71.175  1.00  0.00    -0.296 C  
BRANCH  12  13
HETATM   13  C   UNL     1     -12.525  10.623  69.889  1.00  0.00    -0.241 C  
BRANCH  13  14
HETATM   14  C   UNL     1     -11.934  11.585  68.875  1.00  0.00    -0.364 A  
HETATM   15  C   UNL     1     -11.905  12.969  69.104  1.00  0.00    -0.360 A  
HETATM   16  C   UNL     1     -11.401  13.848  68.143  1.00  0.00    -0.324 A  
HETATM   17  C   UNL     1     -10.858  13.350  66.961  1.00  0.00    -0.273 A  
HETATM   18  C   UNL     1     -10.830  11.971  66.731  1.00  0.00    -0.307 A  
HETATM   19  C   UNL     1     -11.359  11.097  67.688  1.00  0.00    -0.356 A  
BRANCH  17  20
HETATM   20  S   UNL     1     -10.345  14.489  65.696  1.00  0.00    -0.371 S  
HETATM   21  O   UNL     1     -11.266  15.603  65.662  1.00  0.00    -0.238 OA 
HETATM   22  O   UNL     1     -10.094  13.714  64.496  1.00  0.00    -0.349 OA 
BRANCH  20  23
HETATM   23  N   UNL     1      -8.842  15.013  66.184  1.00  0.00    -0.472 N  
HETATM   24  H   UNL     1      -8.094  15.020  65.490  1.00  0.00     0.000 HD 
BRANCH  23  25
HETATM   25  C   UNL     1      -8.536  15.438  67.464  1.00  0.00    -0.174 C  
HETATM   26  O   UNL     1      -7.816  14.812  68.224  1.00  0.00    -0.113 OA 
BRANCH  25  27
HETATM   27  N   UNL     1      -9.102  16.640  67.786  1.00  0.00    -0.211 N  
HETATM   28  H   UNL     1     -10.014  16.662  68.241  1.00  0.00     0.000 HD 
BRANCH  27  29
HETATM   29  C   UNL     1      -8.413  17.892  67.486  1.00  0.00    -0.232 C  
HETATM   30  C   UNL     1      -9.047  18.607  66.288  1.00  0.00    -0.236 C  
HETATM   31  C   UNL     1     -10.378  19.277  66.623  1.00  0.00    -0.529 C  
HETATM   32  C   UNL     1     -10.256  20.200  67.831  1.00  0.00    -0.501 C  
HETATM   33  C   UNL     1      -9.681  19.470  69.040  1.00  0.00    -0.455 C  
HETATM   34  C   UNL     1      -8.342  18.811  68.714  1.00  0.00    -0.322 C  
ENDBRANCH  27  29
ENDBRANCH  25  27
ENDBRANCH  23  25
ENDBRANCH  20  23
ENDBRANCH  17  20
ENDBRANCH  13  14
ENDBRANCH  12  13
ENDBRANCH  10  12
ENDBRANCH   5   8
TORSDOF 9
ENDMDL
MODEL       91
REMARK 921   NORMALIZED FREE ENERGY PREDICTED BY IDOCK:   -5.71 KCAL/MOL
REMARK 922        TOTAL FREE ENERGY PREDICTED BY IDOCK:  -10.21 KCAL/MOL
REMARK 923 INTER-LIGAND FREE ENERGY PREDICTED BY IDOCK:   -8.17 KCAL/MOL
REMARK 924 INTRA-LIGAND FREE ENERGY PREDICTED BY IDOCK:   -2.04 KCAL/MOL
REMARK 927      BINDING AFFINITY PREDICTED BY RF-SCORE:    0.00 PKD
ROOT
HETATM    1  C   UNL     1      -9.853   4.793  67.337  1.00  0.00    -0.214 C  
HETATM    2  C   UNL     1     -10.175   6.190  67.765  1.00  0.00    -0.172 A  
HETATM    3  N   UNL     1     -10.191   7.152  66.809  1.00  0.00    -0.235 NA 
HETATM    4  C   UNL     1     -10.453   8.411  67.242  1.00  0.00    -0.303 A  
HETATM    5  C   UNL     1     -10.695   8.703  68.576  1.00  0.00    -0.043 A  
HETATM    6  C   UNL     1     -10.435   6.491  69.103  1.00  0.00    -0.221 A  
HETATM    7  N   UNL     1     -10.700   7.746  69.548  1.00  0.00    -0.226 NA 
ENDROOT
BRANCH   5   8
HETATM    8  C   UNL     1     -10.922  10.117  68.984  1.00  0.00    -0.226 C  
HETATM    9  O   UNL     1     -10.864  10.447  70.163  1.00  0.00    -0.283 OA 
HETATM   10  N   UNL     1     -11.217  10.995  67.958  1.00  0.00    -0.286 N  
HETATM   11  H   UNL     1     -11.168  10.669  66.993  1.00  0.00     0.000 HD 
BRANCH  10  12
HETATM   12  C   UNL     1     -11.593  12.370  68.223  1.00  0.00    -0.333 C  
BRANCH  12  13
HETATM   13  C   UNL     1     -11.756  13.206  66.942  1.00  0.00    -0.441 C  
BRANCH  13  14
HETATM   14  C   UNL     1     -11.271  14.640  67.056  1.00  0.00    -0.348 A  
HETATM   15  C   UNL     1     -11.208  15.300  68.293  1.00  0.00    -0.318 A  
HETATM   16  C   UNL     1     -10.804  16.633  68.378  1.00  0.00    -0.361 A  
HETATM   17  C   UNL     1     -10.397  17.312  67.232  1.00  0.00    -0.331 A  
HETATM   18  C   UNL     1     -10.404  16.661  65.995  1.00  0.00    -0.352 A  
HETATM   19  C   UNL     1     -10.832  15.331  65.913  1.00  0.00    -0.345 A  
BRANCH  17  20
HETATM   20  S   UNL     1     -10.016  19.046  67.341  1.00  0.00    -0.364 S  
HETATM   21  O   UNL     1     -10.077  19.456  68.727  1.00  0.00    -0.432 OA 
HETATM   22  O   UNL     1     -10.819  19.726  66.343  1.00  0.00    -0.440 OA 
BRANCH  20  23
HETATM   23  N   UNL     1      -8.452  19.170  66.784  1.00  0.00    -0.290 N  
HETATM   24  H   UNL     1      -8.308  19.175  65.774  1.00  0.00     0.000 HD 
BRANCH  23  25
HETATM   25  C   UNL     1      -7.335  19.265  67.593  1.00  0.00    -0.236 C  
HETATM   26  O   UNL     1      -6.457  20.096  67.428  1.00  0.00    -0.199 OA 
BRANCH  25  27
HETATM   27  N   UNL     1      -7.321  18.351  68.610  1.00  0.00    -0.288 N  
HETATM   28  H   UNL     1      -8.054  18.374  69.318  1.00  0.00     0.000 HD 
BRANCH  27  29
HETATM   29  C   UNL     1      -6.268  17.343  68.692  1.00  0.00    -0.175 C  
HETATM   30  C   UNL     1      -6.465  16.425  69.903  1.00  0.00    -0.069 C  
HETATM   31  C   UNL     1      -7.590  15.410  69.710  1.00  0.00    -0.091 C  
HETATM   32  C   UNL     1      -7.417  14.615  68.420  1.00  0.00    -0.117 C  
HETATM   33  C   UNL     1      -7.282  15.531  67.209  1.00  0.00    -0.242 C  
HETATM   34  C   UNL     1      -6.148  16.539  67.390  1.00  0.00    -0.192 C  
ENDBRANCH  27  29
ENDBRANCH  25  27
ENDBRANCH  23  25
ENDBRANCH  20  23
ENDBRANCH  17  20
ENDBRANCH  13  14
ENDBRANCH  12  13
ENDBRANCH  10  12
ENDBRANCH   5   8
TORSDOF 9
ENDMDL
MODEL       92
REMARK 921   NORMALIZED FREE ENERGY PREDICTED BY IDOCK:   -5.71 KCAL/MOL
REMARK 922        TOTAL FREE ENERGY PREDICTED BY IDOCK:  -10.21 KCAL/MOL
REMARK 923 INTER-LIGAND FREE ENERGY PREDICTED BY IDOCK:   -9.27 KCAL/MOL
REMARK 924 INTRA-LIGAND FREE ENERGY PREDICTED BY IDOCK:   -0.94 KCAL/MOL
REMARK 927      BINDING AFFINITY PREDICTED BY RF-SCORE:    0.00 PKD
ROOT
HETATM    1  C   UNL     1      -9.101   3.175  67.687  1.00  0.00    -0.215 C  
HETATM    2  C   UNL     1      -9.760   4.248  68.494  1.00  0.00    -0.094 A  
HETATM    3  N   UNL     1      -9.626   4.192  69.843  1.00  0.00    -0.199 NA 
HETATM    4  C   UNL     1     -10.268   5.163  70.541  1.00  0.00    -0.260 A  
HETATM    5  C   UNL     1     -11.011   6.156  69.922  1.00  0.00    -0.389 A  
HETATM    6  C   UNL     1     -10.498   5.260  67.879  1.00  0.00    -0.085 A  
HETATM    7  N   UNL     1     -11.142   6.238  68.567  1.00  0.00    -0.347 NA 
ENDROOT
BRANCH   5   8
HETATM    8  C   UNL     1     -11.730   7.157  70.757  1.00  0.00    -0.323 C  
HETATM    9  O   UNL     1     -12.862   6.930  71.172  1.00  0.00    -0.354 OA 
HETATM   10  N   UNL     1     -11.049   8.334  71.001  1.00  0.00    -0.245 N  
HETATM   11  H   UNL     1     -10.080   8.421  70.694  1.00  0.00     0.000 HD 
BRANCH  10  12
HETATM   12  C   UNL     1     -11.679   9.447  71.683  1.00  0.00    -0.398 C  
BRANCH  12  13
HETATM   13  C   UNL     1     -12.655  10.227  70.786  1.00  0.00    -0.442 C  
BRANCH  13  14
HETATM   14  C   UNL     1     -11.993  11.065  69.708  1.00  0.00    -0.428 A  
HETATM   15  C   UNL     1     -11.476  10.486  68.539  1.00  0.00    -0.284 A  
HETATM   16  C   UNL     1     -10.828  11.262  67.576  1.00  0.00    -0.292 A  
HETATM   17  C   UNL     1     -10.742  12.643  67.738  1.00  0.00    -0.220 A  
HETATM   18  C   UNL     1     -11.293  13.250  68.870  1.00  0.00    -0.333 A  
HETATM   19  C   UNL     1     -11.920  12.463  69.844  1.00  0.00    -0.369 A  
BRANCH  17  20
HETATM   20  S   UNL     1      -9.798  13.595  66.570  1.00  0.00    -0.298 S  
HETATM   21  O   UNL     1     -10.045  13.087  65.238  1.00  0.00    -0.282 OA 
HETATM   22  O   UNL     1      -8.443  13.679  67.079  1.00  0.00    -0.196 OA 
BRANCH  20  23
HETATM   23  N   UNL     1     -10.398  15.142  66.704  1.00  0.00    -0.268 N  
HETATM   24  H   UNL     1     -11.077  15.325  67.443  1.00  0.00     0.000 HD 
BRANCH  23  25
HETATM   25  C   UNL     1     -10.041  16.197  65.884  1.00  0.00    -0.354 C  
HETATM   26  O   UNL     1     -10.831  16.780  65.160  1.00  0.00    -0.584 OA 
BRANCH  25  27
HETATM   27  N   UNL     1      -8.721  16.538  65.980  1.00  0.00    -0.288 N  
HETATM   28  H   UNL     1      -8.074  16.262  65.241  1.00  0.00     0.000 HD 
BRANCH  27  29
HETATM   29  C   UNL     1      -8.226  17.291  67.129  1.00  0.00    -0.204 C  
HETATM   30  C   UNL     1      -6.764  17.708  66.937  1.00  0.00    -0.212 C  
HETATM   31  C   UNL     1      -6.593  18.863  65.953  1.00  0.00    -0.278 C  
HETATM   32  C   UNL     1      -7.477  20.051  66.317  1.00  0.00    -0.323 C  
HETATM   33  C   UNL     1      -8.941  19.644  66.448  1.00  0.00    -0.427 C  
HETATM   34  C   UNL     1      -9.119  18.499  67.443  1.00  0.00    -0.283 C  
ENDBRANCH  27  29
ENDBRANCH  25  27
ENDBRANCH  23  25
ENDBRANCH  20  23
ENDBRANCH  17  20
ENDBRANCH  13  14
ENDBRANCH  12  13
ENDBRANCH  10  12
ENDBRANCH   5   8
TORSDOF 9
ENDMDL
MODEL       93
REMARK 921   NORMALIZED FREE ENERGY PREDICTED BY IDOCK:   -5.70 KCAL/MOL
REMARK 922        TOTAL FREE ENERGY PREDICTED BY IDOCK:  -10.19 KCAL/MOL
REMARK 923 INTER-LIGAND FREE ENERGY PREDICTED BY IDOCK:   -9.21 KCAL/MOL
REMARK 924 INTRA-LIGAND FREE ENERGY PREDICTED BY IDOCK:   -0.98 KCAL/MOL
REMARK 927      BINDING AFFINITY PREDICTED BY RF-SCORE:    0.00 PKD
ROOT
HETATM    1  C   UNL     1      -9.563   3.501  68.370  1.00  0.00    -0.154 C  
HETATM    2  C   UNL     1      -9.091   4.556  67.420  1.00  0.00    -0.128 A  
HETATM    3  N   UNL     1      -7.970   4.298  66.701  1.00  0.00    -0.098 NA 
HETATM    4  C   UNL     1      -7.555   5.292  65.877  1.00  0.00    -0.083 A  
HETATM    5  C   UNL     1      -8.232   6.498  65.767  1.00  0.00    -0.135 A  
HETATM    6  C   UNL     1      -9.774   5.766  67.292  1.00  0.00    -0.129 A  
HETATM    7  N   UNL     1      -9.370   6.767  66.469  1.00  0.00    -0.165 NA 
ENDROOT
BRANCH   5   8
HETATM    8  C   UNL     1      -7.686   7.563  64.881  1.00  0.00    -0.115 C  
HETATM    9  O   UNL     1      -6.592   8.069  65.109  1.00  0.00    -0.051 OA 
HETATM   10  N   UNL     1      -8.497   7.938  63.827  1.00  0.00    -0.378 N  
HETATM   11  H   UNL     1      -9.356   7.418  63.650  1.00  0.00     0.000 HD 
BRANCH  10  12
HETATM   12  C   UNL     1      -8.154   9.053  62.967  1.00  0.00    -0.167 C  
BRANCH  12  13
HETATM   13  C   UNL     1      -9.360   9.944  62.628  1.00  0.00    -0.249 C  
BRANCH  13  14
HETATM   14  C   UNL     1      -9.795  10.875  63.745  1.00  0.00    -0.391 A  
HETATM   15  C   UNL     1     -10.962  11.647  63.649  1.00  0.00    -0.507 A  
HETATM   16  C   UNL     1     -11.326  12.534  64.664  1.00  0.00    -0.363 A  
HETATM   17  C   UNL     1     -10.559  12.617  65.824  1.00  0.00    -0.272 A  
HETATM   18  C   UNL     1      -9.418  11.822  65.965  1.00  0.00    -0.245 A  
HETATM   19  C   UNL     1      -9.045  10.953  64.933  1.00  0.00    -0.201 A  
BRANCH  17  20
HETATM   20  S   UNL     1     -10.963  13.846  67.043  1.00  0.00    -0.300 S  
HETATM   21  O   UNL     1     -12.362  14.191  66.920  1.00  0.00    -0.419 OA 
HETATM   22  O   UNL     1      -9.947  14.878  66.966  1.00  0.00    -0.235 OA 
BRANCH  20  23
HETATM   23  N   UNL     1     -10.693  13.095  68.504  1.00  0.00    -0.254 N  
HETATM   24  H   UNL     1      -9.736  13.076  68.858  1.00  0.00     0.000 HD 
BRANCH  23  25
HETATM   25  C   UNL     1     -11.675  12.495  69.272  1.00  0.00    -0.321 C  
HETATM   26  O   UNL     1     -12.265  11.482  68.933  1.00  0.00    -0.415 OA 
BRANCH  25  27
HETATM   27  N   UNL     1     -11.904  13.135  70.458  1.00  0.00    -0.535 N  
HETATM   28  H   UNL     1     -11.317  12.926  71.265  1.00  0.00     0.000 HD 
BRANCH  27  29
HETATM   29  C   UNL     1     -12.979  14.114  70.581  1.00  0.00    -0.228 C  
HETATM   30  C   UNL     1     -13.771  13.916  71.878  1.00  0.00    -0.521 C  
HETATM   31  C   UNL     1     -13.022  14.403  73.118  1.00  0.00    -0.517 C  
HETATM   32  C   UNL     1     -12.545  15.843  72.960  1.00  0.00    -0.606 C  
HETATM   33  C   UNL     1     -11.707  16.022  71.699  1.00  0.00    -0.583 C  
HETATM   34  C   UNL     1     -12.457  15.552  70.454  1.00  0.00    -0.443 C  
ENDBRANCH  27  29
ENDBRANCH  25  27
ENDBRANCH  23  25
ENDBRANCH  20  23
ENDBRANCH  17  20
ENDBRANCH  13  14
ENDBRANCH  12  13
ENDBRANCH  10  12
ENDBRANCH   5   8
TORSDOF 9
ENDMDL
MODEL       94
REMARK 921   NORMALIZED FREE ENERGY PREDICTED BY IDOCK:   -5.70 KCAL/MOL
REMARK 922        TOTAL FREE ENERGY PREDICTED BY IDOCK:  -10.19 KCAL/MOL
REMARK 923 INTER-LIGAND FREE ENERGY PREDICTED BY IDOCK:   -9.11 KCAL/MOL
REMARK 924 INTRA-LIGAND FREE ENERGY PREDICTED BY IDOCK:   -1.08 KCAL/MOL
REMARK 927      BINDING AFFINITY PREDICTED BY RF-SCORE:    0.00 PKD
ROOT
HETATM    1  C   UNL     1      -9.257   3.026  72.113  1.00  0.00    -0.160 C  
HETATM    2  C   UNL     1     -10.002   4.308  71.919  1.00  0.00    -0.185 A  
HETATM    3  N   UNL     1      -9.818   4.971  70.750  1.00  0.00    -0.194 NA 
HETATM    4  C   UNL     1     -10.484   6.147  70.626  1.00  0.00    -0.236 A  
HETATM    5  C   UNL     1     -11.308   6.643  71.626  1.00  0.00    -0.276 A  
HETATM    6  C   UNL     1     -10.844   4.808  72.913  1.00  0.00    -0.237 A  
HETATM    7  N   UNL     1     -11.518   5.981  72.800  1.00  0.00    -0.246 NA 
ENDROOT
BRANCH   5   8
HETATM    8  C   UNL     1     -11.964   7.967  71.440  1.00  0.00    -0.303 C  
HETATM    9  O   UNL     1     -13.177   8.049  71.280  1.00  0.00    -0.257 OA 
HETATM   10  N   UNL     1     -11.118   9.059  71.440  1.00  0.00    -0.300 N  
HETATM   11  H   UNL     1     -10.131   8.925  71.660  1.00  0.00     0.000 HD 
BRANCH  10  12
HETATM   12  C   UNL     1     -11.601  10.392  71.135  1.00  0.00    -0.228 C  
BRANCH  12  13
HETATM   13  C   UNL     1     -11.671  10.675  69.625  1.00  0.00    -0.368 C  
BRANCH  13  14
HETATM   14  C   UNL     1     -11.073  12.005  69.202  1.00  0.00    -0.272 A  
HETATM   15  C   UNL     1     -11.807  13.198  69.275  1.00  0.00    -0.377 A  
HETATM   16  C   UNL     1     -11.262  14.408  68.839  1.00  0.00    -0.284 A  
HETATM   17  C   UNL     1      -9.947  14.453  68.380  1.00  0.00    -0.241 A  
HETATM   18  C   UNL     1      -9.179  13.286  68.344  1.00  0.00    -0.145 A  
HETATM   19  C   UNL     1      -9.739  12.072  68.760  1.00  0.00    -0.029 A  
BRANCH  17  20
HETATM   20  S   UNL     1      -9.317  15.973  67.706  1.00  0.00    -0.211 S  
HETATM   21  O   UNL     1      -8.164  15.682  66.883  1.00  0.00    -0.210 OA 
HETATM   22  O   UNL     1      -9.212  16.918  68.801  1.00  0.00    -0.259 OA 
BRANCH  20  23
HETATM   23  N   UNL     1     -10.554  16.559  66.758  1.00  0.00    -0.268 N  
HETATM   24  H   UNL     1     -11.210  17.213  67.186  1.00  0.00     0.000 HD 
BRANCH  23  25
HETATM   25  C   UNL     1     -10.755  16.221  65.432  1.00  0.00    -0.327 C  
HETATM   26  O   UNL     1     -11.018  17.038  64.565  1.00  0.00    -1.031 OA 
BRANCH  25  27
HETATM   27  N   UNL     1     -10.610  14.885  65.184  1.00  0.00    -0.399 N  
HETATM   28  H   UNL     1      -9.692  14.451  65.279  1.00  0.00     0.000 HD 
BRANCH  27  29
HETATM   29  C   UNL     1     -11.755  14.072  64.785  1.00  0.00    -0.394 C  
HETATM   30  C   UNL     1     -11.543  13.447  63.402  1.00  0.00    -0.078 C  
HETATM   31  C   UNL     1     -10.563  12.276  63.416  1.00  0.00    -0.427 C  
HETATM   32  C   UNL     1     -10.948  11.230  64.456  1.00  0.00    -0.301 C  
HETATM   33  C   UNL     1     -11.100  11.845  65.843  1.00  0.00    -0.365 C  
HETATM   34  C   UNL     1     -12.091  13.007  65.838  1.00  0.00    -0.503 C  
ENDBRANCH  27  29
ENDBRANCH  25  27
ENDBRANCH  23  25
ENDBRANCH  20  23
ENDBRANCH  17  20
ENDBRANCH  13  14
ENDBRANCH  12  13
ENDBRANCH  10  12
ENDBRANCH   5   8
TORSDOF 9
ENDMDL
MODEL       95
REMARK 921   NORMALIZED FREE ENERGY PREDICTED BY IDOCK:   -5.69 KCAL/MOL
REMARK 922        TOTAL FREE ENERGY PREDICTED BY IDOCK:  -10.17 KCAL/MOL
REMARK 923 INTER-LIGAND FREE ENERGY PREDICTED BY IDOCK:   -8.63 KCAL/MOL
REMARK 924 INTRA-LIGAND FREE ENERGY PREDICTED BY IDOCK:   -1.55 KCAL/MOL
REMARK 927      BINDING AFFINITY PREDICTED BY RF-SCORE:    0.00 PKD
ROOT
HETATM    1  C   UNL     1     -11.494  15.306  71.609  1.00  0.00    -0.471 C  
HETATM    2  C   UNL     1     -11.642  14.960  70.161  1.00  0.00    -0.289 A  
HETATM    3  N   UNL     1     -11.985  13.684  69.852  1.00  0.00    -0.330 NA 
HETATM    4  C   UNL     1     -12.075  13.400  68.528  1.00  0.00    -0.248 A  
HETATM    5  C   UNL     1     -11.838  14.350  67.547  1.00  0.00    -0.386 A  
HETATM    6  C   UNL     1     -11.420  15.913  69.167  1.00  0.00    -0.377 A  
HETATM    7  N   UNL     1     -11.509  15.642  67.839  1.00  0.00    -0.299 NA 
ENDROOT
BRANCH   5   8
HETATM    8  C   UNL     1     -11.903  13.951  66.114  1.00  0.00    -0.400 C  
HETATM    9  O   UNL     1     -12.948  14.052  65.481  1.00  0.00    -0.681 OA 
HETATM   10  N   UNL     1     -10.731  13.451  65.578  1.00  0.00    -0.288 N  
HETATM   11  H   UNL     1      -9.879  13.472  66.138  1.00  0.00     0.000 HD 
BRANCH  10  12
HETATM   12  C   UNL     1     -10.686  12.899  64.239  1.00  0.00    -0.406 C  
BRANCH  12  13
HETATM   13  C   UNL     1     -10.701  11.362  64.221  1.00  0.00    -0.420 C  
BRANCH  13  14
HETATM   14  C   UNL     1      -9.860  10.707  65.302  1.00  0.00    -0.334 A  
HETATM   15  C   UNL     1     -10.428  10.249  66.500  1.00  0.00    -0.241 A  
HETATM   16  C   UNL     1      -9.636   9.690  67.506  1.00  0.00    -0.180 A  
HETATM   17  C   UNL     1      -8.268   9.525  67.303  1.00  0.00    -0.114 A  
HETATM   18  C   UNL     1      -7.686   9.929  66.098  1.00  0.00    -0.107 A  
HETATM   19  C   UNL     1      -8.481  10.510  65.103  1.00  0.00    -0.170 A  
BRANCH  17  20
HETATM   20  S   UNL     1      -7.259   8.937  68.644  1.00  0.00    -0.073 S  
HETATM   21  O   UNL     1      -5.882   9.304  68.393  1.00  0.00    -0.041 OA 
HETATM   22  O   UNL     1      -7.614   7.550  68.873  1.00  0.00    -0.100 OA 
BRANCH  20  23
HETATM   23  N   UNL     1      -7.824   9.747  69.984  1.00  0.00    -0.164 N  
HETATM   24  H   UNL     1      -7.885  10.764  69.933  1.00  0.00     0.000 HD 
BRANCH  23  25
HETATM   25  C   UNL     1      -8.217   9.138  71.162  1.00  0.00    -0.087 C  
HETATM   26  O   UNL     1      -7.454   8.912  72.087  1.00  0.00    -0.328 OA 
BRANCH  25  27
HETATM   27  N   UNL     1      -9.549   8.833  71.197  1.00  0.00    -0.218 N  
HETATM   28  H   UNL     1     -10.210   9.399  70.666  1.00  0.00     0.000 HD 
BRANCH  27  29
HETATM   29  C   UNL     1     -10.035   7.705  71.987  1.00  0.00    -0.175 C  
HETATM   30  C   UNL     1     -11.320   8.062  72.742  1.00  0.00    -0.439 C  
HETATM   31  C   UNL     1     -12.551   8.117  71.839  1.00  0.00    -0.368 C  
HETATM   32  C   UNL     1     -12.711   6.838  71.024  1.00  0.00    -0.197 C  
HETATM   33  C   UNL     1     -11.451   6.518  70.227  1.00  0.00    -0.474 C  
HETATM   34  C   UNL     1     -10.219   6.446  71.128  1.00  0.00    -0.224 C  
ENDBRANCH  27  29
ENDBRANCH  25  27
ENDBRANCH  23  25
ENDBRANCH  20  23
ENDBRANCH  17  20
ENDBRANCH  13  14
ENDBRANCH  12  13
ENDBRANCH  10  12
ENDBRANCH   5   8
TORSDOF 9
ENDMDL
MODEL       96
REMARK 921   NORMALIZED FREE ENERGY PREDICTED BY IDOCK:   -5.68 KCAL/MOL
REMARK 922        TOTAL FREE ENERGY PREDICTED BY IDOCK:  -10.16 KCAL/MOL
REMARK 923 INTER-LIGAND FREE ENERGY PREDICTED BY IDOCK:   -8.33 KCAL/MOL
REMARK 924 INTRA-LIGAND FREE ENERGY PREDICTED BY IDOCK:   -1.83 KCAL/MOL
REMARK 927      BINDING AFFINITY PREDICTED BY RF-SCORE:    0.00 PKD
ROOT
HETATM    1  C   UNL     1      -9.885   6.277  72.858  1.00  0.00    -0.174 C  
HETATM    2  C   UNL     1     -10.673   7.464  72.401  1.00  0.00    -0.253 A  
HETATM    3  N   UNL     1      -9.987   8.515  71.888  1.00  0.00    -0.265 NA 
HETATM    4  C   UNL     1     -10.735   9.585  71.518  1.00  0.00    -0.198 A  
HETATM    5  C   UNL     1     -12.115   9.608  71.647  1.00  0.00    -0.402 A  
HETATM    6  C   UNL     1     -12.064   7.490  72.514  1.00  0.00    -0.116 A  
HETATM    7  N   UNL     1     -12.823   8.553  72.145  1.00  0.00    -0.359 NA 
ENDROOT
BRANCH   5   8
HETATM    8  C   UNL     1     -12.863  10.838  71.269  1.00  0.00    -0.438 C  
HETATM    9  O   UNL     1     -13.260  11.004  70.121  1.00  0.00     0.054 OA 
HETATM   10  N   UNL     1     -13.049  11.760  72.282  1.00  0.00    -0.395 N  
HETATM   11  H   UNL     1     -12.765  11.521  73.231  1.00  0.00     0.000 HD 
BRANCH  10  12
HETATM   12  C   UNL     1     -13.639  13.059  72.024  1.00  0.00    -0.441 C  
BRANCH  12  13
HETATM   13  C   UNL     1     -12.607  14.199  72.024  1.00  0.00    -0.348 C  
BRANCH  13  14
HETATM   14  C   UNL     1     -12.066  14.563  70.654  1.00  0.00    -0.392 A  
HETATM   15  C   UNL     1     -12.679  14.110  69.476  1.00  0.00     0.189 A  
HETATM   16  C   UNL     1     -12.145  14.414  68.222  1.00  0.00    -0.260 A  
HETATM   17  C   UNL     1     -11.021  15.231  68.124  1.00  0.00    -0.292 A  
HETATM   18  C   UNL     1     -10.421  15.736  69.282  1.00  0.00    -0.247 A  
HETATM   19  C   UNL     1     -10.947  15.408  70.537  1.00  0.00    -0.350 A  
BRANCH  17  20
HETATM   20  S   UNL     1     -10.278  15.496  66.531  1.00  0.00    -0.296 S  
HETATM   21  O   UNL     1      -8.898  15.068  66.576  1.00  0.00    -0.273 OA 
HETATM   22  O   UNL     1     -10.610  16.847  66.121  1.00  0.00    -0.285 OA 
BRANCH  20  23
HETATM   23  N   UNL     1     -11.139  14.516  65.496  1.00  0.00    -0.326 N  
HETATM   24  H   UNL     1     -12.094  14.793  65.266  1.00  0.00     0.000 HD 
BRANCH  23  25
HETATM   25  C   UNL     1     -10.652  13.354  64.927  1.00  0.00    -0.385 C  
HETATM   26  O   UNL     1     -10.091  13.322  63.844  1.00  0.00    -0.274 OA 
BRANCH  25  27
HETATM   27  N   UNL     1     -10.841  12.247  65.706  1.00  0.00    -0.269 N  
HETATM   28  H   UNL     1     -11.743  11.771  65.695  1.00  0.00     0.000 HD 
BRANCH  27  29
HETATM   29  C   UNL     1      -9.766  11.739  66.553  1.00  0.00    -0.206 C  
HETATM   30  C   UNL     1     -10.303  11.235  67.898  1.00  0.00    -0.205 C  
HETATM   31  C   UNL     1     -11.020   9.891  67.792  1.00  0.00    -0.278 C  
HETATM   32  C   UNL     1     -10.154   8.843  67.101  1.00  0.00    -0.316 C  
HETATM   33  C   UNL     1      -9.671   9.324  65.737  1.00  0.00    -0.339 C  
HETATM   34  C   UNL     1      -8.939  10.661  65.839  1.00  0.00    -0.192 C  
ENDBRANCH  27  29
ENDBRANCH  25  27
ENDBRANCH  23  25
ENDBRANCH  20  23
ENDBRANCH  17  20
ENDBRANCH  13  14
ENDBRANCH  12  13
ENDBRANCH  10  12
ENDBRANCH   5   8
TORSDOF 9
ENDMDL
MODEL       97
REMARK 921   NORMALIZED FREE ENERGY PREDICTED BY IDOCK:   -5.67 KCAL/MOL
REMARK 922        TOTAL FREE ENERGY PREDICTED BY IDOCK:  -10.14 KCAL/MOL
REMARK 923 INTER-LIGAND FREE ENERGY PREDICTED BY IDOCK:   -8.78 KCAL/MOL
REMARK 924 INTRA-LIGAND FREE ENERGY PREDICTED BY IDOCK:   -1.36 KCAL/MOL
REMARK 927      BINDING AFFINITY PREDICTED BY RF-SCORE:    0.00 PKD
ROOT
HETATM    1  C   UNL     1     -11.804  14.285  64.795  1.00  0.00    -0.436 C  
HETATM    2  C   UNL     1     -11.001  13.025  64.708  1.00  0.00    -0.327 A  
HETATM    3  N   UNL     1     -10.863  12.452  63.487  1.00  0.00    -0.454 NA 
HETATM    4  C   UNL     1     -10.158  11.293  63.454  1.00  0.00    -0.400 A  
HETATM    5  C   UNL     1      -9.605  10.727  64.594  1.00  0.00    -0.268 A  
HETATM    6  C   UNL     1     -10.429  12.457  65.847  1.00  0.00    -0.256 A  
HETATM    7  N   UNL     1      -9.719  11.299  65.827  1.00  0.00    -0.218 NA 
ENDROOT
BRANCH   5   8
HETATM    8  C   UNL     1      -8.890   9.425  64.489  1.00  0.00    -0.198 C  
HETATM    9  O   UNL     1      -8.350   9.089  63.440  1.00  0.00    -0.178 OA 
HETATM   10  N   UNL     1      -8.903   8.642  65.627  1.00  0.00    -0.185 N  
HETATM   11  H   UNL     1      -9.300   9.020  66.487  1.00  0.00     0.000 HD 
BRANCH  10  12
HETATM   12  C   UNL     1      -8.365   7.296  65.627  1.00  0.00    -0.140 C  
BRANCH  12  13
HETATM   13  C   UNL     1      -8.064   6.769  67.039  1.00  0.00    -0.109 C  
BRANCH  13  14
HETATM   14  C   UNL     1      -9.043   7.223  68.107  1.00  0.00    -0.134 A  
HETATM   15  C   UNL     1     -10.359   6.740  68.152  1.00  0.00    -0.219 A  
HETATM   16  C   UNL     1     -11.263   7.201  69.111  1.00  0.00    -0.005 A  
HETATM   17  C   UNL     1     -10.846   8.108  70.082  1.00  0.00    -0.241 A  
HETATM   18  C   UNL     1      -9.525   8.567  70.088  1.00  0.00    -0.169 A  
HETATM   19  C   UNL     1      -8.630   8.120  69.109  1.00  0.00    -0.136 A  
BRANCH  17  20
HETATM   20  S   UNL     1     -12.044   8.783  71.210  1.00  0.00    -0.283 S  
HETATM   21  O   UNL     1     -11.361   9.266  72.390  1.00  0.00    -0.037 OA 
HETATM   22  O   UNL     1     -13.114   7.812  71.332  1.00  0.00    -0.321 OA 
BRANCH  20  23
HETATM   23  N   UNL     1     -12.724  10.061  70.387  1.00  0.00    -0.539 N  
HETATM   24  H   UNL     1     -13.686   9.959  70.064  1.00  0.00     0.000 HD 
BRANCH  23  25
HETATM   25  C   UNL     1     -12.076  11.251  70.111  1.00  0.00    -0.366 C  
HETATM   26  O   UNL     1     -11.434  11.444  69.092  1.00  0.00    -0.242 OA 
BRANCH  25  27
HETATM   27  N   UNL     1     -12.243  12.199  71.083  1.00  0.00    -0.301 N  
HETATM   28  H   UNL     1     -11.753  12.100  71.972  1.00  0.00     0.000 HD 
BRANCH  27  29
HETATM   29  C   UNL     1     -13.114  13.349  70.861  1.00  0.00    -0.041 C  
HETATM   30  C   UNL     1     -13.820  13.774  72.153  1.00  0.00    -0.649 C  
HETATM   31  C   UNL     1     -12.899  14.506  73.128  1.00  0.00    -0.547 C  
HETATM   32  C   UNL     1     -12.188  15.678  72.460  1.00  0.00    -0.539 C  
HETATM   33  C   UNL     1     -11.437  15.240  71.208  1.00  0.00    -0.431 C  
HETATM   34  C   UNL     1     -12.356  14.521  70.222  1.00  0.00    -0.408 C  
ENDBRANCH  27  29
ENDBRANCH  25  27
ENDBRANCH  23  25
ENDBRANCH  20  23
ENDBRANCH  17  20
ENDBRANCH  13  14
ENDBRANCH  12  13
ENDBRANCH  10  12
ENDBRANCH   5   8
TORSDOF 9
ENDMDL
MODEL       98
REMARK 921   NORMALIZED FREE ENERGY PREDICTED BY IDOCK:   -5.59 KCAL/MOL
REMARK 922        TOTAL FREE ENERGY PREDICTED BY IDOCK:  -10.03 KCAL/MOL
REMARK 923 INTER-LIGAND FREE ENERGY PREDICTED BY IDOCK:   -8.64 KCAL/MOL
REMARK 924 INTRA-LIGAND FREE ENERGY PREDICTED BY IDOCK:   -1.39 KCAL/MOL
REMARK 927      BINDING AFFINITY PREDICTED BY RF-SCORE:    0.00 PKD
ROOT
HETATM    1  C   UNL     1     -12.777  13.406  65.391  1.00  0.00    -0.484 C  
HETATM    2  C   UNL     1     -11.704  12.448  64.981  1.00  0.00    -0.371 A  
HETATM    3  N   UNL     1     -11.155  11.669  65.947  1.00  0.00    -0.292 NA 
HETATM    4  C   UNL     1     -10.161  10.838  65.542  1.00  0.00    -0.266 A  
HETATM    5  C   UNL     1      -9.733  10.778  64.225  1.00  0.00    -0.302 A  
HETATM    6  C   UNL     1     -11.277  12.370  63.655  1.00  0.00    -0.474 A  
HETATM    7  N   UNL     1     -10.286  11.540  63.238  1.00  0.00    -0.388 NA 
ENDROOT
BRANCH   5   8
HETATM    8  C   UNL     1      -8.601   9.880  63.866  1.00  0.00    -0.195 C  
HETATM    9  O   UNL     1      -7.723  10.253  63.095  1.00  0.00    -0.150 OA 
HETATM   10  N   UNL     1      -8.631   8.622  64.438  1.00  0.00    -0.368 N  
HETATM   11  H   UNL     1      -9.346   8.408  65.133  1.00  0.00     0.000 HD 
BRANCH  10  12
HETATM   12  C   UNL     1      -7.669   7.601  64.072  1.00  0.00    -0.126 C  
BRANCH  12  13
HETATM   13  C   UNL     1      -8.139   6.180  64.425  1.00  0.00    -0.102 C  
BRANCH  13  14
HETATM   14  C   UNL     1      -8.564   5.993  65.870  1.00  0.00    -0.150 A  
HETATM   15  C   UNL     1      -9.830   5.491  66.206  1.00  0.00    -0.173 A  
HETATM   16  C   UNL     1     -10.227   5.367  67.539  1.00  0.00    -0.243 A  
HETATM   17  C   UNL     1      -9.337   5.688  68.562  1.00  0.00    -0.123 A  
HETATM   18  C   UNL     1      -8.052   6.144  68.253  1.00  0.00    -0.111 A  
HETATM   19  C   UNL     1      -7.669   6.288  66.915  1.00  0.00    -0.100 A  
BRANCH  17  20
HETATM   20  S   UNL     1      -9.905   5.652  70.246  1.00  0.00    -0.208 S  
HETATM   21  O   UNL     1      -9.020   6.456  71.060  1.00  0.00    -0.145 OA 
HETATM   22  O   UNL     1     -10.150   4.264  70.588  1.00  0.00    -0.190 OA 
BRANCH  20  23
HETATM   23  N   UNL     1     -11.416   6.348  70.197  1.00  0.00    -0.413 N  
HETATM   24  H   UNL     1     -11.925   6.315  69.313  1.00  0.00     0.000 HD 
BRANCH  23  25
HETATM   25  C   UNL     1     -12.030   6.970  71.269  1.00  0.00    -0.346 C  
HETATM   26  O   UNL     1     -12.147   6.452  72.367  1.00  0.00    -0.241 OA 
BRANCH  25  27
HETATM   27  N   UNL     1     -12.474   8.231  70.984  1.00  0.00    -0.493 N  
HETATM   28  H   UNL     1     -13.298   8.354  70.395  1.00  0.00     0.000 HD 
BRANCH  27  29
HETATM   29  C   UNL     1     -11.783   9.403  71.513  1.00  0.00    -0.394 C  
HETATM   30  C   UNL     1     -10.290   9.374  71.170  1.00  0.00    -0.377 C  
HETATM   31  C   UNL     1     -10.003   9.715  69.708  1.00  0.00    -0.252 C  
HETATM   32  C   UNL     1     -10.653  11.032  69.298  1.00  0.00    -0.236 C  
HETATM   33  C   UNL     1     -12.150  11.034  69.586  1.00  0.00    -0.411 C  
HETATM   34  C   UNL     1     -12.442  10.709  71.050  1.00  0.00    -0.515 C  
ENDBRANCH  27  29
ENDBRANCH  25  27
ENDBRANCH  23  25
ENDBRANCH  20  23
ENDBRANCH  17  20
ENDBRANCH  13  14
ENDBRANCH  12  13
ENDBRANCH  10  12
ENDBRANCH   5   8
TORSDOF 9
ENDMDL
MODEL       99
REMARK 921   NORMALIZED FREE ENERGY PREDICTED BY IDOCK:   -5.59 KCAL/MOL
REMARK 922        TOTAL FREE ENERGY PREDICTED BY IDOCK:  -10.03 KCAL/MOL
REMARK 923 INTER-LIGAND FREE ENERGY PREDICTED BY IDOCK:   -8.83 KCAL/MOL
REMARK 924 INTRA-LIGAND FREE ENERGY PREDICTED BY IDOCK:   -1.20 KCAL/MOL
REMARK 927      BINDING AFFINITY PREDICTED BY RF-SCORE:    0.00 PKD
ROOT
HETATM    1  C   UNL     1      -7.078  20.545  66.660  1.00  0.00    -0.313 C  
HETATM    2  C   UNL     1      -7.946  19.337  66.815  1.00  0.00    -0.271 A  
HETATM    3  N   UNL     1      -7.906  18.403  65.831  1.00  0.00    -0.509 NA 
HETATM    4  C   UNL     1      -8.733  17.339  65.991  1.00  0.00    -0.090 A  
HETATM    5  C   UNL     1      -9.565  17.205  67.092  1.00  0.00    -0.255 A  
HETATM    6  C   UNL     1      -8.777  19.185  67.926  1.00  0.00    -0.305 A  
HETATM    7  N   UNL     1      -9.606  18.124  68.099  1.00  0.00    -0.294 NA 
ENDROOT
BRANCH   5   8
HETATM    8  C   UNL     1     -10.484  16.036  67.172  1.00  0.00    -0.308 C  
HETATM    9  O   UNL     1     -11.316  15.829  66.295  1.00  0.00    -0.067 OA 
HETATM   10  N   UNL     1     -10.342  15.239  68.292  1.00  0.00    -0.231 N  
HETATM   11  H   UNL     1      -9.576  15.422  68.940  1.00  0.00     0.000 HD 
BRANCH  10  12
HETATM   12  C   UNL     1     -11.257  14.149  68.568  1.00  0.00    -0.260 C  
BRANCH  12  13
HETATM   13  C   UNL     1     -11.782  14.156  70.013  1.00  0.00    -0.358 C  
BRANCH  13  14
HETATM   14  C   UNL     1     -12.163  12.790  70.555  1.00  0.00    -0.389 A  
HETATM   15  C   UNL     1     -11.553  11.616  70.089  1.00  0.00    -0.303 A  
HETATM   16  C   UNL     1     -11.946  10.363  70.562  1.00  0.00    -0.427 A  
HETATM   17  C   UNL     1     -12.914  10.267  71.559  1.00  0.00    -0.453 A  
HETATM   18  C   UNL     1     -13.502  11.425  72.075  1.00  0.00    -0.289 A  
HETATM   19  C   UNL     1     -13.121  12.678  71.579  1.00  0.00    -0.373 A  
BRANCH  17  20
HETATM   20  S   UNL     1     -13.495   8.660  72.051  1.00  0.00    -0.415 S  
HETATM   21  O   UNL     1     -14.153   8.032  70.927  1.00  0.00    -0.038 OA 
HETATM   22  O   UNL     1     -14.197   8.824  73.310  1.00  0.00    -0.210 OA 
BRANCH  20  23
HETATM   23  N   UNL     1     -12.115   7.815  72.442  1.00  0.00    -0.495 N  
HETATM   24  H   UNL     1     -11.450   8.260  73.075  1.00  0.00     0.000 HD 
BRANCH  23  25
HETATM   25  C   UNL     1     -11.807   6.552  71.970  1.00  0.00    -0.329 C  
HETATM   26  O   UNL     1     -11.733   5.568  72.687  1.00  0.00    -0.293 OA 
BRANCH  25  27
HETATM   27  N   UNL     1     -11.614   6.511  70.617  1.00  0.00    -0.371 N  
HETATM   28  H   UNL     1     -12.282   6.013  70.028  1.00  0.00     0.000 HD 
BRANCH  27  29
HETATM   29  C   UNL     1     -10.464   7.171  70.007  1.00  0.00    -0.221 C  
HETATM   30  C   UNL     1      -9.223   6.271  70.034  1.00  0.00    -0.157 C  
HETATM   31  C   UNL     1      -9.276   5.145  69.003  1.00  0.00    -0.156 C  
HETATM   32  C   UNL     1      -9.561   5.674  67.602  1.00  0.00    -0.126 C  
HETATM   33  C   UNL     1     -10.829   6.519  67.567  1.00  0.00    -0.433 C  
HETATM   34  C   UNL     1     -10.775   7.657  68.585  1.00  0.00    -0.095 C  
ENDBRANCH  27  29
ENDBRANCH  25  27
ENDBRANCH  23  25
ENDBRANCH  20  23
ENDBRANCH  17  20
ENDBRANCH  13  14
ENDBRANCH  12  13
ENDBRANCH  10  12
ENDBRANCH   5   8
TORSDOF 9
ENDMDL
MODEL      100
REMARK 921   NORMALIZED FREE ENERGY PREDICTED BY IDOCK:   -5.58 KCAL/MOL
REMARK 922        TOTAL FREE ENERGY PREDICTED BY IDOCK:  -10.01 KCAL/MOL
REMARK 923 INTER-LIGAND FREE ENERGY PREDICTED BY IDOCK:   -8.73 KCAL/MOL
REMARK 924 INTRA-LIGAND FREE ENERGY PREDICTED BY IDOCK:   -1.28 KCAL/MOL
REMARK 927      BINDING AFFINITY PREDICTED BY RF-SCORE:    0.00 PKD
ROOT
HETATM    1  C   UNL     1      -9.208   2.157  68.634  1.00  0.00    -0.226 C  
HETATM    2  C   UNL     1      -8.683   3.001  67.516  1.00  0.00    -0.119 A  
HETATM    3  N   UNL     1      -7.362   3.311  67.530  1.00  0.00    -0.058 NA 
HETATM    4  C   UNL     1      -6.931   4.105  66.518  1.00  0.00    -0.059 A  
HETATM    5  C   UNL     1      -7.780   4.571  65.525  1.00  0.00    -0.090 A  
HETATM    6  C   UNL     1      -9.526   3.461  66.505  1.00  0.00    -0.123 A  
HETATM    7  N   UNL     1      -9.107   4.255  65.486  1.00  0.00    -0.131 NA 
ENDROOT
BRANCH   5   8
HETATM    8  C   UNL     1      -7.245   5.483  64.477  1.00  0.00    -0.055 C  
HETATM    9  O   UNL     1      -6.060   5.456  64.167  1.00  0.00    -0.021 OA 
HETATM   10  N   UNL     1      -8.162   6.351  63.915  1.00  0.00    -0.306 N  
HETATM   11  H   UNL     1      -9.148   6.263  64.162  1.00  0.00     0.000 HD 
BRANCH  10  12
HETATM   12  C   UNL     1      -7.756   7.384  62.983  1.00  0.00    -0.129 C  
BRANCH  12  13
HETATM   13  C   UNL     1      -7.383   8.705  63.675  1.00  0.00    -0.104 C  
BRANCH  13  14
HETATM   14  C   UNL     1      -8.538   9.673  63.858  1.00  0.00    -0.217 A  
HETATM   15  C   UNL     1      -9.358   9.633  64.996  1.00  0.00    -0.319 A  
HETATM   16  C   UNL     1     -10.446  10.497  65.131  1.00  0.00    -0.225 A  
HETATM   17  C   UNL     1     -10.695  11.461  64.156  1.00  0.00    -0.371 A  
HETATM   18  C   UNL     1      -9.863  11.553  63.037  1.00  0.00    -0.367 A  
HETATM   19  C   UNL     1      -8.788  10.667  62.895  1.00  0.00    -0.252 A  
BRANCH  17  20
HETATM   20  S   UNL     1     -12.159  12.461  64.280  1.00  0.00    -0.445 S  
HETATM   21  O   UNL     1     -12.504  12.622  65.676  1.00  0.00    -0.622 OA 
HETATM   22  O   UNL     1     -13.129  11.920  63.347  1.00  0.00    -0.710 OA 
BRANCH  20  23
HETATM   23  N   UNL     1     -11.723  13.931  63.633  1.00  0.00    -0.635 N  
HETATM   24  H   UNL     1     -11.329  13.936  62.691  1.00  0.00     0.000 HD 
BRANCH  23  25
HETATM   25  C   UNL     1     -11.854  15.145  64.281  1.00  0.00    -0.251 C  
HETATM   26  O   UNL     1     -12.394  16.118  63.780  1.00  0.00    -0.864 OA 
BRANCH  25  27
HETATM   27  N   UNL     1     -11.340  15.143  65.548  1.00  0.00    -0.314 N  
HETATM   28  H   UNL     1     -11.955  14.961  66.341  1.00  0.00     0.000 HD 
BRANCH  27  29
HETATM   29  C   UNL     1      -9.921  15.399  65.777  1.00  0.00    -0.362 C  
HETATM   30  C   UNL     1      -9.687  16.816  66.314  1.00  0.00    -0.318 C  
HETATM   31  C   UNL     1     -10.077  16.973  67.782  1.00  0.00    -0.302 C  
HETATM   32  C   UNL     1      -9.411  15.918  68.659  1.00  0.00    -0.212 C  
HETATM   33  C   UNL     1      -9.695  14.507  68.157  1.00  0.00    -0.219 C  
HETATM   34  C   UNL     1      -9.293  14.340  66.693  1.00  0.00    -0.302 C  
ENDBRANCH  27  29
ENDBRANCH  25  27
ENDBRANCH  23  25
ENDBRANCH  20  23
ENDBRANCH  17  20
ENDBRANCH  13  14
ENDBRANCH  12  13
ENDBRANCH  10  12
ENDBRANCH   5   8
TORSDOF 9
ENDMDL
MODEL      101
REMARK 921   NORMALIZED FREE ENERGY PREDICTED BY IDOCK:   -5.56 KCAL/MOL
REMARK 922        TOTAL FREE ENERGY PREDICTED BY IDOCK:   -9.99 KCAL/MOL
REMARK 923 INTER-LIGAND FREE ENERGY PREDICTED BY IDOCK:   -8.79 KCAL/MOL
REMARK 924 INTRA-LIGAND FREE ENERGY PREDICTED BY IDOCK:   -1.19 KCAL/MOL
REMARK 927      BINDING AFFINITY PREDICTED BY RF-SCORE:    0.00 PKD
ROOT
HETATM    1  C   UNL     1      -8.467  20.668  67.508  1.00  0.00    -0.252 C  
HETATM    2  C   UNL     1      -9.049  19.326  67.193  1.00  0.00    -0.299 A  
HETATM    3  N   UNL     1     -10.107  18.911  67.933  1.00  0.00    -0.352 NA 
HETATM    4  C   UNL     1     -10.585  17.675  67.640  1.00  0.00    -0.362 A  
HETATM    5  C   UNL     1     -10.036  16.883  66.644  1.00  0.00    -0.296 A  
HETATM    6  C   UNL     1      -8.512  18.528  66.182  1.00  0.00    -0.130 A  
HETATM    7  N   UNL     1      -8.983  17.291  65.878  1.00  0.00    -0.531 NA 
ENDROOT
BRANCH   5   8
HETATM    8  C   UNL     1     -10.580  15.516  66.416  1.00  0.00    -0.311 C  
HETATM    9  O   UNL     1     -10.622  15.037  65.288  1.00  0.00    -0.336 OA 
HETATM   10  N   UNL     1     -11.040  14.860  67.542  1.00  0.00    -0.307 N  
HETATM   11  H   UNL     1     -10.899  15.284  68.458  1.00  0.00     0.000 HD 
BRANCH  10  12
HETATM   12  C   UNL     1     -11.718  13.582  67.450  1.00  0.00    -0.380 C  
BRANCH  12  13
HETATM   13  C   UNL     1     -10.770  12.384  67.630  1.00  0.00    -0.248 C  
BRANCH  13  14
HETATM   14  C   UNL     1     -11.211  11.380  68.681  1.00  0.00    -0.303 A  
HETATM   15  C   UNL     1     -12.157  11.710  69.662  1.00  0.00    -0.345 A  
HETATM   16  C   UNL     1     -12.520  10.793  70.651  1.00  0.00    -0.461 A  
HETATM   17  C   UNL     1     -11.986   9.506  70.636  1.00  0.00    -0.197 A  
HETATM   18  C   UNL     1     -11.078   9.138  69.638  1.00  0.00    -0.103 A  
HETATM   19  C   UNL     1     -10.700  10.070  68.664  1.00  0.00    -0.256 A  
BRANCH  17  20
HETATM   20  S   UNL     1     -12.356   8.399  71.977  1.00  0.00    -0.384 S  
HETATM   21  O   UNL     1     -12.857   7.154  71.436  1.00  0.00    -0.376 OA 
HETATM   22  O   UNL     1     -13.140   9.142  72.944  1.00  0.00    -0.304 OA 
BRANCH  20  23
HETATM   23  N   UNL     1     -10.892   8.140  72.726  1.00  0.00    -0.358 N  
HETATM   24  H   UNL     1     -10.254   8.932  72.807  1.00  0.00     0.000 HD 
BRANCH  23  25
HETATM   25  C   UNL     1     -10.479   6.927  73.247  1.00  0.00    -0.312 C  
HETATM   26  O   UNL     1     -10.304   6.734  74.438  1.00  0.00    -0.340 OA 
BRANCH  25  27
HETATM   27  N   UNL     1     -10.309   5.959  72.297  1.00  0.00    -0.193 N  
HETATM   28  H   UNL     1     -11.032   5.252  72.161  1.00  0.00     0.000 HD 
BRANCH  27  29
HETATM   29  C   UNL     1      -9.103   5.925  71.475  1.00  0.00    -0.143 C  
HETATM   30  C   UNL     1      -8.319   4.624  71.684  1.00  0.00    -0.105 C  
HETATM   31  C   UNL     1      -8.963   3.419  71.003  1.00  0.00    -0.161 C  
HETATM   32  C   UNL     1      -9.235   3.683  69.527  1.00  0.00    -0.225 C  
HETATM   33  C   UNL     1     -10.067   4.945  69.325  1.00  0.00    -0.248 C  
HETATM   34  C   UNL     1      -9.419   6.158  69.991  1.00  0.00    -0.172 C  
ENDBRANCH  27  29
ENDBRANCH  25  27
ENDBRANCH  23  25
ENDBRANCH  20  23
ENDBRANCH  17  20
ENDBRANCH  13  14
ENDBRANCH  12  13
ENDBRANCH  10  12
ENDBRANCH   5   8
TORSDOF 9
ENDMDL
MODEL      102
REMARK 921   NORMALIZED FREE ENERGY PREDICTED BY IDOCK:   -5.56 KCAL/MOL
REMARK 922        TOTAL FREE ENERGY PREDICTED BY IDOCK:   -9.99 KCAL/MOL
REMARK 923 INTER-LIGAND FREE ENERGY PREDICTED BY IDOCK:   -8.59 KCAL/MOL
REMARK 924 INTRA-LIGAND FREE ENERGY PREDICTED BY IDOCK:   -1.40 KCAL/MOL
REMARK 927      BINDING AFFINITY PREDICTED BY RF-SCORE:    0.00 PKD
ROOT
HETATM    1  C   UNL     1     -11.900   6.387  71.987  1.00  0.00    -0.382 C  
HETATM    2  C   UNL     1     -12.116   7.851  71.768  1.00  0.00    -0.303 A  
HETATM    3  N   UNL     1     -11.090   8.567  71.245  1.00  0.00    -0.249 NA 
HETATM    4  C   UNL     1     -11.313   9.897  71.095  1.00  0.00    -0.370 A  
HETATM    5  C   UNL     1     -12.514  10.493  71.446  1.00  0.00    -0.411 A  
HETATM    6  C   UNL     1     -13.327   8.457  72.105  1.00  0.00    -0.315 A  
HETATM    7  N   UNL     1     -13.563   9.786  71.957  1.00  0.00    -0.386 NA 
ENDROOT
BRANCH   5   8
HETATM    8  C   UNL     1     -12.667  11.967  71.302  1.00  0.00    -0.279 C  
HETATM    9  O   UNL     1     -13.509  12.578  71.951  1.00  0.00    -0.433 OA 
HETATM   10  N   UNL     1     -11.823  12.569  70.388  1.00  0.00    -0.550 N  
HETATM   11  H   UNL     1     -11.092  12.014  69.944  1.00  0.00     0.000 HD 
BRANCH  10  12
HETATM   12  C   UNL     1     -11.952  13.972  70.047  1.00  0.00    -0.339 C  
BRANCH  12  13
HETATM   13  C   UNL     1     -12.089  14.213  68.535  1.00  0.00    -0.312 C  
BRANCH  13  14
HETATM   14  C   UNL     1     -11.251  13.291  67.668  1.00  0.00    -0.307 A  
HETATM   15  C   UNL     1     -11.839  12.386  66.772  1.00  0.00    -0.385 A  
HETATM   16  C   UNL     1     -11.058  11.512  66.014  1.00  0.00    -0.289 A  
HETATM   17  C   UNL     1      -9.669  11.571  66.094  1.00  0.00    -0.223 A  
HETATM   18  C   UNL     1      -9.057  12.499  66.943  1.00  0.00    -0.213 A  
HETATM   19  C   UNL     1      -9.846  13.356  67.719  1.00  0.00    -0.234 A  
BRANCH  17  20
HETATM   20  S   UNL     1      -8.698  10.362  65.225  1.00  0.00    -0.185 S  
HETATM   21  O   UNL     1      -7.354  10.363  65.760  1.00  0.00    -0.137 OA 
HETATM   22  O   UNL     1      -8.918  10.573  63.807  1.00  0.00    -0.187 OA 
BRANCH  20  23
HETATM   23  N   UNL     1      -9.438   8.909  65.557  1.00  0.00    -0.443 N  
HETATM   24  H   UNL     1     -10.456   8.899  65.621  1.00  0.00     0.000 HD 
BRANCH  23  25
HETATM   25  C   UNL     1      -8.770   7.714  65.753  1.00  0.00    -0.125 C  
HETATM   26  O   UNL     1      -8.001   7.234  64.937  1.00  0.00    -0.120 OA 
BRANCH  25  27
HETATM   27  N   UNL     1      -9.039   7.133  66.961  1.00  0.00    -0.130 N  
HETATM   28  H   UNL     1      -8.356   7.200  67.716  1.00  0.00     0.000 HD 
BRANCH  27  29
HETATM   29  C   UNL     1     -10.293   6.419  67.183  1.00  0.00    -0.232 C  
HETATM   30  C   UNL     1     -10.484   5.294  66.161  1.00  0.00    -0.259 C  
HETATM   31  C   UNL     1      -9.603   4.077  66.435  1.00  0.00    -0.217 C  
HETATM   32  C   UNL     1      -9.763   3.575  67.866  1.00  0.00    -0.085 C  
HETATM   33  C   UNL     1      -9.512   4.683  68.882  1.00  0.00    -0.218 C  
HETATM   34  C   UNL     1     -10.403   5.897  68.622  1.00  0.00    -0.271 C  
ENDBRANCH  27  29
ENDBRANCH  25  27
ENDBRANCH  23  25
ENDBRANCH  20  23
ENDBRANCH  17  20
ENDBRANCH  13  14
ENDBRANCH  12  13
ENDBRANCH  10  12
ENDBRANCH   5   8
TORSDOF 9
ENDMDL
MODEL      103
REMARK 921   NORMALIZED FREE ENERGY PREDICTED BY IDOCK:   -5.54 KCAL/MOL
REMARK 922        TOTAL FREE ENERGY PREDICTED BY IDOCK:   -9.95 KCAL/MOL
REMARK 923 INTER-LIGAND FREE ENERGY PREDICTED BY IDOCK:   -8.76 KCAL/MOL
REMARK 924 INTRA-LIGAND FREE ENERGY PREDICTED BY IDOCK:   -1.19 KCAL/MOL
REMARK 927      BINDING AFFINITY PREDICTED BY RF-SCORE:    0.00 PKD
ROOT
HETATM    1  C   UNL     1     -11.939  13.129  63.637  1.00  0.00    -0.580 C  
HETATM    2  C   UNL     1     -11.065  12.010  64.106  1.00  0.00    -0.368 A  
HETATM    3  N   UNL     1     -11.197  11.608  65.395  1.00  0.00    -0.246 NA 
HETATM    4  C   UNL     1     -10.363  10.614  65.793  1.00  0.00    -0.219 A  
HETATM    5  C   UNL     1      -9.435  10.036  64.938  1.00  0.00    -0.293 A  
HETATM    6  C   UNL     1     -10.140  11.412  63.250  1.00  0.00    -0.387 A  
HETATM    7  N   UNL     1      -9.302  10.415  63.635  1.00  0.00    -0.267 NA 
ENDROOT
BRANCH   5   8
HETATM    8  C   UNL     1      -8.517   8.987  65.461  1.00  0.00    -0.144 C  
HETATM    9  O   UNL     1      -7.343   9.243  65.701  1.00  0.00    -0.091 OA 
HETATM   10  N   UNL     1      -9.074   7.733  65.626  1.00  0.00    -0.388 N  
HETATM   11  H   UNL     1     -10.077   7.610  65.484  1.00  0.00     0.000 HD 
BRANCH  10  12
HETATM   12  C   UNL     1      -8.266   6.588  65.996  1.00  0.00    -0.127 C  
BRANCH  12  13
HETATM   13  C   UNL     1      -9.099   5.417  66.545  1.00  0.00    -0.135 C  
BRANCH  13  14
HETATM   14  C   UNL     1      -9.722   5.666  67.906  1.00  0.00    -0.145 A  
HETATM   15  C   UNL     1     -10.986   6.259  68.040  1.00  0.00    -0.418 A  
HETATM   16  C   UNL     1     -11.528   6.525  69.299  1.00  0.00    -0.307 A  
HETATM   17  C   UNL     1     -10.839   6.144  70.448  1.00  0.00    -0.310 A  
HETATM   18  C   UNL     1      -9.600   5.506  70.340  1.00  0.00    -0.224 A  
HETATM   19  C   UNL     1      -9.051   5.264  69.076  1.00  0.00    -0.141 A  
BRANCH  17  20
HETATM   20  S   UNL     1     -11.482   6.610  72.039  1.00  0.00    -0.305 S  
HETATM   21  O   UNL     1     -10.603   6.105  73.070  1.00  0.00    -0.216 OA 
HETATM   22  O   UNL     1     -12.892   6.268  72.049  1.00  0.00    -0.178 OA 
BRANCH  20  23
HETATM   23  N   UNL     1     -11.451   8.274  72.035  1.00  0.00    -0.309 N  
HETATM   24  H   UNL     1     -12.312   8.766  72.273  1.00  0.00     0.000 HD 
BRANCH  23  25
HETATM   25  C   UNL     1     -10.338   9.038  71.730  1.00  0.00    -0.337 C  
HETATM   26  O   UNL     1      -9.221   8.793  72.155  1.00  0.00    -0.305 OA 
BRANCH  25  27
HETATM   27  N   UNL     1     -10.609  10.082  70.891  1.00  0.00    -0.357 N  
HETATM   28  H   UNL     1      -9.865  10.731  70.636  1.00  0.00     0.000 HD 
BRANCH  27  29
HETATM   29  C   UNL     1     -11.953  10.278  70.355  1.00  0.00    -0.303 C  
HETATM   30  C   UNL     1     -12.852  11.015  71.354  1.00  0.00    -0.548 C  
HETATM   31  C   UNL     1     -12.543  12.507  71.453  1.00  0.00    -0.297 C  
HETATM   32  C   UNL     1     -12.551  13.178  70.084  1.00  0.00    -0.077 C  
HETATM   33  C   UNL     1     -11.609  12.479  69.110  1.00  0.00    -0.375 C  
HETATM   34  C   UNL     1     -11.925  10.988  68.994  1.00  0.00    -0.364 C  
ENDBRANCH  27  29
ENDBRANCH  25  27
ENDBRANCH  23  25
ENDBRANCH  20  23
ENDBRANCH  17  20
ENDBRANCH  13  14
ENDBRANCH  12  13
ENDBRANCH  10  12
ENDBRANCH   5   8
TORSDOF 9
ENDMDL
MODEL      104
REMARK 921   NORMALIZED FREE ENERGY PREDICTED BY IDOCK:   -5.54 KCAL/MOL
REMARK 922        TOTAL FREE ENERGY PREDICTED BY IDOCK:   -9.95 KCAL/MOL
REMARK 923 INTER-LIGAND FREE ENERGY PREDICTED BY IDOCK:   -8.53 KCAL/MOL
REMARK 924 INTRA-LIGAND FREE ENERGY PREDICTED BY IDOCK:   -1.42 KCAL/MOL
REMARK 927      BINDING AFFINITY PREDICTED BY RF-SCORE:    0.00 PKD
ROOT
HETATM    1  C   UNL     1     -13.625  14.095  72.786  1.00  0.00    -0.528 C  
HETATM    2  C   UNL     1     -12.784  14.725  71.722  1.00  0.00    -0.328 A  
HETATM    3  N   UNL     1     -12.130  15.872  72.034  1.00  0.00    -0.460 NA 
HETATM    4  C   UNL     1     -11.405  16.431  71.032  1.00  0.00    -0.166 A  
HETATM    5  C   UNL     1     -11.329  15.869  69.767  1.00  0.00    -0.347 A  
HETATM    6  C   UNL     1     -12.689  14.159  70.450  1.00  0.00    -0.279 A  
HETATM    7  N   UNL     1     -11.965  14.707  69.440  1.00  0.00    -0.314 NA 
ENDROOT
BRANCH   5   8
HETATM    8  C   UNL     1     -10.557  16.568  68.703  1.00  0.00    -0.316 C  
HETATM    9  O   UNL     1     -11.132  17.186  67.814  1.00  0.00    -0.263 OA 
HETATM   10  N   UNL     1      -9.183  16.450  68.785  1.00  0.00    -0.230 N  
HETATM   11  H   UNL     1      -8.770  15.991  69.597  1.00  0.00     0.000 HD 
BRANCH  10  12
HETATM   12  C   UNL     1      -8.314  16.964  67.744  1.00  0.00    -0.194 C  
BRANCH  12  13
HETATM   13  C   UNL     1      -7.898  15.891  66.724  1.00  0.00    -0.273 C  
BRANCH  13  14
HETATM   14  C   UNL     1      -8.269  14.471  67.112  1.00  0.00    -0.214 A  
HETATM   15  C   UNL     1      -9.437  13.858  66.634  1.00  0.00    -0.296 A  
HETATM   16  C   UNL     1      -9.789  12.568  67.035  1.00  0.00    -0.217 A  
HETATM   17  C   UNL     1      -8.945  11.844  67.874  1.00  0.00    -0.179 A  
HETATM   18  C   UNL     1      -7.751  12.415  68.324  1.00  0.00    -0.140 A  
HETATM   19  C   UNL     1      -7.414  13.717  67.938  1.00  0.00    -0.153 A  
BRANCH  17  20
HETATM   20  S   UNL     1      -9.475  10.259  68.479  1.00  0.00    -0.165 S  
HETATM   21  O   UNL     1      -8.321   9.401  68.629  1.00  0.00    -0.114 OA 
HETATM   22  O   UNL     1     -10.595   9.838  67.658  1.00  0.00    -0.242 OA 
BRANCH  20  23
HETATM   23  N   UNL     1     -10.140  10.578  69.971  1.00  0.00    -0.416 N  
HETATM   24  H   UNL     1      -9.596  11.144  70.622  1.00  0.00     0.000 HD 
BRANCH  23  25
HETATM   25  C   UNL     1     -11.379  10.128  70.392  1.00  0.00    -0.326 C  
HETATM   26  O   UNL     1     -12.204  10.845  70.933  1.00  0.00    -0.335 OA 
BRANCH  25  27
HETATM   27  N   UNL     1     -11.597   8.806  70.122  1.00  0.00    -0.462 N  
HETATM   28  H   UNL     1     -11.697   8.498  69.155  1.00  0.00     0.000 HD 
BRANCH  27  29
HETATM   29  C   UNL     1     -11.687   7.829  71.204  1.00  0.00    -0.284 C  
HETATM   30  C   UNL     1     -11.921   6.414  70.663  1.00  0.00    -0.240 C  
HETATM   31  C   UNL     1     -10.670   5.794  70.044  1.00  0.00    -0.400 C  
HETATM   32  C   UNL     1      -9.483   5.845  71.000  1.00  0.00    -0.189 C  
HETATM   33  C   UNL     1      -9.215   7.264  71.489  1.00  0.00    -0.150 C  
HETATM   34  C   UNL     1     -10.459   7.884  72.123  1.00  0.00    -0.308 C  
ENDBRANCH  27  29
ENDBRANCH  25  27
ENDBRANCH  23  25
ENDBRANCH  20  23
ENDBRANCH  17  20
ENDBRANCH  13  14
ENDBRANCH  12  13
ENDBRANCH  10  12
ENDBRANCH   5   8
TORSDOF 9
ENDMDL
MODEL      105
REMARK 921   NORMALIZED FREE ENERGY PREDICTED BY IDOCK:   -5.52 KCAL/MOL
REMARK 922        TOTAL FREE ENERGY PREDICTED BY IDOCK:   -9.92 KCAL/MOL
REMARK 923 INTER-LIGAND FREE ENERGY PREDICTED BY IDOCK:   -8.49 KCAL/MOL
REMARK 924 INTRA-LIGAND FREE ENERGY PREDICTED BY IDOCK:   -1.43 KCAL/MOL
REMARK 927      BINDING AFFINITY PREDICTED BY RF-SCORE:    0.00 PKD
ROOT
HETATM    1  C   UNL     1     -10.415  19.058  65.989  1.00  0.00    -0.530 C  
HETATM    2  C   UNL     1     -10.592  17.587  65.789  1.00  0.00    -0.174 A  
HETATM    3  N   UNL     1     -11.128  17.173  64.614  1.00  0.00    -1.007 NA 
HETATM    4  C   UNL     1     -11.306  15.833  64.484  1.00  0.00    -0.316 A  
HETATM    5  C   UNL     1     -10.958  14.938  65.484  1.00  0.00    -0.350 A  
HETATM    6  C   UNL     1     -10.232  16.677  66.783  1.00  0.00    -0.301 A  
HETATM    7  N   UNL     1     -10.402  15.335  66.665  1.00  0.00    -0.273 NA 
ENDROOT
BRANCH   5   8
HETATM    8  C   UNL     1     -11.232  13.487  65.291  1.00  0.00    -0.292 C  
HETATM    9  O   UNL     1     -11.920  12.866  66.093  1.00  0.00    -0.404 OA 
HETATM   10  N   UNL     1     -10.646  12.910  64.180  1.00  0.00    -0.411 N  
HETATM   11  H   UNL     1     -10.154  13.503  63.512  1.00  0.00     0.000 HD 
BRANCH  10  12
HETATM   12  C   UNL     1     -10.715  11.482  63.942  1.00  0.00    -0.395 C  
BRANCH  12  13
HETATM   13  C   UNL     1      -9.384  10.762  64.217  1.00  0.00    -0.281 C  
BRANCH  13  14
HETATM   14  C   UNL     1      -9.166  10.365  65.666  1.00  0.00    -0.220 A  
HETATM   15  C   UNL     1     -10.194   9.804  66.439  1.00  0.00    -0.288 A  
HETATM   16  C   UNL     1      -9.994   9.486  67.783  1.00  0.00    -0.216 A  
HETATM   17  C   UNL     1      -8.740   9.667  68.362  1.00  0.00    -0.120 A  
HETATM   18  C   UNL     1      -7.685  10.178  67.599  1.00  0.00    -0.091 A  
HETATM   19  C   UNL     1      -7.899  10.518  66.258  1.00  0.00    -0.141 A  
BRANCH  17  20
HETATM   20  S   UNL     1      -8.541   9.383  70.106  1.00  0.00    -0.227 S  
HETATM   21  O   UNL     1      -9.826   9.520  70.755  1.00  0.00    -0.272 OA 
HETATM   22  O   UNL     1      -7.413  10.181  70.545  1.00  0.00    -0.281 OA 
BRANCH  20  23
HETATM   23  N   UNL     1      -8.015   7.807  70.220  1.00  0.00    -0.098 N  
HETATM   24  H   UNL     1      -7.053   7.649  70.518  1.00  0.00     0.000 HD 
BRANCH  23  25
HETATM   25  C   UNL     1      -8.792   6.698  69.938  1.00  0.00    -0.144 C  
HETATM   26  O   UNL     1      -8.630   6.000  68.950  1.00  0.00    -0.115 OA 
BRANCH  25  27
HETATM   27  N   UNL     1      -9.745   6.447  70.885  1.00  0.00    -0.176 N  
HETATM   28  H   UNL     1     -10.725   6.390  70.611  1.00  0.00     0.000 HD 
BRANCH  27  29
HETATM   29  C   UNL     1      -9.374   6.261  72.285  1.00  0.00    -0.145 C  
HETATM   30  C   UNL     1     -10.599   6.329  73.203  1.00  0.00    -0.273 C  
HETATM   31  C   UNL     1     -11.467   5.074  73.140  1.00  0.00    -0.362 C  
HETATM   32  C   UNL     1     -10.650   3.810  73.381  1.00  0.00    -0.279 C  
HETATM   33  C   UNL     1      -9.466   3.715  72.426  1.00  0.00    -0.185 C  
HETATM   34  C   UNL     1      -8.585   4.961  72.496  1.00  0.00    -0.120 C  
ENDBRANCH  27  29
ENDBRANCH  25  27
ENDBRANCH  23  25
ENDBRANCH  20  23
ENDBRANCH  17  20
ENDBRANCH  13  14
ENDBRANCH  12  13
ENDBRANCH  10  12
ENDBRANCH   5   8
TORSDOF 9
ENDMDL
MODEL      106
REMARK 921   NORMALIZED FREE ENERGY PREDICTED BY IDOCK:   -5.52 KCAL/MOL
REMARK 922        TOTAL FREE ENERGY PREDICTED BY IDOCK:   -9.91 KCAL/MOL
REMARK 923 INTER-LIGAND FREE ENERGY PREDICTED BY IDOCK:   -8.86 KCAL/MOL
REMARK 924 INTRA-LIGAND FREE ENERGY PREDICTED BY IDOCK:   -1.05 KCAL/MOL
REMARK 927      BINDING AFFINITY PREDICTED BY RF-SCORE:    0.00 PKD
ROOT
HETATM    1  C   UNL     1     -12.989  15.785  73.802  1.00  0.00    -0.633 C  
HETATM    2  C   UNL     1     -12.579  15.570  72.379  1.00  0.00    -0.400 A  
HETATM    3  N   UNL     1     -11.251  15.533  72.106  1.00  0.00    -0.321 NA 
HETATM    4  C   UNL     1     -10.920  15.371  70.800  1.00  0.00    -0.311 A  
HETATM    5  C   UNL     1     -11.874  15.243  69.803  1.00  0.00    -0.332 A  
HETATM    6  C   UNL     1     -13.532  15.426  71.370  1.00  0.00    -0.522 A  
HETATM    7  N   UNL     1     -13.214  15.260  70.061  1.00  0.00     0.097 NA 
ENDROOT
BRANCH   5   8
HETATM    8  C   UNL     1     -11.435  15.122  68.385  1.00  0.00    -0.332 C  
HETATM    9  O   UNL     1     -10.378  15.616  68.010  1.00  0.00    -0.238 OA 
HETATM   10  N   UNL     1     -12.302  14.446  67.546  1.00  0.00    -0.600 N  
HETATM   11  H   UNL     1     -13.124  13.990  67.942  1.00  0.00     0.000 HD 
BRANCH  10  12
HETATM   12  C   UNL     1     -12.068  14.370  66.118  1.00  0.00    -0.357 C  
BRANCH  12  13
HETATM   13  C   UNL     1     -12.469  13.014  65.515  1.00  0.00    -0.496 C  
BRANCH  13  14
HETATM   14  C   UNL     1     -11.544  11.863  65.870  1.00  0.00    -0.291 A  
HETATM   15  C   UNL     1     -10.699  11.277  64.917  1.00  0.00    -0.337 A  
HETATM   16  C   UNL     1      -9.887  10.190  65.245  1.00  0.00    -0.388 A  
HETATM   17  C   UNL     1      -9.861   9.710  66.553  1.00  0.00    -0.235 A  
HETATM   18  C   UNL     1     -10.658  10.309  67.533  1.00  0.00    -0.320 A  
HETATM   19  C   UNL     1     -11.488  11.384  67.191  1.00  0.00    -0.268 A  
BRANCH  17  20
HETATM   20  S   UNL     1      -8.924   8.244  66.919  1.00  0.00    -0.153 S  
HETATM   21  O   UNL     1      -7.734   8.615  67.652  1.00  0.00    -0.100 OA 
HETATM   22  O   UNL     1      -8.816   7.484  65.688  1.00  0.00    -0.134 OA 
BRANCH  20  23
HETATM   23  N   UNL     1      -9.926   7.336  67.891  1.00  0.00    -0.151 N  
HETATM   24  H   UNL     1     -10.932   7.467  67.788  1.00  0.00     0.000 HD 
BRANCH  23  25
HETATM   25  C   UNL     1      -9.489   6.416  68.827  1.00  0.00    -0.127 C  
HETATM   26  O   UNL     1      -9.483   5.212  68.631  1.00  0.00    -0.120 OA 
BRANCH  25  27
HETATM   27  N   UNL     1      -9.045   6.990  69.986  1.00  0.00    -0.145 N  
HETATM   28  H   UNL     1      -8.103   6.787  70.320  1.00  0.00     0.000 HD 
BRANCH  27  29
HETATM   29  C   UNL     1      -9.904   7.890  70.749  1.00  0.00    -0.180 C  
HETATM   30  C   UNL     1     -11.237   7.223  71.107  1.00  0.00    -0.284 C  
HETATM   31  C   UNL     1     -11.111   6.195  72.230  1.00  0.00    -0.320 C  
HETATM   32  C   UNL     1     -10.425   6.782  73.458  1.00  0.00    -0.356 C  
HETATM   33  C   UNL     1      -9.072   7.392  73.109  1.00  0.00    -0.207 C  
HETATM   34  C   UNL     1      -9.194   8.432  71.997  1.00  0.00    -0.304 C  
ENDBRANCH  27  29
ENDBRANCH  25  27
ENDBRANCH  23  25
ENDBRANCH  20  23
ENDBRANCH  17  20
ENDBRANCH  13  14
ENDBRANCH  12  13
ENDBRANCH  10  12
ENDBRANCH   5   8
TORSDOF 9
ENDMDL
MODEL      107
REMARK 921   NORMALIZED FREE ENERGY PREDICTED BY IDOCK:   -5.50 KCAL/MOL
REMARK 922        TOTAL FREE ENERGY PREDICTED BY IDOCK:   -9.89 KCAL/MOL
REMARK 923 INTER-LIGAND FREE ENERGY PREDICTED BY IDOCK:   -9.07 KCAL/MOL
REMARK 924 INTRA-LIGAND FREE ENERGY PREDICTED BY IDOCK:   -0.82 KCAL/MOL
REMARK 927      BINDING AFFINITY PREDICTED BY RF-SCORE:    0.00 PKD
ROOT
HETATM    1  C   UNL     1      -8.121   2.150  68.328  1.00  0.00    -0.068 C  
HETATM    2  C   UNL     1      -8.779   3.131  69.246  1.00  0.00    -0.081 A  
HETATM    3  N   UNL     1      -8.624   2.944  70.580  1.00  0.00    -0.057 NA 
HETATM    4  C   UNL     1      -9.265   3.833  71.380  1.00  0.00    -0.126 A  
HETATM    5  C   UNL     1     -10.026   4.875  70.872  1.00  0.00    -0.217 A  
HETATM    6  C   UNL     1      -9.535   4.190  68.744  1.00  0.00    -0.163 A  
HETATM    7  N   UNL     1     -10.178   5.089  69.534  1.00  0.00    -0.236 NA 
ENDROOT
BRANCH   5   8
HETATM    8  C   UNL     1     -10.743   5.780  71.812  1.00  0.00    -0.249 C  
HETATM    9  O   UNL     1     -11.671   5.365  72.499  1.00  0.00    -0.233 OA 
HETATM   10  N   UNL     1     -10.306   7.091  71.831  1.00  0.00    -0.193 N  
HETATM   11  H   UNL     1      -9.477   7.347  71.295  1.00  0.00     0.000 HD 
BRANCH  10  12
HETATM   12  C   UNL     1     -10.998   8.110  72.596  1.00  0.00    -0.370 C  
BRANCH  12  13
HETATM   13  C   UNL     1     -12.073   8.847  71.780  1.00  0.00    -0.432 C  
BRANCH  13  14
HETATM   14  C   UNL     1     -11.531   9.857  70.784  1.00  0.00    -0.433 A  
HETATM   15  C   UNL     1     -10.306   9.661  70.130  1.00  0.00    -0.315 A  
HETATM   16  C   UNL     1      -9.797  10.619  69.251  1.00  0.00    -0.201 A  
HETATM   17  C   UNL     1     -10.537  11.764  68.964  1.00  0.00    -0.136 A  
HETATM   18  C   UNL     1     -11.784  11.958  69.566  1.00  0.00    -0.410 A  
HETATM   19  C   UNL     1     -12.278  11.005  70.464  1.00  0.00    -0.472 A  
BRANCH  17  20
HETATM   20  S   UNL     1      -9.813  13.032  67.950  1.00  0.00    -0.230 S  
HETATM   21  O   UNL     1     -10.186  12.802  66.571  1.00  0.00    -0.244 OA 
HETATM   22  O   UNL     1      -8.415  13.133  68.321  1.00  0.00    -0.164 OA 
BRANCH  20  23
HETATM   23  N   UNL     1     -10.499  14.448  68.492  1.00  0.00    -0.247 N  
HETATM   24  H   UNL     1     -11.320  14.798  67.998  1.00  0.00     0.000 HD 
BRANCH  23  25
HETATM   25  C   UNL     1     -10.033  15.185  69.566  1.00  0.00    -0.201 C  
HETATM   26  O   UNL     1      -9.069  15.929  69.500  1.00  0.00    -0.256 OA 
BRANCH  25  27
HETATM   27  N   UNL     1     -10.773  15.015  70.703  1.00  0.00    -0.528 N  
HETATM   28  H   UNL     1     -10.566  14.236  71.328  1.00  0.00     0.000 HD 
BRANCH  27  29
HETATM   29  C   UNL     1     -11.857  15.936  71.032  1.00  0.00    -0.428 C  
HETATM   30  C   UNL     1     -13.223  15.349  70.661  1.00  0.00    -0.356 C  
HETATM   31  C   UNL     1     -13.691  14.262  71.626  1.00  0.00    -0.466 C  
HETATM   32  C   UNL     1     -13.655  14.738  73.074  1.00  0.00    -0.376 C  
HETATM   33  C   UNL     1     -12.277  15.266  73.458  1.00  0.00    -0.633 C  
HETATM   34  C   UNL     1     -11.811  16.365  72.505  1.00  0.00    -0.547 C  
ENDBRANCH  27  29
ENDBRANCH  25  27
ENDBRANCH  23  25
ENDBRANCH  20  23
ENDBRANCH  17  20
ENDBRANCH  13  14
ENDBRANCH  12  13
ENDBRANCH  10  12
ENDBRANCH   5   8
TORSDOF 9
ENDMDL
MODEL      108
REMARK 921   NORMALIZED FREE ENERGY PREDICTED BY IDOCK:   -5.50 KCAL/MOL
REMARK 922        TOTAL FREE ENERGY PREDICTED BY IDOCK:   -9.89 KCAL/MOL
REMARK 923 INTER-LIGAND FREE ENERGY PREDICTED BY IDOCK:   -9.38 KCAL/MOL
REMARK 924 INTRA-LIGAND FREE ENERGY PREDICTED BY IDOCK:   -0.51 KCAL/MOL
REMARK 927      BINDING AFFINITY PREDICTED BY RF-SCORE:    0.00 PKD
ROOT
HETATM    1  C   UNL     1      -9.516  10.184  62.644  1.00  0.00    -0.277 C  
HETATM    2  C   UNL     1     -10.058  11.026  63.755  1.00  0.00    -0.363 A  
HETATM    3  N   UNL     1     -10.785  12.121  63.417  1.00  0.00    -0.438 NA 
HETATM    4  C   UNL     1     -11.229  12.878  64.452  1.00  0.00    -0.351 A  
HETATM    5  C   UNL     1     -10.966  12.556  65.775  1.00  0.00    -0.292 A  
HETATM    6  C   UNL     1      -9.811  10.702  65.089  1.00  0.00    -0.284 A  
HETATM    7  N   UNL     1     -10.252  11.450  66.134  1.00  0.00    -0.231 NA 
ENDROOT
BRANCH   5   8
HETATM    8  C   UNL     1     -11.442  13.464  66.855  1.00  0.00    -0.342 C  
HETATM    9  O   UNL     1     -12.117  14.452  66.592  1.00  0.00    -0.419 OA 
HETATM   10  N   UNL     1     -11.053  13.123  68.137  1.00  0.00    -0.243 N  
HETATM   11  H   UNL     1     -10.561  12.243  68.291  1.00  0.00     0.000 HD 
BRANCH  10  12
HETATM   12  C   UNL     1     -11.328  13.988  69.267  1.00  0.00    -0.273 C  
BRANCH  12  13
HETATM   13  C   UNL     1     -12.454  13.458  70.170  1.00  0.00    -0.243 C  
BRANCH  13  14
HETATM   14  C   UNL     1     -12.312  12.000  70.569  1.00  0.00    -0.369 A  
HETATM   15  C   UNL     1     -13.140  11.420  71.542  1.00  0.00    -0.438 A  
HETATM   16  C   UNL     1     -12.969  10.090  71.933  1.00  0.00    -0.547 A  
HETATM   17  C   UNL     1     -12.005   9.300  71.311  1.00  0.00    -0.340 A  
HETATM   18  C   UNL     1     -11.200   9.842  70.304  1.00  0.00    -0.347 A  
HETATM   19  C   UNL     1     -11.361  11.182  69.933  1.00  0.00    -0.348 A  
BRANCH  17  20
HETATM   20  S   UNL     1     -11.713   7.653  71.915  1.00  0.00    -0.303 S  
HETATM   21  O   UNL     1     -12.897   6.853  71.695  1.00  0.00    -0.373 OA 
HETATM   22  O   UNL     1     -11.154   7.778  73.248  1.00  0.00    -0.373 OA 
BRANCH  20  23
HETATM   23  N   UNL     1     -10.460   7.078  70.983  1.00  0.00    -0.212 N  
HETATM   24  H   UNL     1      -9.783   7.754  70.629  1.00  0.00     0.000 HD 
BRANCH  23  25
HETATM   25  C   UNL     1     -10.273   5.748  70.653  1.00  0.00    -0.218 C  
HETATM   26  O   UNL     1      -9.928   4.900  71.459  1.00  0.00    -0.178 OA 
BRANCH  25  27
HETATM   27  N   UNL     1     -10.534   5.472  69.340  1.00  0.00    -0.284 N  
HETATM   28  H   UNL     1     -11.029   4.615  69.093  1.00  0.00     0.000 HD 
BRANCH  27  29
HETATM   29  C   UNL     1     -10.110   6.390  68.287  1.00  0.00    -0.153 C  
HETATM   30  C   UNL     1      -8.618   6.233  67.974  1.00  0.00    -0.116 C  
HETATM   31  C   UNL     1      -8.302   4.973  67.170  1.00  0.00    -0.106 C  
HETATM   32  C   UNL     1      -9.157   4.879  65.911  1.00  0.00    -0.147 C  
HETATM   33  C   UNL     1     -10.644   4.975  66.232  1.00  0.00    -0.332 C  
HETATM   34  C   UNL     1     -10.968   6.241  67.023  1.00  0.00    -0.442 C  
ENDBRANCH  27  29
ENDBRANCH  25  27
ENDBRANCH  23  25
ENDBRANCH  20  23
ENDBRANCH  17  20
ENDBRANCH  13  14
ENDBRANCH  12  13
ENDBRANCH  10  12
ENDBRANCH   5   8
TORSDOF 9
ENDMDL
MODEL      109
REMARK 921   NORMALIZED FREE ENERGY PREDICTED BY IDOCK:   -5.49 KCAL/MOL
REMARK 922        TOTAL FREE ENERGY PREDICTED BY IDOCK:   -9.87 KCAL/MOL
REMARK 923 INTER-LIGAND FREE ENERGY PREDICTED BY IDOCK:   -7.84 KCAL/MOL
REMARK 924 INTRA-LIGAND FREE ENERGY PREDICTED BY IDOCK:   -2.03 KCAL/MOL
REMARK 927      BINDING AFFINITY PREDICTED BY RF-SCORE:    0.00 PKD
ROOT
HETATM    1  C   UNL     1     -11.001  13.401  64.428  1.00  0.00    -0.413 C  
HETATM    2  C   UNL     1     -11.257  13.247  65.894  1.00  0.00    -0.290 A  
HETATM    3  N   UNL     1     -11.685  12.036  66.333  1.00  0.00    -0.565 NA 
HETATM    4  C   UNL     1     -11.939  11.946  67.663  1.00  0.00    -0.057 A  
HETATM    5  C   UNL     1     -11.770  13.018  68.526  1.00  0.00    -0.342 A  
HETATM    6  C   UNL     1     -11.076  14.315  66.772  1.00  0.00    -0.314 A  
HETATM    7  N   UNL     1     -11.324  14.237  68.105  1.00  0.00    -0.273 NA 
ENDROOT
BRANCH   5   8
HETATM    8  C   UNL     1     -12.121  12.858  69.964  1.00  0.00    -0.286 C  
HETATM    9  O   UNL     1     -12.067  13.812  70.733  1.00  0.00    -0.341 OA 
HETATM   10  N   UNL     1     -12.479  11.582  70.354  1.00  0.00    -0.270 N  
HETATM   11  H   UNL     1     -12.582  10.855  69.647  1.00  0.00     0.000 HD 
BRANCH  10  12
HETATM   12  C   UNL     1     -12.714  11.253  71.747  1.00  0.00    -0.273 C  
BRANCH  12  13
HETATM   13  C   UNL     1     -13.294   9.843  71.942  1.00  0.00    -0.524 C  
BRANCH  13  14
HETATM   14  C   UNL     1     -12.299   8.714  71.736  1.00  0.00    -0.402 A  
HETATM   15  C   UNL     1     -12.706   7.445  71.298  1.00  0.00    -0.371 A  
HETATM   16  C   UNL     1     -11.788   6.403  71.157  1.00  0.00    -0.325 A  
HETATM   17  C   UNL     1     -10.434   6.631  71.392  1.00  0.00    -0.214 A  
HETATM   18  C   UNL     1      -9.997   7.900  71.782  1.00  0.00    -0.228 A  
HETATM   19  C   UNL     1     -10.926   8.935  71.945  1.00  0.00    -0.439 A  
BRANCH  17  20
HETATM   20  S   UNL     1      -9.302   5.261  71.338  1.00  0.00    -0.151 S  
HETATM   21  O   UNL     1     -10.053   4.026  71.397  1.00  0.00    -0.165 OA 
HETATM   22  O   UNL     1      -8.258   5.527  72.309  1.00  0.00    -0.110 OA 
BRANCH  20  23
HETATM   23  N   UNL     1      -8.550   5.394  69.859  1.00  0.00    -0.106 N  
HETATM   24  H   UNL     1      -7.536   5.288  69.832  1.00  0.00     0.000 HD 
BRANCH  23  25
HETATM   25  C   UNL     1      -9.203   5.639  68.665  1.00  0.00    -0.122 C  
HETATM   26  O   UNL     1     -10.156   4.984  68.275  1.00  0.00    -0.153 OA 
BRANCH  25  27
HETATM   27  N   UNL     1      -8.690   6.701  67.973  1.00  0.00    -0.118 N  
HETATM   28  H   UNL     1      -7.688   6.887  68.005  1.00  0.00     0.000 HD 
BRANCH  27  29
HETATM   29  C   UNL     1      -9.562   7.571  67.189  1.00  0.00    -0.161 C  
HETATM   30  C   UNL     1     -10.198   8.659  68.061  1.00  0.00    -0.261 C  
HETATM   31  C   UNL     1      -9.222   9.772  68.438  1.00  0.00    -0.130 C  
HETATM   32  C   UNL     1      -8.536  10.361  67.210  1.00  0.00    -0.126 C  
HETATM   33  C   UNL     1      -7.853   9.283  66.376  1.00  0.00    -0.103 C  
HETATM   34  C   UNL     1      -8.828   8.174  65.983  1.00  0.00    -0.206 C  
ENDBRANCH  27  29
ENDBRANCH  25  27
ENDBRANCH  23  25
ENDBRANCH  20  23
ENDBRANCH  17  20
ENDBRANCH  13  14
ENDBRANCH  12  13
ENDBRANCH  10  12
ENDBRANCH   5   8
TORSDOF 9
ENDMDL
MODEL      110
REMARK 921   NORMALIZED FREE ENERGY PREDICTED BY IDOCK:   -5.47 KCAL/MOL
REMARK 922        TOTAL FREE ENERGY PREDICTED BY IDOCK:   -9.84 KCAL/MOL
REMARK 923 INTER-LIGAND FREE ENERGY PREDICTED BY IDOCK:   -9.17 KCAL/MOL
REMARK 924 INTRA-LIGAND FREE ENERGY PREDICTED BY IDOCK:   -0.67 KCAL/MOL
REMARK 927      BINDING AFFINITY PREDICTED BY RF-SCORE:    0.00 PKD
ROOT
HETATM    1  C   UNL     1      -9.480  10.151  62.485  1.00  0.00    -0.269 C  
HETATM    2  C   UNL     1      -9.891  11.090  63.575  1.00  0.00    -0.359 A  
HETATM    3  N   UNL     1     -10.444  12.273  63.209  1.00  0.00    -0.364 NA 
HETATM    4  C   UNL     1     -10.771  13.112  64.225  1.00  0.00    -0.409 A  
HETATM    5  C   UNL     1     -10.563  12.783  65.556  1.00  0.00    -0.281 A  
HETATM    6  C   UNL     1      -9.699  10.762  64.917  1.00  0.00    -0.276 A  
HETATM    7  N   UNL     1     -10.025  11.591  65.942  1.00  0.00    -0.221 NA 
ENDROOT
BRANCH   5   8
HETATM    8  C   UNL     1     -10.899  13.777  66.613  1.00  0.00    -0.288 C  
HETATM    9  O   UNL     1     -11.577  14.765  66.354  1.00  0.00    -0.356 OA 
HETATM   10  N   UNL     1     -10.380  13.514  67.867  1.00  0.00    -0.243 N  
HETATM   11  H   UNL     1      -9.894  12.633  68.030  1.00  0.00     0.000 HD 
BRANCH  10  12
HETATM   12  C   UNL     1     -10.512  14.462  68.955  1.00  0.00    -0.222 C  
BRANCH  12  13
HETATM   13  C   UNL     1     -11.838  14.317  69.721  1.00  0.00    -0.380 C  
BRANCH  13  14
HETATM   14  C   UNL     1     -12.139  12.911  70.206  1.00  0.00    -0.377 A  
HETATM   15  C   UNL     1     -12.913  12.678  71.353  1.00  0.00    -0.353 A  
HETATM   16  C   UNL     1     -13.144  11.381  71.816  1.00  0.00    -0.523 A  
HETATM   17  C   UNL     1     -12.656  10.290  71.100  1.00  0.00    -0.400 A  
HETATM   18  C   UNL     1     -11.924  10.494  69.927  1.00  0.00    -0.339 A  
HETATM   19  C   UNL     1     -11.675  11.798  69.482  1.00  0.00    -0.408 A  
BRANCH  17  20
HETATM   20  S   UNL     1     -12.845   8.656  71.776  1.00  0.00    -0.377 S  
HETATM   21  O   UNL     1     -14.220   8.472  72.187  1.00  0.00    -0.424 OA 
HETATM   22  O   UNL     1     -11.767   8.455  72.724  1.00  0.00    -0.367 OA 
BRANCH  20  23
HETATM   23  N   UNL     1     -12.493   7.633  70.511  1.00  0.00    -0.451 N  
HETATM   24  H   UNL     1     -13.194   7.527  69.777  1.00  0.00     0.000 HD 
BRANCH  23  25
HETATM   25  C   UNL     1     -11.316   6.917  70.384  1.00  0.00    -0.328 C  
HETATM   26  O   UNL     1     -11.281   5.732  70.097  1.00  0.00    -0.319 OA 
BRANCH  25  27
HETATM   27  N   UNL     1     -10.196   7.672  70.590  1.00  0.00    -0.198 N  
HETATM   28  H   UNL     1     -10.276   8.576  71.057  1.00  0.00     0.000 HD 
BRANCH  27  29
HETATM   29  C   UNL     1      -8.887   7.199  70.151  1.00  0.00    -0.145 C  
HETATM   30  C   UNL     1      -8.473   7.848  68.825  1.00  0.00    -0.128 C  
HETATM   31  C   UNL     1      -8.031   9.302  68.980  1.00  0.00    -0.097 C  
HETATM   32  C   UNL     1      -6.949   9.452  70.044  1.00  0.00    -0.071 C  
HETATM   33  C   UNL     1      -7.388   8.859  71.379  1.00  0.00    -0.106 C  
HETATM   34  C   UNL     1      -7.816   7.400  71.233  1.00  0.00    -0.095 C  
ENDBRANCH  27  29
ENDBRANCH  25  27
ENDBRANCH  23  25
ENDBRANCH  20  23
ENDBRANCH  17  20
ENDBRANCH  13  14
ENDBRANCH  12  13
ENDBRANCH  10  12
ENDBRANCH   5   8
TORSDOF 9
ENDMDL
MODEL      111
REMARK 921   NORMALIZED FREE ENERGY PREDICTED BY IDOCK:   -5.46 KCAL/MOL
REMARK 922        TOTAL FREE ENERGY PREDICTED BY IDOCK:   -9.83 KCAL/MOL
REMARK 923 INTER-LIGAND FREE ENERGY PREDICTED BY IDOCK:   -8.06 KCAL/MOL
REMARK 924 INTRA-LIGAND FREE ENERGY PREDICTED BY IDOCK:   -1.77 KCAL/MOL
REMARK 927      BINDING AFFINITY PREDICTED BY RF-SCORE:    0.00 PKD
ROOT
HETATM    1  C   UNL     1     -11.395  14.716  64.904  1.00  0.00    -0.403 C  
HETATM    2  C   UNL     1     -11.596  14.013  66.209  1.00  0.00    -0.369 A  
HETATM    3  N   UNL     1     -11.633  14.772  67.333  1.00  0.00    -0.364 NA 
HETATM    4  C   UNL     1     -11.782  14.095  68.500  1.00  0.00    -0.345 A  
HETATM    5  C   UNL     1     -11.896  12.714  68.548  1.00  0.00    -0.300 A  
HETATM    6  C   UNL     1     -11.726  12.625  66.267  1.00  0.00    -0.402 A  
HETATM    7  N   UNL     1     -11.878  11.936  67.427  1.00  0.00    -0.611 NA 
ENDROOT
BRANCH   5   8
HETATM    8  C   UNL     1     -12.003  12.036  69.869  1.00  0.00    -0.318 C  
HETATM    9  O   UNL     1     -12.343  12.660  70.869  1.00  0.00    -0.374 OA 
HETATM   10  N   UNL     1     -11.677  10.693  69.881  1.00  0.00    -0.290 N  
HETATM   11  H   UNL     1     -11.482  10.220  68.999  1.00  0.00     0.000 HD 
BRANCH  10  12
HETATM   12  C   UNL     1     -11.606   9.942  71.119  1.00  0.00    -0.389 C  
BRANCH  12  13
HETATM   13  C   UNL     1     -10.374   9.025  71.195  1.00  0.00    -0.362 C  
BRANCH  13  14
HETATM   14  C   UNL     1     -10.278   7.999  70.080  1.00  0.00    -0.203 A  
HETATM   15  C   UNL     1     -11.180   6.929  69.984  1.00  0.00    -0.347 A  
HETATM   16  C   UNL     1     -11.052   5.967  68.980  1.00  0.00    -0.377 A  
HETATM   17  C   UNL     1     -10.054   6.094  68.017  1.00  0.00    -0.153 A  
HETATM   18  C   UNL     1      -9.173   7.179  68.062  1.00  0.00    -0.130 A  
HETATM   19  C   UNL     1      -9.291   8.127  69.085  1.00  0.00    -0.151 A  
BRANCH  17  20
HETATM   20  S   UNL     1      -9.824   4.791  66.829  1.00  0.00    -0.226 S  
HETATM   21  O   UNL     1     -10.890   4.849  65.853  1.00  0.00    -0.289 OA 
HETATM   22  O   UNL     1      -9.583   3.570  67.574  1.00  0.00    -0.207 OA 
BRANCH  20  23
HETATM   23  N   UNL     1      -8.369   5.137  66.099  1.00  0.00    -0.113 N  
HETATM   24  H   UNL     1      -7.528   5.095  66.675  1.00  0.00     0.000 HD 
BRANCH  23  25
HETATM   25  C   UNL     1      -8.220   5.479  64.767  1.00  0.00    -0.133 C  
HETATM   26  O   UNL     1      -7.769   4.718  63.927  1.00  0.00    -0.069 OA 
BRANCH  25  27
HETATM   27  N   UNL     1      -8.646   6.745  64.480  1.00  0.00    -0.336 N  
HETATM   28  H   UNL     1      -9.603   7.018  64.704  1.00  0.00     0.000 HD 
BRANCH  27  29
HETATM   29  C   UNL     1      -7.747   7.712  63.858  1.00  0.00    -0.126 C  
HETATM   30  C   UNL     1      -8.502   8.963  63.397  1.00  0.00    -0.150 C  
HETATM   31  C   UNL     1      -8.894   9.887  64.548  1.00  0.00    -0.238 C  
HETATM   32  C   UNL     1      -7.695  10.240  65.421  1.00  0.00    -0.146 C  
HETATM   33  C   UNL     1      -6.981   8.992  65.928  1.00  0.00    -0.088 C  
HETATM   34  C   UNL     1      -6.573   8.072  64.779  1.00  0.00    -0.048 C  
ENDBRANCH  27  29
ENDBRANCH  25  27
ENDBRANCH  23  25
ENDBRANCH  20  23
ENDBRANCH  17  20
ENDBRANCH  13  14
ENDBRANCH  12  13
ENDBRANCH  10  12
ENDBRANCH   5   8
TORSDOF 9
ENDMDL
MODEL      112
REMARK 921   NORMALIZED FREE ENERGY PREDICTED BY IDOCK:   -5.46 KCAL/MOL
REMARK 922        TOTAL FREE ENERGY PREDICTED BY IDOCK:   -9.82 KCAL/MOL
REMARK 923 INTER-LIGAND FREE ENERGY PREDICTED BY IDOCK:   -8.12 KCAL/MOL
REMARK 924 INTRA-LIGAND FREE ENERGY PREDICTED BY IDOCK:   -1.70 KCAL/MOL
REMARK 927      BINDING AFFINITY PREDICTED BY RF-SCORE:    0.00 PKD
ROOT
HETATM    1  C   UNL     1     -12.740  16.154  72.347  1.00  0.00    -0.407 C  
HETATM    2  C   UNL     1     -12.823  14.729  71.898  1.00  0.00    -0.324 A  
HETATM    3  N   UNL     1     -13.377  13.832  72.751  1.00  0.00    -0.608 NA 
HETATM    4  C   UNL     1     -13.403  12.545  72.322  1.00  0.00    -0.370 A  
HETATM    5  C   UNL     1     -12.901  12.164  71.087  1.00  0.00    -0.217 A  
HETATM    6  C   UNL     1     -12.334  14.339  70.651  1.00  0.00    -0.361 A  
HETATM    7  N   UNL     1     -12.356  13.055  70.209  1.00  0.00    -0.284 NA 
ENDROOT
BRANCH   5   8
HETATM    8  C   UNL     1     -12.915  10.725  70.706  1.00  0.00    -0.262 C  
HETATM    9  O   UNL     1     -12.465  10.356  69.627  1.00  0.00    -0.133 OA 
HETATM   10  N   UNL     1     -13.479   9.867  71.632  1.00  0.00    -0.361 N  
HETATM   11  H   UNL     1     -13.758  10.231  72.542  1.00  0.00     0.000 HD 
BRANCH  10  12
HETATM   12  C   UNL     1     -13.682   8.462  71.337  1.00  0.00    -0.235 C  
BRANCH  12  13
HETATM   13  C   UNL     1     -12.512   7.576  71.795  1.00  0.00    -0.360 C  
BRANCH  13  14
HETATM   14  C   UNL     1     -11.425   7.375  70.754  1.00  0.00    -0.313 A  
HETATM   15  C   UNL     1     -10.167   7.984  70.876  1.00  0.00    -0.213 A  
HETATM   16  C   UNL     1      -9.192   7.828  69.889  1.00  0.00    -0.146 A  
HETATM   17  C   UNL     1      -9.438   7.006  68.791  1.00  0.00    -0.136 A  
HETATM   18  C   UNL     1     -10.666   6.348  68.672  1.00  0.00    -0.341 A  
HETATM   19  C   UNL     1     -11.649   6.529  69.653  1.00  0.00    -0.348 A  
BRANCH  17  20
HETATM   20  S   UNL     1      -8.238   6.927  67.481  1.00  0.00    -0.116 S  
HETATM   21  O   UNL     1      -7.633   5.613  67.475  1.00  0.00    -0.087 OA 
HETATM   22  O   UNL     1      -7.409   8.112  67.586  1.00  0.00    -0.089 OA 
BRANCH  20  23
HETATM   23  N   UNL     1      -9.120   7.149  66.087  1.00  0.00    -0.277 N  
HETATM   24  H   UNL     1      -9.806   6.435  65.841  1.00  0.00     0.000 HD 
BRANCH  23  25
HETATM   25  C   UNL     1      -8.989   8.233  65.239  1.00  0.00     0.045 C  
HETATM   26  O   UNL     1      -8.345   8.199  64.203  1.00  0.00    -0.125 OA 
BRANCH  25  27
HETATM   27  N   UNL     1      -9.668   9.341  65.664  1.00  0.00    -0.413 N  
HETATM   28  H   UNL     1     -10.526   9.230  66.202  1.00  0.00     0.000 HD 
BRANCH  27  29
HETATM   29  C   UNL     1      -9.176  10.681  65.355  1.00  0.00    -0.193 C  
HETATM   30  C   UNL     1     -10.034  11.358  64.281  1.00  0.00    -0.329 C  
HETATM   31  C   UNL     1     -11.384  11.843  64.808  1.00  0.00    -0.344 C  
HETATM   32  C   UNL     1     -11.224  12.723  66.043  1.00  0.00    -0.335 C  
HETATM   33  C   UNL     1     -10.421  12.022  67.133  1.00  0.00    -0.244 C  
HETATM   34  C   UNL     1      -9.064  11.550  66.616  1.00  0.00    -0.193 C  
ENDBRANCH  27  29
ENDBRANCH  25  27
ENDBRANCH  23  25
ENDBRANCH  20  23
ENDBRANCH  17  20
ENDBRANCH  13  14
ENDBRANCH  12  13
ENDBRANCH  10  12
ENDBRANCH   5   8
TORSDOF 9
ENDMDL
MODEL      113
REMARK 921   NORMALIZED FREE ENERGY PREDICTED BY IDOCK:   -5.45 KCAL/MOL
REMARK 922        TOTAL FREE ENERGY PREDICTED BY IDOCK:   -9.81 KCAL/MOL
REMARK 923 INTER-LIGAND FREE ENERGY PREDICTED BY IDOCK:   -8.04 KCAL/MOL
REMARK 924 INTRA-LIGAND FREE ENERGY PREDICTED BY IDOCK:   -1.77 KCAL/MOL
REMARK 927      BINDING AFFINITY PREDICTED BY RF-SCORE:    0.00 PKD
ROOT
HETATM    1  C   UNL     1     -12.055  14.133  66.467  1.00  0.00    -0.481 C  
HETATM    2  C   UNL     1     -11.979  13.151  67.594  1.00  0.00    -0.315 A  
HETATM    3  N   UNL     1     -11.892  11.835  67.276  1.00  0.00    -0.624 NA 
HETATM    4  C   UNL     1     -11.860  10.975  68.325  1.00  0.00    -0.148 A  
HETATM    5  C   UNL     1     -11.905  11.407  69.642  1.00  0.00    -0.362 A  
HETATM    6  C   UNL     1     -12.009  13.578  68.922  1.00  0.00    -0.341 A  
HETATM    7  N   UNL     1     -11.974  12.727  69.980  1.00  0.00    -0.335 NA 
ENDROOT
BRANCH   5   8
HETATM    8  C   UNL     1     -11.919  10.401  70.740  1.00  0.00    -0.363 C  
HETATM    9  O   UNL     1     -10.890   9.828  71.079  1.00  0.00    -0.326 OA 
HETATM   10  N   UNL     1     -13.153  10.157  71.312  1.00  0.00    -0.385 N  
HETATM   11  H   UNL     1     -13.952  10.729  71.037  1.00  0.00     0.000 HD 
BRANCH  10  12
HETATM   12  C   UNL     1     -13.339   9.108  72.295  1.00  0.00    -0.477 C  
BRANCH  12  13
HETATM   13  C   UNL     1     -13.638   7.738  71.663  1.00  0.00    -0.416 C  
BRANCH  13  14
HETATM   14  C   UNL     1     -12.443   6.805  71.579  1.00  0.00    -0.390 A  
HETATM   15  C   UNL     1     -11.713   6.650  70.391  1.00  0.00    -0.446 A  
HETATM   16  C   UNL     1     -10.644   5.755  70.314  1.00  0.00    -0.369 A  
HETATM   17  C   UNL     1     -10.249   5.043  71.444  1.00  0.00    -0.200 A  
HETATM   18  C   UNL     1     -10.930   5.217  72.653  1.00  0.00    -0.303 A  
HETATM   19  C   UNL     1     -12.016   6.099  72.717  1.00  0.00     0.051 A  
BRANCH  17  20
HETATM   20  S   UNL     1      -8.976   3.811  71.291  1.00  0.00    -0.112 S  
HETATM   21  O   UNL     1      -9.544   2.616  70.708  1.00  0.00    -0.149 OA 
HETATM   22  O   UNL     1      -8.288   3.745  72.566  1.00  0.00    -0.087 OA 
BRANCH  20  23
HETATM   23  N   UNL     1      -7.867   4.478  70.245  1.00  0.00    -0.059 N  
HETATM   24  H   UNL     1      -7.356   5.304  70.558  1.00  0.00     0.000 HD 
BRANCH  23  25
HETATM   25  C   UNL     1      -7.590   3.993  68.980  1.00  0.00    -0.054 C  
HETATM   26  O   UNL     1      -6.501   3.546  68.657  1.00  0.00    -0.035 OA 
BRANCH  25  27
HETATM   27  N   UNL     1      -8.661   4.042  68.132  1.00  0.00    -0.094 N  
HETATM   28  H   UNL     1      -9.556   3.652  68.427  1.00  0.00     0.000 HD 
BRANCH  27  29
HETATM   29  C   UNL     1      -8.537   4.647  66.809  1.00  0.00    -0.108 C  
HETATM   30  C   UNL     1      -9.904   4.791  66.130  1.00  0.00    -0.234 C  
HETATM   31  C   UNL     1     -10.744   5.929  66.705  1.00  0.00    -0.371 C  
HETATM   32  C   UNL     1      -9.978   7.247  66.717  1.00  0.00    -0.287 C  
HETATM   33  C   UNL     1      -8.646   7.116  67.447  1.00  0.00    -0.121 C  
HETATM   34  C   UNL     1      -7.794   5.989  66.865  1.00  0.00    -0.101 C  
ENDBRANCH  27  29
ENDBRANCH  25  27
ENDBRANCH  23  25
ENDBRANCH  20  23
ENDBRANCH  17  20
ENDBRANCH  13  14
ENDBRANCH  12  13
ENDBRANCH  10  12
ENDBRANCH   5   8
TORSDOF 9
ENDMDL
MODEL      114
REMARK 921   NORMALIZED FREE ENERGY PREDICTED BY IDOCK:   -5.43 KCAL/MOL
REMARK 922        TOTAL FREE ENERGY PREDICTED BY IDOCK:   -9.78 KCAL/MOL
REMARK 923 INTER-LIGAND FREE ENERGY PREDICTED BY IDOCK:   -8.17 KCAL/MOL
REMARK 924 INTRA-LIGAND FREE ENERGY PREDICTED BY IDOCK:   -1.61 KCAL/MOL
REMARK 927      BINDING AFFINITY PREDICTED BY RF-SCORE:    0.00 PKD
ROOT
HETATM    1  C   UNL     1     -11.887  13.244  63.918  1.00  0.00    -0.522 C  
HETATM    2  C   UNL     1     -11.121  12.032  64.343  1.00  0.00    -0.342 A  
HETATM    3  N   UNL     1     -11.143  11.705  65.659  1.00  0.00    -0.282 NA 
HETATM    4  C   UNL     1     -10.408  10.619  66.011  1.00  0.00    -0.225 A  
HETATM    5  C   UNL     1      -9.682   9.883  65.087  1.00  0.00    -0.306 A  
HETATM    6  C   UNL     1     -10.400  11.276  63.419  1.00  0.00    -0.391 A  
HETATM    7  N   UNL     1      -9.663  10.187  63.758  1.00  0.00    -0.241 NA 
ENDROOT
BRANCH   5   8
HETATM    8  C   UNL     1      -8.856   8.736  65.556  1.00  0.00    -0.188 C  
HETATM    9  O   UNL     1      -7.637   8.835  65.645  1.00  0.00    -0.084 OA 
HETATM   10  N   UNL     1      -9.552   7.579  65.852  1.00  0.00    -0.413 N  
HETATM   11  H   UNL     1     -10.571   7.593  65.835  1.00  0.00     0.000 HD 
BRANCH  10  12
HETATM   12  C   UNL     1      -8.866   6.347  66.189  1.00  0.00    -0.150 C  
BRANCH  12  13
HETATM   13  C   UNL     1      -8.492   6.254  67.677  1.00  0.00    -0.116 C  
BRANCH  13  14
HETATM   14  C   UNL     1      -9.506   6.869  68.625  1.00  0.00    -0.134 A  
HETATM   15  C   UNL     1      -9.329   8.153  69.161  1.00  0.00    -0.151 A  
HETATM   16  C   UNL     1     -10.246   8.689  70.067  1.00  0.00    -0.201 A  
HETATM   17  C   UNL     1     -11.391   7.971  70.406  1.00  0.00    -0.187 A  
HETATM   18  C   UNL     1     -11.615   6.709  69.847  1.00  0.00    -0.393 A  
HETATM   19  C   UNL     1     -10.679   6.168  68.957  1.00  0.00    -0.377 A  
BRANCH  17  20
HETATM   20  S   UNL     1     -12.475   8.611  71.661  1.00  0.00    -0.352 S  
HETATM   21  O   UNL     1     -13.840   8.278  71.319  1.00  0.00    -0.264 OA 
HETATM   22  O   UNL     1     -12.097   9.992  71.892  1.00  0.00    -0.327 OA 
BRANCH  20  23
HETATM   23  N   UNL     1     -12.029   7.811  73.051  1.00  0.00    -0.577 N  
HETATM   24  H   UNL     1     -12.745   7.661  73.762  1.00  0.00     0.000 HD 
BRANCH  23  25
HETATM   25  C   UNL     1     -10.757   7.336  73.310  1.00  0.00    -0.383 C  
HETATM   26  O   UNL     1      -9.791   8.063  73.474  1.00  0.00    -0.250 OA 
BRANCH  25  27
HETATM   27  N   UNL     1     -10.691   5.973  73.386  1.00  0.00    -0.281 N  
HETATM   28  H   UNL     1     -11.549   5.432  73.491  1.00  0.00     0.000 HD 
BRANCH  27  29
HETATM   29  C   UNL     1      -9.406   5.284  73.319  1.00  0.00    -0.138 C  
HETATM   30  C   UNL     1      -9.373   4.068  74.252  1.00  0.00    -0.121 C  
HETATM   31  C   UNL     1     -10.174   2.882  73.721  1.00  0.00    -0.196 C  
HETATM   32  C   UNL     1      -9.764   2.514  72.299  1.00  0.00    -0.205 C  
HETATM   33  C   UNL     1      -9.855   3.712  71.360  1.00  0.00    -0.219 C  
HETATM   34  C   UNL     1      -9.042   4.897  71.879  1.00  0.00    -0.160 C  
ENDBRANCH  27  29
ENDBRANCH  25  27
ENDBRANCH  23  25
ENDBRANCH  20  23
ENDBRANCH  17  20
ENDBRANCH  13  14
ENDBRANCH  12  13
ENDBRANCH  10  12
ENDBRANCH   5   8
TORSDOF 9
ENDMDL
MODEL      115
REMARK 921   NORMALIZED FREE ENERGY PREDICTED BY IDOCK:   -5.42 KCAL/MOL
REMARK 922        TOTAL FREE ENERGY PREDICTED BY IDOCK:   -9.76 KCAL/MOL
REMARK 923 INTER-LIGAND FREE ENERGY PREDICTED BY IDOCK:   -7.54 KCAL/MOL
REMARK 924 INTRA-LIGAND FREE ENERGY PREDICTED BY IDOCK:   -2.22 KCAL/MOL
REMARK 927      BINDING AFFINITY PREDICTED BY RF-SCORE:    0.00 PKD
ROOT
HETATM    1  C   UNL     1     -12.825  12.134  63.604  1.00  0.00    -0.464 C  
HETATM    2  C   UNL     1     -11.598  11.851  64.411  1.00  0.00    -0.292 A  
HETATM    3  N   UNL     1     -11.693  11.964  65.760  1.00  0.00    -0.405 NA 
HETATM    4  C   UNL     1     -10.551  11.734  66.455  1.00  0.00    -0.255 A  
HETATM    5  C   UNL     1      -9.358  11.398  65.833  1.00  0.00    -0.228 A  
HETATM    6  C   UNL     1     -10.397  11.498  63.795  1.00  0.00    -0.399 A  
HETATM    7  N   UNL     1      -9.248  11.262  64.480  1.00  0.00    -0.118 NA 
ENDROOT
BRANCH   5   8
HETATM    8  C   UNL     1      -8.132  11.212  66.658  1.00  0.00    -0.159 C  
HETATM    9  O   UNL     1      -7.992  10.215  67.358  1.00  0.00    -0.109 OA 
HETATM   10  N   UNL     1      -7.204  12.233  66.589  1.00  0.00    -0.357 N  
HETATM   11  H   UNL     1      -7.348  12.993  65.923  1.00  0.00     0.000 HD 
BRANCH  10  12
HETATM   12  C   UNL     1      -6.031  12.250  67.440  1.00  0.00    -0.149 C  
BRANCH  12  13
HETATM   13  C   UNL     1      -6.265  12.978  68.773  1.00  0.00    -0.079 C  
BRANCH  13  14
HETATM   14  C   UNL     1      -6.289  14.493  68.672  1.00  0.00    -0.086 A  
HETATM   15  C   UNL     1      -6.646  15.298  69.764  1.00  0.00    -0.177 A  
HETATM   16  C   UNL     1      -6.708  16.688  69.644  1.00  0.00    -0.112 A  
HETATM   17  C   UNL     1      -6.353  17.300  68.444  1.00  0.00    -0.162 A  
HETATM   18  C   UNL     1      -5.947  16.522  67.356  1.00  0.00    -0.188 A  
HETATM   19  C   UNL     1      -5.910  15.128  67.475  1.00  0.00     0.011 A  
BRANCH  17  20
HETATM   20  S   UNL     1      -6.568  19.057  68.271  1.00  0.00    -0.249 S  
HETATM   21  O   UNL     1      -6.508  19.403  66.869  1.00  0.00    -0.189 OA 
HETATM   22  O   UNL     1      -5.673  19.694  69.219  1.00  0.00    -0.218 OA 
BRANCH  20  23
HETATM   23  N   UNL     1      -8.095  19.355  68.863  1.00  0.00    -0.351 N  
HETATM   24  H   UNL     1      -8.194  19.497  69.868  1.00  0.00     0.000 HD 
BRANCH  23  25
HETATM   25  C   UNL     1      -9.238  19.425  68.088  1.00  0.00    -0.336 C  
HETATM   26  O   UNL     1     -10.143  20.216  68.297  1.00  0.00    -0.412 OA 
BRANCH  25  27
HETATM   27  N   UNL     1      -9.245  18.535  67.050  1.00  0.00    -0.277 N  
HETATM   28  H   UNL     1      -8.441  18.481  66.426  1.00  0.00     0.000 HD 
BRANCH  27  29
HETATM   29  C   UNL     1     -10.393  17.660  66.827  1.00  0.00    -0.331 C  
HETATM   30  C   UNL     1     -10.103  16.626  65.733  1.00  0.00    -0.301 C  
HETATM   31  C   UNL     1      -9.182  15.500  66.199  1.00  0.00    -0.379 C  
HETATM   32  C   UNL     1      -9.695  14.844  67.476  1.00  0.00    -0.212 C  
HETATM   33  C   UNL     1      -9.924  15.868  68.581  1.00  0.00    -0.214 C  
HETATM   34  C   UNL     1     -10.858  16.988  68.126  1.00  0.00    -0.338 C  
ENDBRANCH  27  29
ENDBRANCH  25  27
ENDBRANCH  23  25
ENDBRANCH  20  23
ENDBRANCH  17  20
ENDBRANCH  13  14
ENDBRANCH  12  13
ENDBRANCH  10  12
ENDBRANCH   5   8
TORSDOF 9
ENDMDL
MODEL      116
REMARK 921   NORMALIZED FREE ENERGY PREDICTED BY IDOCK:   -5.40 KCAL/MOL
REMARK 922        TOTAL FREE ENERGY PREDICTED BY IDOCK:   -9.74 KCAL/MOL
REMARK 923 INTER-LIGAND FREE ENERGY PREDICTED BY IDOCK:   -8.54 KCAL/MOL
REMARK 924 INTRA-LIGAND FREE ENERGY PREDICTED BY IDOCK:   -1.20 KCAL/MOL
REMARK 927      BINDING AFFINITY PREDICTED BY RF-SCORE:    0.00 PKD
ROOT
HETATM    1  C   UNL     1     -13.488  13.398  72.430  1.00  0.00    -0.685 C  
HETATM    2  C   UNL     1     -12.658  14.233  71.507  1.00  0.00    -0.354 A  
HETATM    3  N   UNL     1     -12.490  15.541  71.822  1.00  0.00    -0.367 NA 
HETATM    4  C   UNL     1     -11.760  16.272  70.942  1.00  0.00    -0.234 A  
HETATM    5  C   UNL     1     -11.212  15.722  69.793  1.00  0.00    -0.330 A  
HETATM    6  C   UNL     1     -12.090  13.684  70.356  1.00  0.00    -0.351 A  
HETATM    7  N   UNL     1     -11.355  14.404  69.470  1.00  0.00    -0.267 NA 
ENDROOT
BRANCH   5   8
HETATM    8  C   UNL     1     -10.467  16.598  68.848  1.00  0.00    -0.322 C  
HETATM    9  O   UNL     1     -11.051  17.183  67.942  1.00  0.00    -0.288 OA 
HETATM   10  N   UNL     1      -9.103  16.679  69.054  1.00  0.00    -0.243 N  
HETATM   11  H   UNL     1      -8.696  16.232  69.875  1.00  0.00     0.000 HD 
BRANCH  10  12
HETATM   12  C   UNL     1      -8.238  17.385  68.130  1.00  0.00    -0.238 C  
BRANCH  12  13
HETATM   13  C   UNL     1      -7.687  16.483  67.013  1.00  0.00    -0.244 C  
BRANCH  13  14
HETATM   14  C   UNL     1      -7.746  14.996  67.313  1.00  0.00    -0.233 A  
HETATM   15  C   UNL     1      -8.785  14.188  66.827  1.00  0.00    -0.148 A  
HETATM   16  C   UNL     1      -8.853  12.831  67.148  1.00  0.00    -0.202 A  
HETATM   17  C   UNL     1      -7.846  12.244  67.911  1.00  0.00    -0.146 A  
HETATM   18  C   UNL     1      -6.774  13.018  68.366  1.00  0.00    -0.093 A  
HETATM   19  C   UNL     1      -6.724  14.384  68.060  1.00  0.00    -0.154 A  
BRANCH  17  20
HETATM   20  S   UNL     1      -8.019  10.550  68.420  1.00  0.00    -0.123 S  
HETATM   21  O   UNL     1      -7.697  10.444  69.826  1.00  0.00    -0.158 OA 
HETATM   22  O   UNL     1      -7.317   9.735  67.447  1.00  0.00    -0.089 OA 
BRANCH  20  23
HETATM   23  N   UNL     1      -9.629  10.201  68.182  1.00  0.00    -0.138 N  
HETATM   24  H   UNL     1     -10.248  10.969  67.920  1.00  0.00     0.000 HD 
BRANCH  23  25
HETATM   25  C   UNL     1     -10.188   8.943  68.315  1.00  0.00    -0.201 C  
HETATM   26  O   UNL     1      -9.864   7.989  67.626  1.00  0.00    -0.151 OA 
BRANCH  25  27
HETATM   27  N   UNL     1     -11.125   8.866  69.307  1.00  0.00    -0.434 N  
HETATM   28  H   UNL     1     -11.899   8.208  69.221  1.00  0.00     0.000 HD 
BRANCH  27  29
HETATM   29  C   UNL     1     -11.030   9.718  70.489  1.00  0.00    -0.321 C  
HETATM   30  C   UNL     1     -12.347  10.453  70.758  1.00  0.00    -0.463 C  
HETATM   31  C   UNL     1     -13.429   9.549  71.347  1.00  0.00    -0.405 C  
HETATM   32  C   UNL     1     -12.934   8.807  72.583  1.00  0.00    -0.305 C  
HETATM   33  C   UNL     1     -11.655   8.028  72.296  1.00  0.00    -0.424 C  
HETATM   34  C   UNL     1     -10.564   8.930  71.722  1.00  0.00    -0.432 C  
ENDBRANCH  27  29
ENDBRANCH  25  27
ENDBRANCH  23  25
ENDBRANCH  20  23
ENDBRANCH  17  20
ENDBRANCH  13  14
ENDBRANCH  12  13
ENDBRANCH  10  12
ENDBRANCH   5   8
TORSDOF 9
ENDMDL
MODEL      117
REMARK 921   NORMALIZED FREE ENERGY PREDICTED BY IDOCK:   -5.39 KCAL/MOL
REMARK 922        TOTAL FREE ENERGY PREDICTED BY IDOCK:   -9.73 KCAL/MOL
REMARK 923 INTER-LIGAND FREE ENERGY PREDICTED BY IDOCK:   -9.04 KCAL/MOL
REMARK 924 INTRA-LIGAND FREE ENERGY PREDICTED BY IDOCK:   -0.68 KCAL/MOL
REMARK 927      BINDING AFFINITY PREDICTED BY RF-SCORE:    0.00 PKD
ROOT
HETATM    1  C   UNL     1      -8.287  19.725  68.041  1.00  0.00    -0.332 C  
HETATM    2  C   UNL     1      -8.961  18.765  67.113  1.00  0.00    -0.281 A  
HETATM    3  N   UNL     1     -10.160  19.129  66.593  1.00  0.00    -0.363 NA 
HETATM    4  C   UNL     1     -10.756  18.217  65.784  1.00  0.00    -0.107 A  
HETATM    5  C   UNL     1     -10.178  16.990  65.497  1.00  0.00    -0.089 A  
HETATM    6  C   UNL     1      -8.381  17.533  66.807  1.00  0.00    -0.251 A  
HETATM    7  N   UNL     1      -8.966  16.614  65.996  1.00  0.00    -0.482 NA 
ENDROOT
BRANCH   5   8
HETATM    8  C   UNL     1     -10.916  16.019  64.643  1.00  0.00    -0.278 C  
HETATM    9  O   UNL     1     -11.695  16.407  63.779  1.00  0.00    -1.049 OA 
HETATM   10  N   UNL     1     -10.677  14.684  64.911  1.00  0.00    -0.469 N  
HETATM   11  H   UNL     1      -9.957  14.433  65.587  1.00  0.00     0.000 HD 
BRANCH  10  12
HETATM   12  C   UNL     1     -11.426  13.633  64.251  1.00  0.00    -0.366 C  
BRANCH  12  13
HETATM   13  C   UNL     1     -10.640  12.316  64.136  1.00  0.00    -0.408 C  
BRANCH  13  14
HETATM   14  C   UNL     1     -10.664  11.453  65.385  1.00  0.00    -0.313 A  
HETATM   15  C   UNL     1     -11.363  11.844  66.537  1.00  0.00    -0.403 A  
HETATM   16  C   UNL     1     -11.339  11.064  67.694  1.00  0.00    -0.355 A  
HETATM   17  C   UNL     1     -10.664   9.845  67.698  1.00  0.00    -0.281 A  
HETATM   18  C   UNL     1     -10.001   9.410  66.546  1.00  0.00    -0.339 A  
HETATM   19  C   UNL     1     -10.009  10.208  65.397  1.00  0.00    -0.377 A  
BRANCH  17  20
HETATM   20  S   UNL     1     -10.533   8.932  69.218  1.00  0.00    -0.208 S  
HETATM   21  O   UNL     1     -11.258   9.634  70.254  1.00  0.00    -0.246 OA 
HETATM   22  O   UNL     1      -9.132   8.604  69.402  1.00  0.00    -0.147 OA 
BRANCH  20  23
HETATM   23  N   UNL     1     -11.271   7.474  68.900  1.00  0.00    -0.394 N  
HETATM   24  H   UNL     1     -11.915   7.431  68.110  1.00  0.00     0.000 HD 
BRANCH  23  25
HETATM   25  C   UNL     1     -11.073   6.317  69.631  1.00  0.00    -0.412 C  
HETATM   26  O   UNL     1     -11.685   6.058  70.654  1.00  0.00    -0.196 OA 
BRANCH  25  27
HETATM   27  N   UNL     1     -10.139   5.482  69.084  1.00  0.00    -0.196 N  
HETATM   28  H   UNL     1      -9.215   5.411  69.510  1.00  0.00     0.000 HD 
BRANCH  27  29
HETATM   29  C   UNL     1     -10.451   4.691  67.897  1.00  0.00     0.256 C  
HETATM   30  C   UNL     1     -10.587   5.576  66.654  1.00  0.00    -0.365 C  
HETATM   31  C   UNL     1      -9.245   6.072  66.120  1.00  0.00    -0.154 C  
HETATM   32  C   UNL     1      -8.269   4.923  65.891  1.00  0.00    -0.113 C  
HETATM   33  C   UNL     1      -8.089   4.080  67.148  1.00  0.00    -0.096 C  
HETATM   34  C   UNL     1      -9.428   3.568  67.678  1.00  0.00    -0.233 C  
ENDBRANCH  27  29
ENDBRANCH  25  27
ENDBRANCH  23  25
ENDBRANCH  20  23
ENDBRANCH  17  20
ENDBRANCH  13  14
ENDBRANCH  12  13
ENDBRANCH  10  12
ENDBRANCH   5   8
TORSDOF 9
ENDMDL
MODEL      118
REMARK 921   NORMALIZED FREE ENERGY PREDICTED BY IDOCK:   -5.39 KCAL/MOL
REMARK 922        TOTAL FREE ENERGY PREDICTED BY IDOCK:   -9.72 KCAL/MOL
REMARK 923 INTER-LIGAND FREE ENERGY PREDICTED BY IDOCK:   -8.18 KCAL/MOL
REMARK 924 INTRA-LIGAND FREE ENERGY PREDICTED BY IDOCK:   -1.54 KCAL/MOL
REMARK 927      BINDING AFFINITY PREDICTED BY RF-SCORE:    0.00 PKD
ROOT
HETATM    1  C   UNL     1      -5.134  13.002  67.820  1.00  0.00    -0.094 C  
HETATM    2  C   UNL     1      -6.356  13.779  68.193  1.00  0.00    -0.125 A  
HETATM    3  N   UNL     1      -6.210  14.790  69.086  1.00  0.00    -0.101 NA 
HETATM    4  C   UNL     1      -7.347  15.448  69.425  1.00  0.00    -0.213 A  
HETATM    5  C   UNL     1      -8.584  15.117  68.893  1.00  0.00    -0.200 A  
HETATM    6  C   UNL     1      -7.603  13.463  67.651  1.00  0.00    -0.174 A  
HETATM    7  N   UNL     1      -8.747  14.116  67.981  1.00  0.00    -0.168 NA 
ENDROOT
BRANCH   5   8
HETATM    8  C   UNL     1      -9.796  15.850  69.353  1.00  0.00    -0.280 C  
HETATM    9  O   UNL     1     -10.230  16.807  68.721  1.00  0.00    -0.261 OA 
HETATM   10  N   UNL     1     -10.362  15.391  70.528  1.00  0.00    -0.440 N  
HETATM   11  H   UNL     1      -9.998  14.540  70.957  1.00  0.00     0.000 HD 
BRANCH  10  12
HETATM   12  C   UNL     1     -11.461  16.091  71.163  1.00  0.00    -0.419 C  
BRANCH  12  13
HETATM   13  C   UNL     1     -12.832  15.473  70.843  1.00  0.00    -0.535 C  
BRANCH  13  14
HETATM   14  C   UNL     1     -12.914  13.971  71.046  1.00  0.00    -0.378 A  
HETATM   15  C   UNL     1     -13.613  13.412  72.126  1.00  0.00    -0.660 A  
HETATM   16  C   UNL     1     -13.642  12.030  72.328  1.00  0.00    -0.164 A  
HETATM   17  C   UNL     1     -13.022  11.180  71.415  1.00  0.00    -0.403 A  
HETATM   18  C   UNL     1     -12.361  11.711  70.303  1.00  0.00    -0.339 A  
HETATM   19  C   UNL     1     -12.315  13.099  70.120  1.00  0.00    -0.284 A  
BRANCH  17  20
HETATM   20  S   UNL     1     -12.955   9.438  71.760  1.00  0.00    -0.435 S  
HETATM   21  O   UNL     1     -13.682   8.725  70.733  1.00  0.00     0.160 OA 
HETATM   22  O   UNL     1     -13.306   9.263  73.157  1.00  0.00    -0.101 OA 
BRANCH  20  23
HETATM   23  N   UNL     1     -11.338   9.053  71.678  1.00  0.00    -0.335 N  
HETATM   24  H   UNL     1     -10.706   9.522  72.328  1.00  0.00     0.000 HD 
BRANCH  23  25
HETATM   25  C   UNL     1     -10.791   8.143  70.792  1.00  0.00    -0.228 C  
HETATM   26  O   UNL     1     -10.370   7.049  71.130  1.00  0.00    -0.206 OA 
BRANCH  25  27
HETATM   27  N   UNL     1     -10.786   8.581  69.497  1.00  0.00    -0.384 N  
HETATM   28  H   UNL     1     -11.653   8.576  68.960  1.00  0.00     0.000 HD 
BRANCH  27  29
HETATM   29  C   UNL     1      -9.555   9.057  68.875  1.00  0.00    -0.156 C  
HETATM   30  C   UNL     1      -9.130   8.156  67.711  1.00  0.00    -0.140 C  
HETATM   31  C   UNL     1      -9.982   8.352  66.458  1.00  0.00    -0.335 C  
HETATM   32  C   UNL     1     -10.046   9.818  66.044  1.00  0.00    -0.322 C  
HETATM   33  C   UNL     1     -10.526  10.705  67.187  1.00  0.00    -0.295 C  
HETATM   34  C   UNL     1      -9.668  10.524  68.438  1.00  0.00    -0.166 C  
ENDBRANCH  27  29
ENDBRANCH  25  27
ENDBRANCH  23  25
ENDBRANCH  20  23
ENDBRANCH  17  20
ENDBRANCH  13  14
ENDBRANCH  12  13
ENDBRANCH  10  12
ENDBRANCH   5   8
TORSDOF 9
ENDMDL
MODEL      119
REMARK 921   NORMALIZED FREE ENERGY PREDICTED BY IDOCK:   -5.37 KCAL/MOL
REMARK 922        TOTAL FREE ENERGY PREDICTED BY IDOCK:   -9.70 KCAL/MOL
REMARK 923 INTER-LIGAND FREE ENERGY PREDICTED BY IDOCK:   -7.88 KCAL/MOL
REMARK 924 INTRA-LIGAND FREE ENERGY PREDICTED BY IDOCK:   -1.82 KCAL/MOL
REMARK 927      BINDING AFFINITY PREDICTED BY RF-SCORE:    0.00 PKD
ROOT
HETATM    1  C   UNL     1     -13.944  15.769  72.864  1.00  0.00    -0.467 C  
HETATM    2  C   UNL     1     -13.452  14.594  72.079  1.00  0.00    -0.380 A  
HETATM    3  N   UNL     1     -13.736  13.356  72.556  1.00  0.00    -0.698 NA 
HETATM    4  C   UNL     1     -13.244  12.317  71.835  1.00  0.00    -0.376 A  
HETATM    5  C   UNL     1     -12.501  12.502  70.678  1.00  0.00    -0.238 A  
HETATM    6  C   UNL     1     -12.716  14.769  70.906  1.00  0.00    -0.342 A  
HETATM    7  N   UNL     1     -12.221  13.738  70.175  1.00  0.00    -0.350 NA 
ENDROOT
BRANCH   5   8
HETATM    8  C   UNL     1     -11.948  11.315  69.969  1.00  0.00    -0.368 C  
HETATM    9  O   UNL     1     -12.290  11.054  68.821  1.00  0.00    -0.533 OA 
HETATM   10  N   UNL     1     -11.063  10.542  70.697  1.00  0.00    -0.420 N  
HETATM   11  H   UNL     1     -10.761  10.863  71.616  1.00  0.00     0.000 HD 
BRANCH  10  12
HETATM   12  C   UNL     1     -10.553   9.286  70.182  1.00  0.00    -0.231 C  
BRANCH  12  13
HETATM   13  C   UNL     1      -9.397   8.718  71.022  1.00  0.00    -0.280 C  
BRANCH  13  14
HETATM   14  C   UNL     1      -9.172   7.225  70.861  1.00  0.00    -0.155 A  
HETATM   15  C   UNL     1      -7.882   6.679  70.784  1.00  0.00    -0.105 A  
HETATM   16  C   UNL     1      -7.689   5.310  70.590  1.00  0.00    -0.084 A  
HETATM   17  C   UNL     1      -8.787   4.454  70.532  1.00  0.00    -0.091 A  
HETATM   18  C   UNL     1     -10.081   4.967  70.656  1.00  0.00    -0.313 A  
HETATM   19  C   UNL     1     -10.268   6.344  70.826  1.00  0.00    -0.228 A  
BRANCH  17  20
HETATM   20  S   UNL     1      -8.527   2.737  70.151  1.00  0.00    -0.049 S  
HETATM   21  O   UNL     1      -9.005   1.931  71.252  1.00  0.00    -0.063 OA 
HETATM   22  O   UNL     1      -7.158   2.602  69.689  1.00  0.00    -0.040 OA 
BRANCH  20  23
HETATM   23  N   UNL     1      -9.459   2.459  68.800  1.00  0.00    -0.162 N  
HETATM   24  H   UNL     1     -10.367   2.013  68.934  1.00  0.00     0.000 HD 
BRANCH  23  25
HETATM   25  C   UNL     1      -9.089   2.788  67.509  1.00  0.00    -0.178 C  
HETATM   26  O   UNL     1      -9.035   1.976  66.600  1.00  0.00    -0.125 OA 
BRANCH  25  27
HETATM   27  N   UNL     1      -8.812   4.116  67.346  1.00  0.00    -0.111 N  
HETATM   28  H   UNL     1      -8.291   4.615  68.067  1.00  0.00     0.000 HD 
BRANCH  27  29
HETATM   29  C   UNL     1      -9.252   4.829  66.150  1.00  0.00    -0.144 C  
HETATM   30  C   UNL     1     -10.734   5.210  66.239  1.00  0.00    -0.272 C  
HETATM   31  C   UNL     1     -10.997   6.382  67.181  1.00  0.00    -0.476 C  
HETATM   32  C   UNL     1     -10.123   7.585  66.843  1.00  0.00    -0.336 C  
HETATM   33  C   UNL     1      -8.644   7.216  66.815  1.00  0.00    -0.124 C  
HETATM   34  C   UNL     1      -8.373   6.053  65.861  1.00  0.00    -0.138 C  
ENDBRANCH  27  29
ENDBRANCH  25  27
ENDBRANCH  23  25
ENDBRANCH  20  23
ENDBRANCH  17  20
ENDBRANCH  13  14
ENDBRANCH  12  13
ENDBRANCH  10  12
ENDBRANCH   5   8
TORSDOF 9
ENDMDL
MODEL      120
REMARK 921   NORMALIZED FREE ENERGY PREDICTED BY IDOCK:   -5.36 KCAL/MOL
REMARK 922        TOTAL FREE ENERGY PREDICTED BY IDOCK:   -9.68 KCAL/MOL
REMARK 923 INTER-LIGAND FREE ENERGY PREDICTED BY IDOCK:   -8.53 KCAL/MOL
REMARK 924 INTRA-LIGAND FREE ENERGY PREDICTED BY IDOCK:   -1.15 KCAL/MOL
REMARK 927      BINDING AFFINITY PREDICTED BY RF-SCORE:    0.00 PKD
ROOT
HETATM    1  C   UNL     1     -13.340  13.636  72.269  1.00  0.00    -0.622 C  
HETATM    2  C   UNL     1     -12.569  14.520  71.340  1.00  0.00    -0.341 A  
HETATM    3  N   UNL     1     -12.283  15.777  71.762  1.00  0.00    -0.412 NA 
HETATM    4  C   UNL     1     -11.613  16.559  70.879  1.00  0.00     0.026 A  
HETATM    5  C   UNL     1     -11.235  16.107  69.624  1.00  0.00    -0.331 A  
HETATM    6  C   UNL     1     -12.172  14.069  70.081  1.00  0.00    -0.359 A  
HETATM    7  N   UNL     1     -11.499  14.841  69.190  1.00  0.00    -0.282 NA 
ENDROOT
BRANCH   5   8
HETATM    8  C   UNL     1     -10.549  17.040  68.688  1.00  0.00    -0.362 C  
HETATM    9  O   UNL     1     -11.194  17.767  67.940  1.00  0.00    -0.077 OA 
HETATM   10  N   UNL     1      -9.168  17.005  68.714  1.00  0.00    -0.265 N  
HETATM   11  H   UNL     1      -8.697  16.437  69.418  1.00  0.00     0.000 HD 
BRANCH  10  12
HETATM   12  C   UNL     1      -8.372  17.758  67.765  1.00  0.00    -0.235 C  
BRANCH  12  13
HETATM   13  C   UNL     1      -8.129  17.000  66.450  1.00  0.00    -0.335 C  
BRANCH  13  14
HETATM   14  C   UNL     1      -8.745  15.614  66.394  1.00  0.00    -0.354 A  
HETATM   15  C   UNL     1      -9.937  15.366  65.696  1.00  0.00    -0.396 A  
HETATM   16  C   UNL     1     -10.518  14.097  65.691  1.00  0.00    -0.333 A  
HETATM   17  C   UNL     1      -9.882  13.037  66.333  1.00  0.00    -0.270 A  
HETATM   18  C   UNL     1      -8.668  13.248  66.994  1.00  0.00    -0.192 A  
HETATM   19  C   UNL     1      -8.103  14.528  67.016  1.00  0.00    -0.125 A  
BRANCH  17  20
HETATM   20  S   UNL     1     -10.703  11.463  66.429  1.00  0.00    -0.267 S  
HETATM   21  O   UNL     1     -10.171  10.591  65.405  1.00  0.00    -0.286 OA 
HETATM   22  O   UNL     1     -12.128  11.725  66.495  1.00  0.00    -0.498 OA 
BRANCH  20  23
HETATM   23  N   UNL     1     -10.310  10.873  67.935  1.00  0.00    -0.180 N  
HETATM   24  H   UNL     1      -9.540  11.320  68.433  1.00  0.00     0.000 HD 
BRANCH  23  25
HETATM   25  C   UNL     1     -10.953   9.819  68.558  1.00  0.00    -0.149 C  
HETATM   26  O   UNL     1     -11.561   9.933  69.610  1.00  0.00    -0.163 OA 
BRANCH  25  27
HETATM   27  N   UNL     1     -10.860   8.642  67.869  1.00  0.00    -0.487 N  
HETATM   28  H   UNL     1     -11.160   8.603  66.896  1.00  0.00     0.000 HD 
BRANCH  27  29
HETATM   29  C   UNL     1     -10.335   7.441  68.513  1.00  0.00    -0.198 C  
HETATM   30  C   UNL     1     -11.081   6.186  68.047  1.00  0.00    -0.316 C  
HETATM   31  C   UNL     1     -10.694   5.746  66.637  1.00  0.00    -0.333 C  
HETATM   32  C   UNL     1      -9.184   5.595  66.487  1.00  0.00    -0.149 C  
HETATM   33  C   UNL     1      -8.448   6.867  66.894  1.00  0.00    -0.115 C  
HETATM   34  C   UNL     1      -8.820   7.303  68.310  1.00  0.00    -0.127 C  
ENDBRANCH  27  29
ENDBRANCH  25  27
ENDBRANCH  23  25
ENDBRANCH  20  23
ENDBRANCH  17  20
ENDBRANCH  13  14
ENDBRANCH  12  13
ENDBRANCH  10  12
ENDBRANCH   5   8
TORSDOF 9
ENDMDL
MODEL      121
REMARK 921   NORMALIZED FREE ENERGY PREDICTED BY IDOCK:   -5.33 KCAL/MOL
REMARK 922        TOTAL FREE ENERGY PREDICTED BY IDOCK:   -9.64 KCAL/MOL
REMARK 923 INTER-LIGAND FREE ENERGY PREDICTED BY IDOCK:   -8.40 KCAL/MOL
REMARK 924 INTRA-LIGAND FREE ENERGY PREDICTED BY IDOCK:   -1.23 KCAL/MOL
REMARK 927      BINDING AFFINITY PREDICTED BY RF-SCORE:    0.00 PKD
ROOT
HETATM    1  C   UNL     1      -6.570  18.493  65.829  1.00  0.00    -0.312 C  
HETATM    2  C   UNL     1      -7.570  17.765  66.670  1.00  0.00    -0.236 A  
HETATM    3  N   UNL     1      -8.465  16.968  66.034  1.00  0.00    -0.517 NA 
HETATM    4  C   UNL     1      -9.377  16.352  66.828  1.00  0.00    -0.245 A  
HETATM    5  C   UNL     1      -9.395  16.517  68.205  1.00  0.00    -0.218 A  
HETATM    6  C   UNL     1      -7.587  17.913  68.058  1.00  0.00    -0.238 A  
HETATM    7  N   UNL     1      -8.493  17.300  68.863  1.00  0.00    -0.225 NA 
ENDROOT
BRANCH   5   8
HETATM    8  C   UNL     1     -10.460  15.851  69.005  1.00  0.00    -0.234 C  
HETATM    9  O   UNL     1     -11.013  16.439  69.927  1.00  0.00    -0.349 OA 
HETATM   10  N   UNL     1     -10.749  14.548  68.647  1.00  0.00    -0.245 N  
HETATM   11  H   UNL     1     -10.309  14.149  67.818  1.00  0.00     0.000 HD 
BRANCH  10  12
HETATM   12  C   UNL     1     -11.664  13.734  69.424  1.00  0.00    -0.325 C  
BRANCH  12  13
HETATM   13  C   UNL     1     -11.868  12.329  68.835  1.00  0.00    -0.355 C  
BRANCH  13  14
HETATM   14  C   UNL     1     -11.468  11.191  69.757  1.00  0.00    -0.388 A  
HETATM   15  C   UNL     1     -10.243  10.522  69.613  1.00  0.00    -0.207 A  
HETATM   16  C   UNL     1      -9.907   9.448  70.438  1.00  0.00    -0.313 A  
HETATM   17  C   UNL     1     -10.767   9.063  71.465  1.00  0.00    -0.351 A  
HETATM   18  C   UNL     1     -11.971   9.746  71.660  1.00  0.00    -0.454 A  
HETATM   19  C   UNL     1     -12.313  10.807  70.814  1.00  0.00    -0.480 A  
BRANCH  17  20
HETATM   20  S   UNL     1     -10.384   7.611  72.417  1.00  0.00    -0.261 S  
HETATM   21  O   UNL     1     -10.846   7.802  73.774  1.00  0.00    -0.170 OA 
HETATM   22  O   UNL     1      -8.996   7.281  72.158  1.00  0.00    -0.131 OA 
BRANCH  20  23
HETATM   23  N   UNL     1     -11.252   6.390  71.691  1.00  0.00    -0.266 N  
HETATM   24  H   UNL     1     -12.164   6.157  72.086  1.00  0.00     0.000 HD 
BRANCH  23  25
HETATM   25  C   UNL     1     -10.825   5.670  70.591  1.00  0.00    -0.234 C  
HETATM   26  O   UNL     1     -10.514   4.491  70.641  1.00  0.00    -0.069 OA 
BRANCH  25  27
HETATM   27  N   UNL     1     -10.805   6.401  69.437  1.00  0.00    -0.285 N  
HETATM   28  H   UNL     1     -11.308   7.287  69.392  1.00  0.00     0.000 HD 
BRANCH  27  29
HETATM   29  C   UNL     1     -10.071   5.929  68.267  1.00  0.00    -0.166 C  
HETATM   30  C   UNL     1     -10.565   6.607  66.984  1.00  0.00    -0.404 C  
HETATM   31  C   UNL     1     -10.090   8.052  66.848  1.00  0.00    -0.362 C  
HETATM   32  C   UNL     1      -8.578   8.167  67.002  1.00  0.00    -0.124 C  
HETATM   33  C   UNL     1      -8.096   7.544  68.308  1.00  0.00    -0.124 C  
HETATM   34  C   UNL     1      -8.555   6.093  68.442  1.00  0.00    -0.112 C  
ENDBRANCH  27  29
ENDBRANCH  25  27
ENDBRANCH  23  25
ENDBRANCH  20  23
ENDBRANCH  17  20
ENDBRANCH  13  14
ENDBRANCH  12  13
ENDBRANCH  10  12
ENDBRANCH   5   8
TORSDOF 9
ENDMDL
MODEL      122
REMARK 921   NORMALIZED FREE ENERGY PREDICTED BY IDOCK:   -5.33 KCAL/MOL
REMARK 922        TOTAL FREE ENERGY PREDICTED BY IDOCK:   -9.63 KCAL/MOL
REMARK 923 INTER-LIGAND FREE ENERGY PREDICTED BY IDOCK:   -8.02 KCAL/MOL
REMARK 924 INTRA-LIGAND FREE ENERGY PREDICTED BY IDOCK:   -1.61 KCAL/MOL
REMARK 927      BINDING AFFINITY PREDICTED BY RF-SCORE:    0.00 PKD
ROOT
HETATM    1  C   UNL     1     -12.649  12.021  63.514  1.00  0.00    -0.625 C  
HETATM    2  C   UNL     1     -11.731  12.236  64.675  1.00  0.00    -0.356 A  
HETATM    3  N   UNL     1     -12.005  13.268  65.511  1.00  0.00    -0.381 NA 
HETATM    4  C   UNL     1     -11.130  13.452  66.532  1.00  0.00    -0.297 A  
HETATM    5  C   UNL     1     -10.025  12.635  66.719  1.00  0.00    -0.234 A  
HETATM    6  C   UNL     1     -10.625  11.410  64.880  1.00  0.00    -0.307 A  
HETATM    7  N   UNL     1      -9.744  11.581  65.899  1.00  0.00    -0.225 NA 
ENDROOT
BRANCH   5   8
HETATM    8  C   UNL     1      -9.079  12.930  67.830  1.00  0.00    -0.201 C  
HETATM    9  O   UNL     1      -9.091  14.020  68.392  1.00  0.00    -0.191 OA 
HETATM   10  N   UNL     1      -8.200  11.914  68.152  1.00  0.00    -0.151 N  
HETATM   11  H   UNL     1      -8.300  11.006  67.700  1.00  0.00     0.000 HD 
BRANCH  10  12
HETATM   12  C   UNL     1      -7.137  12.110  69.119  1.00  0.00    -0.015 C  
BRANCH  12  13
HETATM   13  C   UNL     1      -6.196  10.900  69.232  1.00  0.00    -0.055 C  
BRANCH  13  14
HETATM   14  C   UNL     1      -6.891   9.580  69.514  1.00  0.00    -0.054 A  
HETATM   15  C   UNL     1      -7.166   9.159  70.824  1.00  0.00    -0.112 A  
HETATM   16  C   UNL     1      -7.765   7.922  71.072  1.00  0.00    -0.084 A  
HETATM   17  C   UNL     1      -8.155   7.112  70.009  1.00  0.00    -0.127 A  
HETATM   18  C   UNL     1      -7.936   7.531  68.693  1.00  0.00    -0.123 A  
HETATM   19  C   UNL     1      -7.314   8.762  68.451  1.00  0.00    -0.086 A  
BRANCH  17  20
HETATM   20  S   UNL     1      -8.791   5.486  70.346  1.00  0.00    -0.133 S  
HETATM   21  O   UNL     1      -8.237   5.013  71.596  1.00  0.00    -0.110 OA 
HETATM   22  O   UNL     1      -8.634   4.703  69.135  1.00  0.00    -0.079 OA 
BRANCH  20  23
HETATM   23  N   UNL     1     -10.435   5.700  70.501  1.00  0.00    -0.259 N  
HETATM   24  H   UNL     1     -10.897   5.262  71.298  1.00  0.00     0.000 HD 
BRANCH  23  25
HETATM   25  C   UNL     1     -11.218   6.430  69.626  1.00  0.00    -0.418 C  
HETATM   26  O   UNL     1     -11.231   6.240  68.421  1.00  0.00    -0.335 OA 
BRANCH  25  27
HETATM   27  N   UNL     1     -11.992   7.371  70.245  1.00  0.00    -0.527 N  
HETATM   28  H   UNL     1     -12.970   7.476  69.976  1.00  0.00     0.000 HD 
BRANCH  27  29
HETATM   29  C   UNL     1     -11.434   8.227  71.287  1.00  0.00    -0.274 C  
HETATM   30  C   UNL     1     -10.940   9.560  70.713  1.00  0.00    -0.389 C  
HETATM   31  C   UNL     1     -12.075  10.520  70.362  1.00  0.00    -0.418 C  
HETATM   32  C   UNL     1     -13.022  10.728  71.540  1.00  0.00    -0.562 C  
HETATM   33  C   UNL     1     -13.558   9.403  72.071  1.00  0.00    -0.505 C  
HETATM   34  C   UNL     1     -12.427   8.445  72.438  1.00  0.00    -0.390 C  
ENDBRANCH  27  29
ENDBRANCH  25  27
ENDBRANCH  23  25
ENDBRANCH  20  23
ENDBRANCH  17  20
ENDBRANCH  13  14
ENDBRANCH  12  13
ENDBRANCH  10  12
ENDBRANCH   5   8
TORSDOF 9
ENDMDL
MODEL      123
REMARK 921   NORMALIZED FREE ENERGY PREDICTED BY IDOCK:   -5.32 KCAL/MOL
REMARK 922        TOTAL FREE ENERGY PREDICTED BY IDOCK:   -9.61 KCAL/MOL
REMARK 923 INTER-LIGAND FREE ENERGY PREDICTED BY IDOCK:   -8.31 KCAL/MOL
REMARK 924 INTRA-LIGAND FREE ENERGY PREDICTED BY IDOCK:   -1.30 KCAL/MOL
REMARK 927      BINDING AFFINITY PREDICTED BY RF-SCORE:    0.00 PKD
ROOT
HETATM    1  C   UNL     1     -12.844  12.328  63.461  1.00  0.00    -0.409 C  
HETATM    2  C   UNL     1     -11.653  11.963  64.290  1.00  0.00    -0.324 A  
HETATM    3  N   UNL     1     -11.588  12.463  65.549  1.00  0.00    -0.369 NA 
HETATM    4  C   UNL     1     -10.476  12.138  66.257  1.00  0.00    -0.239 A  
HETATM    5  C   UNL     1      -9.470  11.341  65.735  1.00  0.00    -0.227 A  
HETATM    6  C   UNL     1     -10.642  11.149  63.778  1.00  0.00    -0.356 A  
HETATM    7  N   UNL     1      -9.527  10.815  64.478  1.00  0.00    -0.232 NA 
ENDROOT
BRANCH   5   8
HETATM    8  C   UNL     1      -8.255  11.071  66.553  1.00  0.00    -0.161 C  
HETATM    9  O   UNL     1      -8.131  10.015  67.164  1.00  0.00    -0.116 OA 
HETATM   10  N   UNL     1      -7.317  12.086  66.584  1.00  0.00    -0.378 N  
HETATM   11  H   UNL     1      -7.447  12.902  65.987  1.00  0.00     0.000 HD 
BRANCH  10  12
HETATM   12  C   UNL     1      -6.153  12.016  67.445  1.00  0.00    -0.130 C  
BRANCH  12  13
HETATM   13  C   UNL     1      -6.332  12.790  68.762  1.00  0.00    -0.080 C  
BRANCH  13  14
HETATM   14  C   UNL     1      -6.626  14.269  68.592  1.00  0.00    -0.090 A  
HETATM   15  C   UNL     1      -6.582  15.158  69.676  1.00  0.00    -0.173 A  
HETATM   16  C   UNL     1      -6.900  16.508  69.515  1.00  0.00    -0.175 A  
HETATM   17  C   UNL     1      -7.208  17.005  68.250  1.00  0.00    -0.196 A  
HETATM   18  C   UNL     1      -7.211  16.149  67.145  1.00  0.00    -0.255 A  
HETATM   19  C   UNL     1      -6.914  14.791  67.317  1.00  0.00    -0.014 A  
BRANCH  17  20
HETATM   20  S   UNL     1      -7.739  18.694  68.089  1.00  0.00    -0.290 S  
HETATM   21  O   UNL     1      -7.610  19.099  66.706  1.00  0.00    -0.227 OA 
HETATM   22  O   UNL     1      -7.083  19.453  69.136  1.00  0.00    -0.342 OA 
BRANCH  20  23
HETATM   23  N   UNL     1      -9.346  18.674  68.523  1.00  0.00    -0.335 N  
HETATM   24  H   UNL     1      -9.623  19.218  69.341  1.00  0.00     0.000 HD 
BRANCH  23  25
HETATM   25  C   UNL     1     -10.332  17.971  67.855  1.00  0.00    -0.392 C  
HETATM   26  O   UNL     1     -10.453  17.976  66.641  1.00  0.00    -0.357 OA 
BRANCH  25  27
HETATM   27  N   UNL     1     -11.145  17.251  68.686  1.00  0.00    -0.211 N  
HETATM   28  H   UNL     1     -12.155  17.374  68.634  1.00  0.00     0.000 HD 
BRANCH  27  29
HETATM   29  C   UNL     1     -10.581  16.309  69.648  1.00  0.00    -0.320 C  
HETATM   30  C   UNL     1     -11.470  16.177  70.890  1.00  0.00    -0.421 C  
HETATM   31  C   UNL     1     -12.732  15.354  70.640  1.00  0.00    -0.490 C  
HETATM   32  C   UNL     1     -12.407  13.995  70.030  1.00  0.00    -0.397 C  
HETATM   33  C   UNL     1     -11.574  14.133  68.761  1.00  0.00    -0.362 C  
HETATM   34  C   UNL     1     -10.302  14.942  69.009  1.00  0.00    -0.245 C  
ENDBRANCH  27  29
ENDBRANCH  25  27
ENDBRANCH  23  25
ENDBRANCH  20  23
ENDBRANCH  17  20
ENDBRANCH  13  14
ENDBRANCH  12  13
ENDBRANCH  10  12
ENDBRANCH   5   8
TORSDOF 9
ENDMDL
MODEL      124
REMARK 921   NORMALIZED FREE ENERGY PREDICTED BY IDOCK:   -5.28 KCAL/MOL
REMARK 922        TOTAL FREE ENERGY PREDICTED BY IDOCK:   -9.56 KCAL/MOL
REMARK 923 INTER-LIGAND FREE ENERGY PREDICTED BY IDOCK:   -8.94 KCAL/MOL
REMARK 924 INTRA-LIGAND FREE ENERGY PREDICTED BY IDOCK:   -0.62 KCAL/MOL
REMARK 927      BINDING AFFINITY PREDICTED BY RF-SCORE:    0.00 PKD
ROOT
HETATM    1  C   UNL     1      -8.992   2.206  63.986  1.00  0.00    -0.101 C  
HETATM    2  C   UNL     1      -8.873   3.305  64.995  1.00  0.00    -0.128 A  
HETATM    3  N   UNL     1      -7.626   3.740  65.306  1.00  0.00    -0.080 NA 
HETATM    4  C   UNL     1      -7.558   4.712  66.250  1.00  0.00    -0.090 A  
HETATM    5  C   UNL     1      -8.687   5.237  66.859  1.00  0.00    -0.111 A  
HETATM    6  C   UNL     1     -10.004   3.850  65.602  1.00  0.00    -0.104 A  
HETATM    7  N   UNL     1      -9.949   4.825  66.545  1.00  0.00    -0.214 NA 
ENDROOT
BRANCH   5   8
HETATM    8  C   UNL     1      -8.531   6.265  67.925  1.00  0.00    -0.117 C  
HETATM    9  O   UNL     1      -8.094   5.962  69.030  1.00  0.00    -0.101 OA 
HETATM   10  N   UNL     1      -8.927   7.545  67.585  1.00  0.00    -0.127 N  
HETATM   11  H   UNL     1      -9.204   7.742  66.623  1.00  0.00     0.000 HD 
BRANCH  10  12
HETATM   12  C   UNL     1      -8.957   8.613  68.564  1.00  0.00    -0.139 C  
BRANCH  12  13
HETATM   13  C   UNL     1     -10.374   9.152  68.823  1.00  0.00    -0.235 C  
BRANCH  13  14
HETATM   14  C   UNL     1     -10.802  10.280  67.901  1.00  0.00    -0.337 A  
HETATM   15  C   UNL     1     -10.406  10.321  66.556  1.00  0.00    -0.276 A  
HETATM   16  C   UNL     1     -10.768  11.388  65.731  1.00  0.00    -0.309 A  
HETATM   17  C   UNL     1     -11.586  12.403  66.223  1.00  0.00    -0.393 A  
HETATM   18  C   UNL     1     -12.034  12.358  67.547  1.00  0.00    -0.253 A  
HETATM   19  C   UNL     1     -11.648  11.298  68.376  1.00  0.00    -0.378 A  
BRANCH  17  20
HETATM   20  S   UNL     1     -11.923  13.817  65.200  1.00  0.00    -0.404 S  
HETATM   21  O   UNL     1     -13.348  14.064  65.193  1.00  0.00    -0.703 OA 
HETATM   22  O   UNL     1     -11.210  13.624  63.951  1.00  0.00    -0.253 OA 
BRANCH  20  23
HETATM   23  N   UNL     1     -11.135  15.077  65.948  1.00  0.00    -0.339 N  
HETATM   24  H   UNL     1     -11.040  15.041  66.963  1.00  0.00     0.000 HD 
BRANCH  23  25
HETATM   25  C   UNL     1     -10.599  16.170  65.290  1.00  0.00    -0.369 C  
HETATM   26  O   UNL     1     -11.116  16.682  64.311  1.00  0.00    -1.029 OA 
BRANCH  25  27
HETATM   27  N   UNL     1      -9.445  16.633  65.858  1.00  0.00    -0.238 N  
HETATM   28  H   UNL     1      -8.559  16.512  65.369  1.00  0.00     0.000 HD 
BRANCH  27  29
HETATM   29  C   UNL     1      -9.469  17.299  67.157  1.00  0.00    -0.256 C  
HETATM   30  C   UNL     1      -8.071  17.778  67.566  1.00  0.00    -0.228 C  
HETATM   31  C   UNL     1      -7.614  19.019  66.802  1.00  0.00    -0.245 C  
HETATM   32  C   UNL     1      -8.642  20.142  66.882  1.00  0.00    -0.397 C  
HETATM   33  C   UNL     1     -10.018  19.679  66.417  1.00  0.00    -0.556 C  
HETATM   34  C   UNL     1     -10.488  18.447  67.189  1.00  0.00    -0.434 C  
ENDBRANCH  27  29
ENDBRANCH  25  27
ENDBRANCH  23  25
ENDBRANCH  20  23
ENDBRANCH  17  20
ENDBRANCH  13  14
ENDBRANCH  12  13
ENDBRANCH  10  12
ENDBRANCH   5   8
TORSDOF 9
ENDMDL
MODEL      125
REMARK 921   NORMALIZED FREE ENERGY PREDICTED BY IDOCK:   -5.27 KCAL/MOL
REMARK 922        TOTAL FREE ENERGY PREDICTED BY IDOCK:   -9.54 KCAL/MOL
REMARK 923 INTER-LIGAND FREE ENERGY PREDICTED BY IDOCK:   -9.16 KCAL/MOL
REMARK 924 INTRA-LIGAND FREE ENERGY PREDICTED BY IDOCK:   -0.38 KCAL/MOL
REMARK 927      BINDING AFFINITY PREDICTED BY RF-SCORE:    0.00 PKD
ROOT
HETATM    1  C   UNL     1     -10.757  12.271  63.271  1.00  0.00    -0.335 C  
HETATM    2  C   UNL     1     -11.074  13.058  64.503  1.00  0.00    -0.351 A  
HETATM    3  N   UNL     1     -10.299  14.137  64.777  1.00  0.00    -0.421 NA 
HETATM    4  C   UNL     1     -10.596  14.804  65.921  1.00  0.00    -0.314 A  
HETATM    5  C   UNL     1     -11.630  14.416  66.760  1.00  0.00    -0.385 A  
HETATM    6  C   UNL     1     -12.122  12.684  65.346  1.00  0.00    -0.462 A  
HETATM    7  N   UNL     1     -12.431  13.345  66.492  1.00  0.00    -0.280 NA 
ENDROOT
BRANCH   5   8
HETATM    8  C   UNL     1     -11.862  15.165  68.026  1.00  0.00    -0.202 C  
HETATM    9  O   UNL     1     -11.484  16.325  68.147  1.00  0.00    -0.309 OA 
HETATM   10  N   UNL     1     -12.499  14.461  69.029  1.00  0.00    -0.552 N  
HETATM   11  H   UNL     1     -12.859  13.527  68.832  1.00  0.00     0.000 HD 
BRANCH  10  12
HETATM   12  C   UNL     1     -12.668  15.018  70.357  1.00  0.00    -0.325 C  
BRANCH  12  13
HETATM   13  C   UNL     1     -13.339  14.043  71.338  1.00  0.00    -0.387 C  
BRANCH  13  14
HETATM   14  C   UNL     1     -12.848  12.610  71.241  1.00  0.00    -0.344 A  
HETATM   15  C   UNL     1     -13.367  11.597  72.062  1.00  0.00    -0.405 A  
HETATM   16  C   UNL     1     -12.874  10.292  71.995  1.00  0.00    -0.457 A  
HETATM   17  C   UNL     1     -11.894   9.965  71.060  1.00  0.00    -0.376 A  
HETATM   18  C   UNL     1     -11.396  10.946  70.197  1.00  0.00    -0.367 A  
HETATM   19  C   UNL     1     -11.877  12.257  70.286  1.00  0.00    -0.324 A  
BRANCH  17  20
HETATM   20  S   UNL     1     -11.186   8.334  71.082  1.00  0.00    -0.265 S  
HETATM   21  O   UNL     1     -10.328   8.177  69.929  1.00  0.00    -0.205 OA 
HETATM   22  O   UNL     1     -12.269   7.399  71.319  1.00  0.00    -0.316 OA 
BRANCH  20  23
HETATM   23  N   UNL     1     -10.275   8.289  72.475  1.00  0.00    -0.310 N  
HETATM   24  H   UNL     1      -9.997   9.179  72.888  1.00  0.00     0.000 HD 
BRANCH  23  25
HETATM   25  C   UNL     1      -9.869   7.129  73.110  1.00  0.00    -0.211 C  
HETATM   26  O   UNL     1      -9.935   6.968  74.318  1.00  0.00    -0.305 OA 
BRANCH  25  27
HETATM   27  N   UNL     1      -9.405   6.173  72.250  1.00  0.00    -0.147 N  
HETATM   28  H   UNL     1      -8.532   6.327  71.748  1.00  0.00     0.000 HD 
BRANCH  27  29
HETATM   29  C   UNL     1     -10.148   4.933  72.045  1.00  0.00    -0.196 C  
HETATM   30  C   UNL     1     -10.322   4.625  70.553  1.00  0.00    -0.109 C  
HETATM   31  C   UNL     1      -9.045   4.113  69.892  1.00  0.00    -0.179 C  
HETATM   32  C   UNL     1      -8.455   2.927  70.648  1.00  0.00    -0.095 C  
HETATM   33  C   UNL     1      -8.226   3.256  72.119  1.00  0.00    -0.067 C  
HETATM   34  C   UNL     1      -9.505   3.755  72.790  1.00  0.00    -0.160 C  
ENDBRANCH  27  29
ENDBRANCH  25  27
ENDBRANCH  23  25
ENDBRANCH  20  23
ENDBRANCH  17  20
ENDBRANCH  13  14
ENDBRANCH  12  13
ENDBRANCH  10  12
ENDBRANCH   5   8
TORSDOF 9
ENDMDL
MODEL      126
REMARK 921   NORMALIZED FREE ENERGY PREDICTED BY IDOCK:   -5.25 KCAL/MOL
REMARK 922        TOTAL FREE ENERGY PREDICTED BY IDOCK:   -9.51 KCAL/MOL
REMARK 923 INTER-LIGAND FREE ENERGY PREDICTED BY IDOCK:   -8.09 KCAL/MOL
REMARK 924 INTRA-LIGAND FREE ENERGY PREDICTED BY IDOCK:   -1.42 KCAL/MOL
REMARK 927      BINDING AFFINITY PREDICTED BY RF-SCORE:    0.00 PKD
ROOT
HETATM    1  C   UNL     1     -10.689  12.100  64.020  1.00  0.00    -0.432 C  
HETATM    2  C   UNL     1     -10.007  10.802  64.315  1.00  0.00    -0.341 A  
HETATM    3  N   UNL     1     -10.175  10.271  65.552  1.00  0.00    -0.270 NA 
HETATM    4  C   UNL     1      -9.512   9.112  65.793  1.00  0.00    -0.254 A  
HETATM    5  C   UNL     1      -8.716   8.499  64.837  1.00  0.00    -0.054 A  
HETATM    6  C   UNL     1      -9.215  10.171  63.355  1.00  0.00    -0.291 A  
HETATM    7  N   UNL     1      -8.549   9.009  63.583  1.00  0.00    -0.171 NA 
ENDROOT
BRANCH   5   8
HETATM    8  C   UNL     1      -7.977   7.256  65.191  1.00  0.00    -0.128 C  
HETATM    9  O   UNL     1      -7.578   6.492  64.319  1.00  0.00    -0.085 OA 
HETATM   10  N   UNL     1      -7.802   7.029  66.543  1.00  0.00    -0.104 N  
HETATM   11  H   UNL     1      -8.087   7.746  67.210  1.00  0.00     0.000 HD 
BRANCH  10  12
HETATM   12  C   UNL     1      -7.222   5.795  67.036  1.00  0.00    -0.075 C  
BRANCH  12  13
HETATM   13  C   UNL     1      -8.239   4.901  67.764  1.00  0.00    -0.101 C  
BRANCH  13  14
HETATM   14  C   UNL     1      -9.180   5.642  68.696  1.00  0.00    -0.134 A  
HETATM   15  C   UNL     1     -10.556   5.731  68.435  1.00  0.00    -0.289 A  
HETATM   16  C   UNL     1     -11.403   6.455  69.276  1.00  0.00    -0.405 A  
HETATM   17  C   UNL     1     -10.898   7.051  70.429  1.00  0.00    -0.254 A  
HETATM   18  C   UNL     1      -9.539   6.934  70.737  1.00  0.00    -0.167 A  
HETATM   19  C   UNL     1      -8.690   6.228  69.878  1.00  0.00    -0.141 A  
BRANCH  17  20
HETATM   20  S   UNL     1     -11.965   8.078  71.413  1.00  0.00    -0.304 S  
HETATM   21  O   UNL     1     -11.300   8.391  72.659  1.00  0.00    -0.372 OA 
HETATM   22  O   UNL     1     -13.274   7.453  71.422  1.00  0.00    -0.364 OA 
BRANCH  20  23
HETATM   23  N   UNL     1     -12.163   9.464  70.513  1.00  0.00    -0.477 N  
HETATM   24  H   UNL     1     -12.102   9.383  69.498  1.00  0.00     0.000 HD 
BRANCH  23  25
HETATM   25  C   UNL     1     -12.404  10.718  71.045  1.00  0.00    -0.404 C  
HETATM   26  O   UNL     1     -13.166  10.915  71.978  1.00  0.00    -0.492 OA 
BRANCH  25  27
HETATM   27  N   UNL     1     -11.690  11.712  70.437  1.00  0.00    -0.507 N  
HETATM   28  H   UNL     1     -10.757  11.943  70.777  1.00  0.00     0.000 HD 
BRANCH  27  29
HETATM   29  C   UNL     1     -12.249  12.447  69.306  1.00  0.00    -0.037 C  
HETATM   30  C   UNL     1     -12.381  13.942  69.619  1.00  0.00    -0.301 C  
HETATM   31  C   UNL     1     -11.044  14.680  69.594  1.00  0.00    -0.284 C  
HETATM   32  C   UNL     1     -10.291  14.439  68.290  1.00  0.00    -0.239 C  
HETATM   33  C   UNL     1     -10.109  12.951  68.012  1.00  0.00    -0.235 C  
HETATM   34  C   UNL     1     -11.445  12.210  68.020  1.00  0.00    -0.380 C  
ENDBRANCH  27  29
ENDBRANCH  25  27
ENDBRANCH  23  25
ENDBRANCH  20  23
ENDBRANCH  17  20
ENDBRANCH  13  14
ENDBRANCH  12  13
ENDBRANCH  10  12
ENDBRANCH   5   8
TORSDOF 9
ENDMDL
MODEL      127
REMARK 921   NORMALIZED FREE ENERGY PREDICTED BY IDOCK:   -5.25 KCAL/MOL
REMARK 922        TOTAL FREE ENERGY PREDICTED BY IDOCK:   -9.51 KCAL/MOL
REMARK 923 INTER-LIGAND FREE ENERGY PREDICTED BY IDOCK:   -7.46 KCAL/MOL
REMARK 924 INTRA-LIGAND FREE ENERGY PREDICTED BY IDOCK:   -2.05 KCAL/MOL
REMARK 927      BINDING AFFINITY PREDICTED BY RF-SCORE:    0.00 PKD
ROOT
HETATM    1  C   UNL     1     -10.162  18.004  68.182  1.00  0.00    -0.392 C  
HETATM    2  C   UNL     1     -10.449  16.711  67.487  1.00  0.00    -0.317 A  
HETATM    3  N   UNL     1     -11.250  15.820  68.123  1.00  0.00    -0.343 NA 
HETATM    4  C   UNL     1     -11.459  14.645  67.476  1.00  0.00    -0.361 A  
HETATM    5  C   UNL     1     -10.897  14.368  66.239  1.00  0.00    -0.313 A  
HETATM    6  C   UNL     1      -9.900  16.429  66.236  1.00  0.00    -0.314 A  
HETATM    7  N   UNL     1     -10.103  15.259  65.577  1.00  0.00    -0.364 NA 
ENDROOT
BRANCH   5   8
HETATM    8  C   UNL     1     -11.128  13.036  65.615  1.00  0.00    -0.276 C  
HETATM    9  O   UNL     1     -12.228  12.499  65.671  1.00  0.00    -0.554 OA 
HETATM   10  N   UNL     1     -10.028  12.463  65.005  1.00  0.00    -0.417 N  
HETATM   11  H   UNL     1      -9.166  13.002  64.924  1.00  0.00     0.000 HD 
BRANCH  10  12
HETATM   12  C   UNL     1     -10.072  11.114  64.476  1.00  0.00    -0.308 C  
BRANCH  12  13
HETATM   13  C   UNL     1      -8.986  10.201  65.068  1.00  0.00    -0.227 C  
BRANCH  13  14
HETATM   14  C   UNL     1      -9.246   9.749  66.494  1.00  0.00    -0.194 A  
HETATM   15  C   UNL     1     -10.497   9.258  66.894  1.00  0.00    -0.284 A  
HETATM   16  C   UNL     1     -10.737   8.889  68.220  1.00  0.00    -0.135 A  
HETATM   17  C   UNL     1      -9.707   8.949  69.156  1.00  0.00    -0.168 A  
HETATM   18  C   UNL     1      -8.437   9.389  68.770  1.00  0.00    -0.122 A  
HETATM   19  C   UNL     1      -8.210   9.779  67.445  1.00  0.00    -0.114 A  
BRANCH  17  20
HETATM   20  S   UNL     1     -10.066   8.604  70.863  1.00  0.00    -0.227 S  
HETATM   21  O   UNL     1     -11.072   9.533  71.330  1.00  0.00    -0.334 OA 
HETATM   22  O   UNL     1      -8.796   8.494  71.555  1.00  0.00    -0.162 OA 
BRANCH  20  23
HETATM   23  N   UNL     1     -10.682   7.058  70.860  1.00  0.00    -0.231 N  
HETATM   24  H   UNL     1     -11.672   6.942  70.639  1.00  0.00     0.000 HD 
BRANCH  23  25
HETATM   25  C   UNL     1      -9.948   5.919  71.138  1.00  0.00    -0.189 C  
HETATM   26  O   UNL     1     -10.349   5.024  71.863  1.00  0.00    -0.202 OA 
BRANCH  25  27
HETATM   27  N   UNL     1      -8.738   5.885  70.503  1.00  0.00    -0.138 N  
HETATM   28  H   UNL     1      -8.050   6.613  70.691  1.00  0.00     0.000 HD 
BRANCH  27  29
HETATM   29  C   UNL     1      -8.421   4.817  69.559  1.00  0.00    -0.082 C  
HETATM   30  C   UNL     1      -9.662   4.377  68.774  1.00  0.00    -0.200 C  
HETATM   31  C   UNL     1     -10.074   5.375  67.693  1.00  0.00    -0.217 C  
HETATM   32  C   UNL     1      -8.911   5.717  66.768  1.00  0.00    -0.117 C  
HETATM   33  C   UNL     1      -7.698   6.212  67.549  1.00  0.00    -0.097 C  
HETATM   34  C   UNL     1      -7.272   5.210  68.621  1.00  0.00    -0.062 C  
ENDBRANCH  27  29
ENDBRANCH  25  27
ENDBRANCH  23  25
ENDBRANCH  20  23
ENDBRANCH  17  20
ENDBRANCH  13  14
ENDBRANCH  12  13
ENDBRANCH  10  12
ENDBRANCH   5   8
TORSDOF 9
ENDMDL
MODEL      128
REMARK 921   NORMALIZED FREE ENERGY PREDICTED BY IDOCK:   -5.25 KCAL/MOL
REMARK 922        TOTAL FREE ENERGY PREDICTED BY IDOCK:   -9.51 KCAL/MOL
REMARK 923 INTER-LIGAND FREE ENERGY PREDICTED BY IDOCK:   -7.67 KCAL/MOL
REMARK 924 INTRA-LIGAND FREE ENERGY PREDICTED BY IDOCK:   -1.84 KCAL/MOL
REMARK 927      BINDING AFFINITY PREDICTED BY RF-SCORE:    0.00 PKD
ROOT
HETATM    1  C   UNL     1     -12.525  15.566  64.344  1.00  0.00     0.096 C  
HETATM    2  C   UNL     1     -11.809  14.253  64.360  1.00  0.00    -0.426 A  
HETATM    3  N   UNL     1     -12.206  13.310  63.469  1.00  0.00    -0.706 NA 
HETATM    4  C   UNL     1     -11.556  12.121  63.538  1.00  0.00    -0.474 A  
HETATM    5  C   UNL     1     -10.544  11.879  64.455  1.00  0.00    -0.311 A  
HETATM    6  C   UNL     1     -10.780  14.005  65.269  1.00  0.00    -0.358 A  
HETATM    7  N   UNL     1     -10.120  12.821  65.346  1.00  0.00    -0.281 NA 
ENDROOT
BRANCH   5   8
HETATM    8  C   UNL     1      -9.913  10.531  64.507  1.00  0.00    -0.345 C  
HETATM    9  O   UNL     1      -9.471  10.006  63.491  1.00  0.00    -0.285 OA 
HETATM   10  N   UNL     1      -9.888   9.930  65.751  1.00  0.00    -0.272 N  
HETATM   11  H   UNL     1     -10.199  10.458  66.566  1.00  0.00     0.000 HD 
BRANCH  10  12
HETATM   12  C   UNL     1      -9.428   8.566  65.924  1.00  0.00    -0.137 C  
BRANCH  12  13
HETATM   13  C   UNL     1      -7.961   8.479  66.374  1.00  0.00    -0.099 C  
BRANCH  13  14
HETATM   14  C   UNL     1      -7.462   9.687  67.146  1.00  0.00    -0.088 A  
HETATM   15  C   UNL     1      -7.711   9.837  68.519  1.00  0.00    -0.081 A  
HETATM   16  C   UNL     1      -7.287  10.975  69.208  1.00  0.00    -0.113 A  
HETATM   17  C   UNL     1      -6.550  11.955  68.547  1.00  0.00    -0.061 A  
HETATM   18  C   UNL     1      -6.246  11.804  67.190  1.00  0.00    -0.147 A  
HETATM   19  C   UNL     1      -6.695  10.673  66.499  1.00  0.00    -0.116 A  
BRANCH  17  20
HETATM   20  S   UNL     1      -6.136  13.455  69.406  1.00  0.00    -0.110 S  
HETATM   21  O   UNL     1      -5.207  14.218  68.602  1.00  0.00    -0.082 OA 
HETATM   22  O   UNL     1      -5.793  13.090  70.767  1.00  0.00    -0.183 OA 
BRANCH  20  23
HETATM   23  N   UNL     1      -7.577  14.277  69.538  1.00  0.00    -0.362 N  
HETATM   24  H   UNL     1      -7.810  14.683  70.444  1.00  0.00     0.000 HD 
BRANCH  23  25
HETATM   25  C   UNL     1      -8.481  14.449  68.505  1.00  0.00    -0.170 C  
HETATM   26  O   UNL     1      -8.217  15.051  67.477  1.00  0.00    -0.155 OA 
BRANCH  25  27
HETATM   27  N   UNL     1      -9.692  13.860  68.739  1.00  0.00    -0.388 N  
HETATM   28  H   UNL     1      -9.734  12.865  68.960  1.00  0.00     0.000 HD 
BRANCH  27  29
HETATM   29  C   UNL     1     -10.924  14.640  68.678  1.00  0.00    -0.256 C  
HETATM   30  C   UNL     1     -12.159  13.752  68.872  1.00  0.00    -0.348 C  
HETATM   31  C   UNL     1     -12.363  13.316  70.322  1.00  0.00    -0.334 C  
HETATM   32  C   UNL     1     -12.368  14.507  71.274  1.00  0.00    -0.418 C  
HETATM   33  C   UNL     1     -11.110  15.355  71.120  1.00  0.00    -0.362 C  
HETATM   34  C   UNL     1     -10.909  15.807  69.675  1.00  0.00    -0.300 C  
ENDBRANCH  27  29
ENDBRANCH  25  27
ENDBRANCH  23  25
ENDBRANCH  20  23
ENDBRANCH  17  20
ENDBRANCH  13  14
ENDBRANCH  12  13
ENDBRANCH  10  12
ENDBRANCH   5   8
TORSDOF 9
ENDMDL
MODEL      129
REMARK 921   NORMALIZED FREE ENERGY PREDICTED BY IDOCK:   -5.24 KCAL/MOL
REMARK 922        TOTAL FREE ENERGY PREDICTED BY IDOCK:   -9.50 KCAL/MOL
REMARK 923 INTER-LIGAND FREE ENERGY PREDICTED BY IDOCK:   -8.88 KCAL/MOL
REMARK 924 INTRA-LIGAND FREE ENERGY PREDICTED BY IDOCK:   -0.62 KCAL/MOL
REMARK 927      BINDING AFFINITY PREDICTED BY RF-SCORE:    0.00 PKD
ROOT
HETATM    1  C   UNL     1      -9.737   2.420  67.548  1.00  0.00     0.262 C  
HETATM    2  C   UNL     1      -9.363   3.770  67.022  1.00  0.00    -0.195 A  
HETATM    3  N   UNL     1      -8.247   3.859  66.256  1.00  0.00    -0.104 NA 
HETATM    4  C   UNL     1      -7.922   5.104  65.827  1.00  0.00    -0.108 A  
HETATM    5  C   UNL     1      -8.682   6.220  66.141  1.00  0.00    -0.145 A  
HETATM    6  C   UNL     1     -10.130   4.896  67.321  1.00  0.00    -0.168 A  
HETATM    7  N   UNL     1      -9.817   6.147  66.895  1.00  0.00    -0.150 NA 
ENDROOT
BRANCH   5   8
HETATM    8  C   UNL     1      -8.233   7.562  65.678  1.00  0.00    -0.133 C  
HETATM    9  O   UNL     1      -7.860   8.411  66.481  1.00  0.00    -0.090 OA 
HETATM   10  N   UNL     1      -8.292   7.775  64.314  1.00  0.00    -0.363 N  
HETATM   11  H   UNL     1      -8.534   6.998  63.699  1.00  0.00     0.000 HD 
BRANCH  10  12
HETATM   12  C   UNL     1      -8.015   9.076  63.737  1.00  0.00    -0.147 C  
BRANCH  12  13
HETATM   13  C   UNL     1      -9.231   9.686  63.020  1.00  0.00    -0.147 C  
BRANCH  13  14
HETATM   14  C   UNL     1      -9.938  10.784  63.794  1.00  0.00    -0.411 A  
HETATM   15  C   UNL     1     -10.758  11.725  63.153  1.00  0.00    -0.319 A  
HETATM   16  C   UNL     1     -11.365  12.758  63.870  1.00  0.00    -0.498 A  
HETATM   17  C   UNL     1     -11.212  12.830  65.252  1.00  0.00    -0.293 A  
HETATM   18  C   UNL     1     -10.440  11.874  65.920  1.00  0.00    -0.296 A  
HETATM   19  C   UNL     1      -9.814  10.855  65.193  1.00  0.00    -0.329 A  
BRANCH  17  20
HETATM   20  S   UNL     1     -11.882  14.225  66.127  1.00  0.00    -0.397 S  
HETATM   21  O   UNL     1     -11.919  13.923  67.541  1.00  0.00    -0.377 OA 
HETATM   22  O   UNL     1     -13.092  14.626  65.435  1.00  0.00    -0.362 OA 
BRANCH  20  23
HETATM   23  N   UNL     1     -10.802  15.459  65.841  1.00  0.00    -0.327 N  
HETATM   24  H   UNL     1      -9.914  15.438  66.343  1.00  0.00     0.000 HD 
BRANCH  23  25
HETATM   25  C   UNL     1     -11.024  16.512  64.972  1.00  0.00    -0.210 C  
HETATM   26  O   UNL     1     -11.449  16.366  63.837  1.00  0.00    -1.063 OA 
BRANCH  25  27
HETATM   27  N   UNL     1     -10.740  17.734  65.514  1.00  0.00    -0.192 N  
HETATM   28  H   UNL     1     -10.955  18.581  64.989  1.00  0.00     0.000 HD 
BRANCH  27  29
HETATM   29  C   UNL     1     -10.134  17.839  66.838  1.00  0.00    -0.342 C  
HETATM   30  C   UNL     1      -8.604  17.874  66.751  1.00  0.00    -0.271 C  
HETATM   31  C   UNL     1      -8.061  19.216  66.263  1.00  0.00    -0.308 C  
HETATM   32  C   UNL     1      -8.608  20.379  67.083  1.00  0.00    -0.402 C  
HETATM   33  C   UNL     1     -10.132  20.375  67.117  1.00  0.00    -0.502 C  
HETATM   34  C   UNL     1     -10.680  19.041  67.620  1.00  0.00    -0.495 C  
ENDBRANCH  27  29
ENDBRANCH  25  27
ENDBRANCH  23  25
ENDBRANCH  20  23
ENDBRANCH  17  20
ENDBRANCH  13  14
ENDBRANCH  12  13
ENDBRANCH  10  12
ENDBRANCH   5   8
TORSDOF 9
ENDMDL
MODEL      130
REMARK 921   NORMALIZED FREE ENERGY PREDICTED BY IDOCK:   -5.23 KCAL/MOL
REMARK 922        TOTAL FREE ENERGY PREDICTED BY IDOCK:   -9.48 KCAL/MOL
REMARK 923 INTER-LIGAND FREE ENERGY PREDICTED BY IDOCK:   -7.98 KCAL/MOL
REMARK 924 INTRA-LIGAND FREE ENERGY PREDICTED BY IDOCK:   -1.49 KCAL/MOL
REMARK 927      BINDING AFFINITY PREDICTED BY RF-SCORE:    0.00 PKD
ROOT
HETATM    1  C   UNL     1     -10.515  18.521  65.957  1.00  0.00    -0.433 C  
HETATM    2  C   UNL     1     -10.533  17.086  65.534  1.00  0.00    -0.166 A  
HETATM    3  N   UNL     1     -11.407  16.729  64.559  1.00  0.00    -0.993 NA 
HETATM    4  C   UNL     1     -11.418  15.413  64.228  1.00  0.00    -0.171 A  
HETATM    5  C   UNL     1     -10.587  14.486  64.840  1.00  0.00    -0.427 A  
HETATM    6  C   UNL     1      -9.691  16.149  66.133  1.00  0.00    -0.323 A  
HETATM    7  N   UNL     1      -9.690  14.830  65.809  1.00  0.00    -0.330 NA 
ENDROOT
BRANCH   5   8
HETATM    8  C   UNL     1     -10.693  13.050  64.461  1.00  0.00    -0.385 C  
HETATM    9  O   UNL     1     -11.359  12.704  63.491  1.00  0.00    -0.458 OA 
HETATM   10  N   UNL     1     -10.019  12.164  65.280  1.00  0.00    -0.285 N  
HETATM   11  H   UNL     1      -9.419  12.528  66.020  1.00  0.00     0.000 HD 
BRANCH  10  12
HETATM   12  C   UNL     1     -10.145  10.730  65.111  1.00  0.00    -0.299 C  
BRANCH  12  13
HETATM   13  C   UNL     1      -9.115   9.935  65.930  1.00  0.00    -0.201 C  
BRANCH  13  14
HETATM   14  C   UNL     1      -9.694   9.171  67.107  1.00  0.00    -0.236 A  
HETATM   15  C   UNL     1     -10.009   9.809  68.316  1.00  0.00    -0.175 A  
HETATM   16  C   UNL     1     -10.498   9.087  69.406  1.00  0.00    -0.229 A  
HETATM   17  C   UNL     1     -10.740   7.720  69.284  1.00  0.00    -0.147 A  
HETATM   18  C   UNL     1     -10.481   7.070  68.074  1.00  0.00    -0.255 A  
HETATM   19  C   UNL     1      -9.968   7.796  66.992  1.00  0.00    -0.314 A  
BRANCH  17  20
HETATM   20  S   UNL     1     -11.234   6.796  70.720  1.00  0.00    -0.325 S  
HETATM   21  O   UNL     1     -10.661   5.470  70.648  1.00  0.00    -0.262 OA 
HETATM   22  O   UNL     1     -12.667   6.964  70.867  1.00  0.00    -0.328 OA 
BRANCH  20  23
HETATM   23  N   UNL     1     -10.577   7.628  72.004  1.00  0.00    -0.213 N  
HETATM   24  H   UNL     1     -11.218   8.095  72.645  1.00  0.00     0.000 HD 
BRANCH  23  25
HETATM   25  C   UNL     1      -9.222   7.730  72.262  1.00  0.00    -0.154 C  
HETATM   26  O   UNL     1      -8.672   8.780  72.552  1.00  0.00    -0.406 OA 
BRANCH  25  27
HETATM   27  N   UNL     1      -8.562   6.536  72.181  1.00  0.00    -0.124 N  
HETATM   28  H   UNL     1      -9.052   5.672  72.411  1.00  0.00     0.000 HD 
BRANCH  27  29
HETATM   29  C   UNL     1      -7.162   6.484  71.769  1.00  0.00    -0.086 C  
HETATM   30  C   UNL     1      -6.539   5.117  72.073  1.00  0.00    -0.044 C  
HETATM   31  C   UNL     1      -6.991   4.024  71.106  1.00  0.00    -0.032 C  
HETATM   32  C   UNL     1      -6.777   4.432  69.653  1.00  0.00    -0.037 C  
HETATM   33  C   UNL     1      -7.449   5.764  69.338  1.00  0.00    -0.079 C  
HETATM   34  C   UNL     1      -6.989   6.865  70.292  1.00  0.00    -0.066 C  
ENDBRANCH  27  29
ENDBRANCH  25  27
ENDBRANCH  23  25
ENDBRANCH  20  23
ENDBRANCH  17  20
ENDBRANCH  13  14
ENDBRANCH  12  13
ENDBRANCH  10  12
ENDBRANCH   5   8
TORSDOF 9
ENDMDL
MODEL      131
REMARK 921   NORMALIZED FREE ENERGY PREDICTED BY IDOCK:   -5.22 KCAL/MOL
REMARK 922        TOTAL FREE ENERGY PREDICTED BY IDOCK:   -9.46 KCAL/MOL
REMARK 923 INTER-LIGAND FREE ENERGY PREDICTED BY IDOCK:   -7.92 KCAL/MOL
REMARK 924 INTRA-LIGAND FREE ENERGY PREDICTED BY IDOCK:   -1.54 KCAL/MOL
REMARK 927      BINDING AFFINITY PREDICTED BY RF-SCORE:    0.00 PKD
ROOT
HETATM    1  C   UNL     1     -12.823  12.063  63.086  1.00  0.00    -0.184 C  
HETATM    2  C   UNL     1     -11.920  12.587  64.158  1.00  0.00    -0.429 A  
HETATM    3  N   UNL     1     -10.582  12.465  63.967  1.00  0.00    -0.379 NA 
HETATM    4  C   UNL     1      -9.797  12.920  64.976  1.00  0.00    -0.047 A  
HETATM    5  C   UNL     1     -10.322  13.481  66.130  1.00  0.00    -0.296 A  
HETATM    6  C   UNL     1     -12.438  13.167  65.316  1.00  0.00    -0.495 A  
HETATM    7  N   UNL     1     -11.663  13.628  66.331  1.00  0.00    -0.354 NA 
ENDROOT
BRANCH   5   8
HETATM    8  C   UNL     1      -9.399  13.909  67.218  1.00  0.00    -0.231 C  
HETATM    9  O   UNL     1      -9.821  14.512  68.198  1.00  0.00    -0.213 OA 
HETATM   10  N   UNL     1      -8.066  13.600  67.027  1.00  0.00    -0.384 N  
HETATM   11  H   UNL     1      -7.797  13.025  66.228  1.00  0.00     0.000 HD 
BRANCH  10  12
HETATM   12  C   UNL     1      -7.040  14.074  67.936  1.00  0.00    -0.160 C  
BRANCH  12  13
HETATM   13  C   UNL     1      -6.165  12.941  68.498  1.00  0.00    -0.077 C  
BRANCH  13  14
HETATM   14  C   UNL     1      -6.741  11.548  68.320  1.00  0.00    -0.064 A  
HETATM   15  C   UNL     1      -6.734  10.902  67.075  1.00  0.00    -0.098 A  
HETATM   16  C   UNL     1      -7.309   9.639  66.915  1.00  0.00    -0.091 A  
HETATM   17  C   UNL     1      -7.845   8.974  68.016  1.00  0.00    -0.101 A  
HETATM   18  C   UNL     1      -7.819   9.577  69.277  1.00  0.00    -0.088 A  
HETATM   19  C   UNL     1      -7.264  10.853  69.426  1.00  0.00    -0.126 A  
BRANCH  17  20
HETATM   20  S   UNL     1      -8.689   7.429  67.767  1.00  0.00    -0.125 S  
HETATM   21  O   UNL     1      -7.724   6.418  67.396  1.00  0.00    -0.101 OA 
HETATM   22  O   UNL     1      -9.831   7.696  66.913  1.00  0.00    -0.195 OA 
BRANCH  20  23
HETATM   23  N   UNL     1      -9.348   7.065  69.252  1.00  0.00    -0.146 N  
HETATM   24  H   UNL     1      -8.706   6.906  70.029  1.00  0.00     0.000 HD 
BRANCH  23  25
HETATM   25  C   UNL     1     -10.703   6.962  69.507  1.00  0.00    -0.246 C  
HETATM   26  O   UNL     1     -11.286   5.895  69.610  1.00  0.00    -0.395 OA 
BRANCH  25  27
HETATM   27  N   UNL     1     -11.322   8.171  69.652  1.00  0.00    -0.438 N  
HETATM   28  H   UNL     1     -12.062   8.440  69.004  1.00  0.00     0.000 HD 
BRANCH  27  29
HETATM   29  C   UNL     1     -10.935   9.082  70.725  1.00  0.00    -0.258 C  
HETATM   30  C   UNL     1     -11.350  10.524  70.412  1.00  0.00    -0.411 C  
HETATM   31  C   UNL     1     -12.848  10.768  70.581  1.00  0.00    -0.377 C  
HETATM   32  C   UNL     1     -13.341  10.324  71.953  1.00  0.00    -0.487 C  
HETATM   33  C   UNL     1     -12.980   8.870  72.237  1.00  0.00    -0.479 C  
HETATM   34  C   UNL     1     -11.480   8.624  72.085  1.00  0.00    -0.443 C  
ENDBRANCH  27  29
ENDBRANCH  25  27
ENDBRANCH  23  25
ENDBRANCH  20  23
ENDBRANCH  17  20
ENDBRANCH  13  14
ENDBRANCH  12  13
ENDBRANCH  10  12
ENDBRANCH   5   8
TORSDOF 9
ENDMDL
MODEL      132
REMARK 921   NORMALIZED FREE ENERGY PREDICTED BY IDOCK:   -5.20 KCAL/MOL
REMARK 922        TOTAL FREE ENERGY PREDICTED BY IDOCK:   -9.43 KCAL/MOL
REMARK 923 INTER-LIGAND FREE ENERGY PREDICTED BY IDOCK:   -7.82 KCAL/MOL
REMARK 924 INTRA-LIGAND FREE ENERGY PREDICTED BY IDOCK:   -1.61 KCAL/MOL
REMARK 927      BINDING AFFINITY PREDICTED BY RF-SCORE:    0.00 PKD
ROOT
HETATM    1  C   UNL     1     -12.284  14.969  64.128  1.00  0.00    -0.234 C  
HETATM    2  C   UNL     1     -11.723  13.731  64.754  1.00  0.00    -0.381 A  
HETATM    3  N   UNL     1     -10.630  13.174  64.174  1.00  0.00    -0.408 NA 
HETATM    4  C   UNL     1     -10.172  12.034  64.750  1.00  0.00    -0.279 A  
HETATM    5  C   UNL     1     -10.775  11.471  65.865  1.00  0.00    -0.272 A  
HETATM    6  C   UNL     1     -12.314  13.166  65.884  1.00  0.00    -0.398 A  
HETATM    7  N   UNL     1     -11.863  12.027  66.471  1.00  0.00    -0.605 NA 
ENDROOT
BRANCH   5   8
HETATM    8  C   UNL     1     -10.248  10.189  66.410  1.00  0.00    -0.221 C  
HETATM    9  O   UNL     1     -10.713   9.705  67.436  1.00  0.00    -0.275 OA 
HETATM   10  N   UNL     1      -9.209   9.620  65.699  1.00  0.00    -0.197 N  
HETATM   11  H   UNL     1      -8.927  10.034  64.811  1.00  0.00     0.000 HD 
BRANCH  10  12
HETATM   12  C   UNL     1      -8.510   8.447  66.187  1.00  0.00    -0.131 C  
BRANCH  12  13
HETATM   13  C   UNL     1      -7.071   8.748  66.636  1.00  0.00    -0.081 C  
BRANCH  13  14
HETATM   14  C   UNL     1      -6.881  10.107  67.285  1.00  0.00    -0.078 A  
HETATM   15  C   UNL     1      -7.307  10.362  68.597  1.00  0.00    -0.085 A  
HETATM   16  C   UNL     1      -7.168  11.629  69.167  1.00  0.00    -0.064 A  
HETATM   17  C   UNL     1      -6.542  12.648  68.452  1.00  0.00    -0.081 A  
HETATM   18  C   UNL     1      -6.064  12.405  67.161  1.00  0.00    -0.083 A  
HETATM   19  C   UNL     1      -6.228  11.139  66.587  1.00  0.00    -0.136 A  
BRANCH  17  20
HETATM   20  S   UNL     1      -6.495  14.287  69.141  1.00  0.00    -0.116 S  
HETATM   21  O   UNL     1      -5.911  15.189  68.173  1.00  0.00    -0.114 OA 
HETATM   22  O   UNL     1      -5.926  14.178  70.471  1.00  0.00    -0.157 OA 
BRANCH  20  23
HETATM   23  N   UNL     1      -8.091  14.684  69.394  1.00  0.00    -0.374 N  
HETATM   24  H   UNL     1      -8.484  14.503  70.318  1.00  0.00     0.000 HD 
BRANCH  23  25
HETATM   25  C   UNL     1      -8.923  15.241  68.439  1.00  0.00    -0.184 C  
HETATM   26  O   UNL     1      -9.372  14.615  67.494  1.00  0.00    -0.189 OA 
BRANCH  25  27
HETATM   27  N   UNL     1      -9.209  16.558  68.671  1.00  0.00    -0.230 N  
HETATM   28  H   UNL     1      -9.892  16.807  69.385  1.00  0.00     0.000 HD 
BRANCH  27  29
HETATM   29  C   UNL     1      -8.547  17.610  67.906  1.00  0.00    -0.238 C  
HETATM   30  C   UNL     1      -9.102  17.700  66.480  1.00  0.00    -0.284 C  
HETATM   31  C   UNL     1     -10.482  18.351  66.412  1.00  0.00    -0.412 C  
HETATM   32  C   UNL     1     -10.501  19.705  67.113  1.00  0.00    -0.595 C  
HETATM   33  C   UNL     1     -10.006  19.602  68.551  1.00  0.00    -0.542 C  
HETATM   34  C   UNL     1      -8.619  18.965  68.623  1.00  0.00    -0.376 C  
ENDBRANCH  27  29
ENDBRANCH  25  27
ENDBRANCH  23  25
ENDBRANCH  20  23
ENDBRANCH  17  20
ENDBRANCH  13  14
ENDBRANCH  12  13
ENDBRANCH  10  12
ENDBRANCH   5   8
TORSDOF 9
ENDMDL
MODEL      133
REMARK 921   NORMALIZED FREE ENERGY PREDICTED BY IDOCK:   -5.19 KCAL/MOL
REMARK 922        TOTAL FREE ENERGY PREDICTED BY IDOCK:   -9.42 KCAL/MOL
REMARK 923 INTER-LIGAND FREE ENERGY PREDICTED BY IDOCK:   -8.44 KCAL/MOL
REMARK 924 INTRA-LIGAND FREE ENERGY PREDICTED BY IDOCK:   -0.98 KCAL/MOL
REMARK 927      BINDING AFFINITY PREDICTED BY RF-SCORE:    0.00 PKD
ROOT
HETATM    1  C   UNL     1      -5.335  20.213  69.129  1.00  0.00    -0.253 C  
HETATM    2  C   UNL     1      -6.465  19.571  68.390  1.00  0.00    -0.248 A  
HETATM    3  N   UNL     1      -6.918  20.190  67.271  1.00  0.00    -0.230 NA 
HETATM    4  C   UNL     1      -7.966  19.595  66.648  1.00  0.00    -0.300 A  
HETATM    5  C   UNL     1      -8.540  18.423  67.116  1.00  0.00    -0.262 A  
HETATM    6  C   UNL     1      -7.040  18.383  68.845  1.00  0.00    -0.276 A  
HETATM    7  N   UNL     1      -8.087  17.777  68.229  1.00  0.00    -0.274 NA 
ENDROOT
BRANCH   5   8
HETATM    8  C   UNL     1      -9.722  17.857  66.410  1.00  0.00    -0.316 C  
HETATM    9  O   UNL     1     -10.689  18.561  66.141  1.00  0.00    -0.365 OA 
HETATM   10  N   UNL     1      -9.652  16.510  66.110  1.00  0.00    -0.307 N  
HETATM   11  H   UNL     1      -8.784  16.005  66.290  1.00  0.00     0.000 HD 
BRANCH  10  12
HETATM   12  C   UNL     1     -10.783  15.799  65.547  1.00  0.00    -0.383 C  
BRANCH  12  13
HETATM   13  C   UNL     1     -11.515  14.923  66.577  1.00  0.00    -0.286 C  
BRANCH  13  14
HETATM   14  C   UNL     1     -11.119  13.458  66.560  1.00  0.00    -0.312 A  
HETATM   15  C   UNL     1     -11.572  12.561  67.539  1.00  0.00    -0.424 A  
HETATM   16  C   UNL     1     -11.163  11.226  67.538  1.00  0.00    -0.357 A  
HETATM   17  C   UNL     1     -10.341  10.750  66.518  1.00  0.00    -0.244 A  
HETATM   18  C   UNL     1      -9.916  11.613  65.504  1.00  0.00    -0.277 A  
HETATM   19  C   UNL     1     -10.310  12.956  65.524  1.00  0.00    -0.304 A  
BRANCH  17  20
HETATM   20  S   UNL     1      -9.723   9.086  66.609  1.00  0.00    -0.252 S  
HETATM   21  O   UNL     1      -8.765   8.880  65.545  1.00  0.00    -0.162 OA 
HETATM   22  O   UNL     1     -10.871   8.208  66.737  1.00  0.00    -0.197 OA 
BRANCH  20  23
HETATM   23  N   UNL     1      -8.957   8.999  68.084  1.00  0.00    -0.133 N  
HETATM   24  H   UNL     1      -8.778   9.874  68.577  1.00  0.00     0.000 HD 
BRANCH  23  25
HETATM   25  C   UNL     1      -8.546   7.825  68.688  1.00  0.00    -0.129 C  
HETATM   26  O   UNL     1      -7.817   7.011  68.145  1.00  0.00    -0.114 OA 
BRANCH  25  27
HETATM   27  N   UNL     1      -9.018   7.675  69.962  1.00  0.00    -0.143 N  
HETATM   28  H   UNL     1      -8.365   7.496  70.724  1.00  0.00     0.000 HD 
BRANCH  27  29
HETATM   29  C   UNL     1     -10.448   7.770  70.243  1.00  0.00    -0.225 C  
HETATM   30  C   UNL     1     -11.049   6.394  70.553  1.00  0.00    -0.388 C  
HETATM   31  C   UNL     1     -10.686   5.880  71.945  1.00  0.00    -0.290 C  
HETATM   32  C   UNL     1     -11.019   6.900  73.028  1.00  0.00    -0.308 C  
HETATM   33  C   UNL     1     -10.370   8.251  72.748  1.00  0.00    -0.330 C  
HETATM   34  C   UNL     1     -10.742   8.777  71.363  1.00  0.00    -0.356 C  
ENDBRANCH  27  29
ENDBRANCH  25  27
ENDBRANCH  23  25
ENDBRANCH  20  23
ENDBRANCH  17  20
ENDBRANCH  13  14
ENDBRANCH  12  13
ENDBRANCH  10  12
ENDBRANCH   5   8
TORSDOF 9
ENDMDL
MODEL      134
REMARK 921   NORMALIZED FREE ENERGY PREDICTED BY IDOCK:   -5.19 KCAL/MOL
REMARK 922        TOTAL FREE ENERGY PREDICTED BY IDOCK:   -9.41 KCAL/MOL
REMARK 923 INTER-LIGAND FREE ENERGY PREDICTED BY IDOCK:   -8.36 KCAL/MOL
REMARK 924 INTRA-LIGAND FREE ENERGY PREDICTED BY IDOCK:   -1.04 KCAL/MOL
REMARK 927      BINDING AFFINITY PREDICTED BY RF-SCORE:    0.00 PKD
ROOT
HETATM    1  C   UNL     1      -9.956  20.780  67.671  1.00  0.00    -0.297 C  
HETATM    2  C   UNL     1     -10.015  19.347  67.248  1.00  0.00    -0.366 A  
HETATM    3  N   UNL     1     -10.251  19.087  65.938  1.00  0.00    -0.539 NA 
HETATM    4  C   UNL     1     -10.331  17.775  65.600  1.00  0.00    -0.091 A  
HETATM    5  C   UNL     1     -10.177  16.758  66.530  1.00  0.00    -0.316 A  
HETATM    6  C   UNL     1      -9.847  18.316  68.174  1.00  0.00    -0.341 A  
HETATM    7  N   UNL     1      -9.923  17.000  67.848  1.00  0.00    -0.271 NA 
ENDROOT
BRANCH   5   8
HETATM    8  C   UNL     1     -10.332  15.342  66.095  1.00  0.00    -0.313 C  
HETATM    9  O   UNL     1      -9.629  14.458  66.573  1.00  0.00    -0.269 OA 
HETATM   10  N   UNL     1     -11.288  15.116  65.123  1.00  0.00    -0.371 N  
HETATM   11  H   UNL     1     -11.892  15.884  64.830  1.00  0.00     0.000 HD 
BRANCH  10  12
HETATM   12  C   UNL     1     -11.451  13.813  64.510  1.00  0.00    -0.384 C  
BRANCH  12  13
HETATM   13  C   UNL     1     -12.429  12.906  65.276  1.00  0.00    -0.552 C  
BRANCH  13  14
HETATM   14  C   UNL     1     -11.775  11.980  66.286  1.00  0.00    -0.319 A  
HETATM   15  C   UNL     1     -10.953  10.917  65.884  1.00  0.00    -0.054 A  
HETATM   16  C   UNL     1     -10.395  10.044  66.820  1.00  0.00    -0.283 A  
HETATM   17  C   UNL     1     -10.600  10.258  68.181  1.00  0.00    -0.221 A  
HETATM   18  C   UNL     1     -11.375  11.341  68.609  1.00  0.00    -0.336 A  
HETATM   19  C   UNL     1     -11.952  12.198  67.664  1.00  0.00    -0.190 A  
BRANCH  17  20
HETATM   20  S   UNL     1      -9.994   9.062  69.348  1.00  0.00    -0.198 S  
HETATM   21  O   UNL     1      -9.975   9.656  70.666  1.00  0.00    -0.273 OA 
HETATM   22  O   UNL     1      -8.784   8.490  68.788  1.00  0.00    -0.136 OA 
BRANCH  20  23
HETATM   23  N   UNL     1     -11.108   7.826  69.302  1.00  0.00    -0.435 N  
HETATM   24  H   UNL     1     -12.055   8.028  69.624  1.00  0.00     0.000 HD 
BRANCH  23  25
HETATM   25  C   UNL     1     -10.841   6.543  68.858  1.00  0.00    -0.301 C  
HETATM   26  O   UNL     1     -10.871   6.222  67.681  1.00  0.00    -0.280 OA 
BRANCH  25  27
HETATM   27  N   UNL     1     -10.517   5.677  69.864  1.00  0.00    -0.281 N  
HETATM   28  H   UNL     1     -11.206   5.460  70.584  1.00  0.00     0.000 HD 
BRANCH  27  29
HETATM   29  C   UNL     1      -9.196   5.058  69.919  1.00  0.00    -0.124 C  
HETATM   30  C   UNL     1      -8.367   5.610  71.083  1.00  0.00    -0.122 C  
HETATM   31  C   UNL     1      -8.809   5.073  72.443  1.00  0.00    -0.133 C  
HETATM   32  C   UNL     1      -8.860   3.549  72.458  1.00  0.00    -0.104 C  
HETATM   33  C   UNL     1      -9.735   3.004  71.335  1.00  0.00    -0.219 C  
HETATM   34  C   UNL     1      -9.287   3.526  69.970  1.00  0.00    -0.246 C  
ENDBRANCH  27  29
ENDBRANCH  25  27
ENDBRANCH  23  25
ENDBRANCH  20  23
ENDBRANCH  17  20
ENDBRANCH  13  14
ENDBRANCH  12  13
ENDBRANCH  10  12
ENDBRANCH   5   8
TORSDOF 9
ENDMDL
MODEL      135
REMARK 921   NORMALIZED FREE ENERGY PREDICTED BY IDOCK:   -5.18 KCAL/MOL
REMARK 922        TOTAL FREE ENERGY PREDICTED BY IDOCK:   -9.40 KCAL/MOL
REMARK 923 INTER-LIGAND FREE ENERGY PREDICTED BY IDOCK:   -8.13 KCAL/MOL
REMARK 924 INTRA-LIGAND FREE ENERGY PREDICTED BY IDOCK:   -1.28 KCAL/MOL
REMARK 927      BINDING AFFINITY PREDICTED BY RF-SCORE:    0.00 PKD
ROOT
HETATM    1  C   UNL     1      -6.659  19.723  69.350  1.00  0.00    -0.390 C  
HETATM    2  C   UNL     1      -7.565  19.058  68.364  1.00  0.00    -0.308 A  
HETATM    3  N   UNL     1      -8.084  19.823  67.371  1.00  0.00    -0.287 NA 
HETATM    4  C   UNL     1      -8.928  19.191  66.517  1.00  0.00    -0.341 A  
HETATM    5  C   UNL     1      -9.242  17.846  66.642  1.00  0.00    -0.278 A  
HETATM    6  C   UNL     1      -7.875  17.701  68.473  1.00  0.00    -0.282 A  
HETATM    7  N   UNL     1      -8.716  17.057  67.623  1.00  0.00    -0.213 NA 
ENDROOT
BRANCH   5   8
HETATM    8  C   UNL     1     -10.218  17.234  65.699  1.00  0.00    -0.124 C  
HETATM    9  O   UNL     1     -10.969  17.936  65.030  1.00  0.00    -0.776 OA 
HETATM   10  N   UNL     1     -10.225  15.853  65.657  1.00  0.00    -0.358 N  
HETATM   11  H   UNL     1      -9.518  15.336  66.179  1.00  0.00     0.000 HD 
BRANCH  10  12
HETATM   12  C   UNL     1     -11.213  15.123  64.888  1.00  0.00    -0.417 C  
BRANCH  12  13
HETATM   13  C   UNL     1     -12.131  14.252  65.761  1.00  0.00    -0.414 C  
BRANCH  13  14
HETATM   14  C   UNL     1     -11.589  12.867  66.066  1.00  0.00    -0.424 A  
HETATM   15  C   UNL     1     -11.777  12.262  67.318  1.00  0.00    -0.394 A  
HETATM   16  C   UNL     1     -11.234  11.008  67.601  1.00  0.00    -0.373 A  
HETATM   17  C   UNL     1     -10.545  10.308  66.613  1.00  0.00    -0.162 A  
HETATM   18  C   UNL     1     -10.387  10.869  65.341  1.00  0.00    -0.326 A  
HETATM   19  C   UNL     1     -10.913  12.138  65.072  1.00  0.00    -0.355 A  
BRANCH  17  20
HETATM   20  S   UNL     1      -9.748   8.775  67.032  1.00  0.00    -0.219 S  
HETATM   21  O   UNL     1     -10.727   7.711  67.004  1.00  0.00    -0.348 OA 
HETATM   22  O   UNL     1      -8.962   9.013  68.227  1.00  0.00    -0.133 OA 
BRANCH  20  23
HETATM   23  N   UNL     1      -8.624   8.541  65.826  1.00  0.00    -0.159 N  
HETATM   24  H   UNL     1      -8.403   9.334  65.223  1.00  0.00     0.000 HD 
BRANCH  23  25
HETATM   25  C   UNL     1      -7.969   7.347  65.583  1.00  0.00    -0.118 C  
HETATM   26  O   UNL     1      -7.405   7.094  64.532  1.00  0.00    -0.069 OA 
BRANCH  25  27
HETATM   27  N   UNL     1      -7.998   6.487  66.645  1.00  0.00    -0.107 N  
HETATM   28  H   UNL     1      -7.878   6.849  67.591  1.00  0.00     0.000 HD 
BRANCH  27  29
HETATM   29  C   UNL     1      -8.199   5.055  66.440  1.00  0.00    -0.108 C  
HETATM   30  C   UNL     1      -7.110   4.232  67.137  1.00  0.00    -0.067 C  
HETATM   31  C   UNL     1      -7.286   4.163  68.652  1.00  0.00    -0.055 C  
HETATM   32  C   UNL     1      -8.685   3.691  69.036  1.00  0.00    -0.136 C  
HETATM   33  C   UNL     1      -9.765   4.550  68.390  1.00  0.00    -0.188 C  
HETATM   34  C   UNL     1      -9.603   4.610  66.872  1.00  0.00    -0.197 C  
ENDBRANCH  27  29
ENDBRANCH  25  27
ENDBRANCH  23  25
ENDBRANCH  20  23
ENDBRANCH  17  20
ENDBRANCH  13  14
ENDBRANCH  12  13
ENDBRANCH  10  12
ENDBRANCH   5   8
TORSDOF 9
ENDMDL
MODEL      136
REMARK 921   NORMALIZED FREE ENERGY PREDICTED BY IDOCK:   -5.18 KCAL/MOL
REMARK 922        TOTAL FREE ENERGY PREDICTED BY IDOCK:   -9.40 KCAL/MOL
REMARK 923 INTER-LIGAND FREE ENERGY PREDICTED BY IDOCK:   -8.15 KCAL/MOL
REMARK 924 INTRA-LIGAND FREE ENERGY PREDICTED BY IDOCK:   -1.25 KCAL/MOL
REMARK 927      BINDING AFFINITY PREDICTED BY RF-SCORE:    0.00 PKD
ROOT
HETATM    1  C   UNL     1      -6.658  19.723  69.350  1.00  0.00    -0.390 C  
HETATM    2  C   UNL     1      -7.556  19.032  68.374  1.00  0.00    -0.308 A  
HETATM    3  N   UNL     1      -8.092  19.777  67.376  1.00  0.00    -0.287 NA 
HETATM    4  C   UNL     1      -8.928  19.122  66.531  1.00  0.00    -0.341 A  
HETATM    5  C   UNL     1      -9.217  17.773  66.671  1.00  0.00    -0.269 A  
HETATM    6  C   UNL     1      -7.841  17.671  68.498  1.00  0.00    -0.282 A  
HETATM    7  N   UNL     1      -8.673  17.003  67.658  1.00  0.00    -0.213 NA 
ENDROOT
BRANCH   5   8
HETATM    8  C   UNL     1     -10.185  17.134  65.738  1.00  0.00    -0.219 C  
HETATM    9  O   UNL     1     -10.956  17.814  65.070  1.00  0.00    -0.784 OA 
HETATM   10  N   UNL     1     -10.161  15.753  65.704  1.00  0.00    -0.355 N  
HETATM   11  H   UNL     1      -9.440  15.254  66.224  1.00  0.00     0.000 HD 
BRANCH  10  12
HETATM   12  C   UNL     1     -11.138  14.996  64.946  1.00  0.00    -0.415 C  
BRANCH  12  13
HETATM   13  C   UNL     1     -12.027  14.105  65.829  1.00  0.00    -0.410 C  
BRANCH  13  14
HETATM   14  C   UNL     1     -11.442  12.740  66.144  1.00  0.00    -0.399 A  
HETATM   15  C   UNL     1     -11.603  12.143  67.404  1.00  0.00    -0.410 A  
HETATM   16  C   UNL     1     -11.021  10.908  67.695  1.00  0.00    -0.350 A  
HETATM   17  C   UNL     1     -10.318  10.219  66.710  1.00  0.00    -0.227 A  
HETATM   18  C   UNL     1     -10.185  10.771  65.432  1.00  0.00    -0.341 A  
HETATM   19  C   UNL     1     -10.751  12.021  65.153  1.00  0.00    -0.332 A  
BRANCH  17  20
HETATM   20  S   UNL     1      -9.473   8.715  67.139  1.00  0.00    -0.172 S  
HETATM   21  O   UNL     1      -8.603   8.968  68.266  1.00  0.00    -0.128 OA 
HETATM   22  O   UNL     1      -8.935   8.160  65.912  1.00  0.00    -0.171 OA 
BRANCH  20  23
HETATM   23  N   UNL     1     -10.684   7.663  67.584  1.00  0.00    -0.456 N  
HETATM   24  H   UNL     1     -11.643   7.914  67.343  1.00  0.00     0.000 HD 
BRANCH  23  25
HETATM   25  C   UNL     1     -10.481   6.473  68.260  1.00  0.00    -0.219 C  
HETATM   26  O   UNL     1     -11.367   5.881  68.853  1.00  0.00    -0.213 OA 
BRANCH  25  27
HETATM   27  N   UNL     1      -9.196   6.015  68.178  1.00  0.00    -0.117 N  
HETATM   28  H   UNL     1      -8.688   6.092  67.298  1.00  0.00     0.000 HD 
BRANCH  27  29
HETATM   29  C   UNL     1      -8.544   5.416  69.339  1.00  0.00    -0.099 C  
HETATM   30  C   UNL     1      -7.953   4.042  69.002  1.00  0.00    -0.057 C  
HETATM   31  C   UNL     1      -6.672   4.127  68.174  1.00  0.00    -0.047 C  
HETATM   32  C   UNL     1      -5.640   5.043  68.821  1.00  0.00    -0.015 C  
HETATM   33  C   UNL     1      -6.214   6.428  69.100  1.00  0.00    -0.034 C  
HETATM   34  C   UNL     1      -7.486   6.350  69.942  1.00  0.00    -0.088 C  
ENDBRANCH  27  29
ENDBRANCH  25  27
ENDBRANCH  23  25
ENDBRANCH  20  23
ENDBRANCH  17  20
ENDBRANCH  13  14
ENDBRANCH  12  13
ENDBRANCH  10  12
ENDBRANCH   5   8
TORSDOF 9
ENDMDL
MODEL      137
REMARK 921   NORMALIZED FREE ENERGY PREDICTED BY IDOCK:   -5.18 KCAL/MOL
REMARK 922        TOTAL FREE ENERGY PREDICTED BY IDOCK:   -9.40 KCAL/MOL
REMARK 923 INTER-LIGAND FREE ENERGY PREDICTED BY IDOCK:   -8.08 KCAL/MOL
REMARK 924 INTRA-LIGAND FREE ENERGY PREDICTED BY IDOCK:   -1.32 KCAL/MOL
REMARK 927      BINDING AFFINITY PREDICTED BY RF-SCORE:    0.00 PKD
ROOT
HETATM    1  C   UNL     1     -10.231  17.518  66.106  1.00  0.00    -0.339 C  
HETATM    2  C   UNL     1      -9.843  16.091  66.333  1.00  0.00    -0.288 A  
HETATM    3  N   UNL     1      -8.735  15.852  67.077  1.00  0.00    -0.205 NA 
HETATM    4  C   UNL     1      -8.396  14.547  67.231  1.00  0.00    -0.212 A  
HETATM    5  C   UNL     1      -9.135  13.517  66.671  1.00  0.00    -0.168 A  
HETATM    6  C   UNL     1     -10.589  15.047  65.785  1.00  0.00    -0.339 A  
HETATM    7  N   UNL     1     -10.262  13.737  65.935  1.00  0.00    -0.305 NA 
ENDROOT
BRANCH   5   8
HETATM    8  C   UNL     1      -8.672  12.111  66.838  1.00  0.00    -0.194 C  
HETATM    9  O   UNL     1      -7.711  11.848  67.553  1.00  0.00    -0.132 OA 
HETATM   10  N   UNL     1      -9.378  11.160  66.127  1.00  0.00    -0.199 N  
HETATM   11  H   UNL     1     -10.216  11.439  65.618  1.00  0.00     0.000 HD 
BRANCH  10  12
HETATM   12  C   UNL     1      -8.954   9.774  66.089  1.00  0.00    -0.152 C  
BRANCH  12  13
HETATM   13  C   UNL     1     -10.106   8.787  66.341  1.00  0.00    -0.313 C  
BRANCH  13  14
HETATM   14  C   UNL     1      -9.909   7.876  67.540  1.00  0.00    -0.221 A  
HETATM   15  C   UNL     1      -8.953   8.156  68.527  1.00  0.00    -0.137 A  
HETATM   16  C   UNL     1      -8.750   7.287  69.601  1.00  0.00    -0.141 A  
HETATM   17  C   UNL     1      -9.545   6.151  69.737  1.00  0.00    -0.150 A  
HETATM   18  C   UNL     1     -10.538   5.876  68.792  1.00  0.00    -0.340 A  
HETATM   19  C   UNL     1     -10.721   6.739  67.705  1.00  0.00    -0.334 A  
BRANCH  17  20
HETATM   20  S   UNL     1      -9.182   4.990  71.034  1.00  0.00    -0.152 S  
HETATM   21  O   UNL     1      -7.748   4.867  71.169  1.00  0.00    -0.078 OA 
HETATM   22  O   UNL     1      -9.996   3.813  70.796  1.00  0.00    -0.161 OA 
BRANCH  20  23
HETATM   23  N   UNL     1      -9.823   5.677  72.408  1.00  0.00    -0.163 N  
HETATM   24  H   UNL     1      -9.172   6.009  73.120  1.00  0.00     0.000 HD 
BRANCH  23  25
HETATM   25  C   UNL     1     -11.176   5.830  72.652  1.00  0.00    -0.301 C  
HETATM   26  O   UNL     1     -11.909   4.906  72.962  1.00  0.00    -0.251 OA 
BRANCH  25  27
HETATM   27  N   UNL     1     -11.606   7.122  72.534  1.00  0.00    -0.427 N  
HETATM   28  H   UNL     1     -11.382   7.797  73.265  1.00  0.00     0.000 HD 
BRANCH  27  29
HETATM   29  C   UNL     1     -12.383   7.546  71.373  1.00  0.00    -0.345 C  
HETATM   30  C   UNL     1     -13.841   7.833  71.749  1.00  0.00    -0.440 C  
HETATM   31  C   UNL     1     -14.019   9.150  72.501  1.00  0.00    -0.453 C  
HETATM   32  C   UNL     1     -13.389  10.318  71.750  1.00  0.00    -0.476 C  
HETATM   33  C   UNL     1     -11.921  10.055  71.430  1.00  0.00    -0.470 C  
HETATM   34  C   UNL     1     -11.739   8.745  70.664  1.00  0.00    -0.194 C  
ENDBRANCH  27  29
ENDBRANCH  25  27
ENDBRANCH  23  25
ENDBRANCH  20  23
ENDBRANCH  17  20
ENDBRANCH  13  14
ENDBRANCH  12  13
ENDBRANCH  10  12
ENDBRANCH   5   8
TORSDOF 9
ENDMDL
MODEL      138
REMARK 921   NORMALIZED FREE ENERGY PREDICTED BY IDOCK:   -5.18 KCAL/MOL
REMARK 922        TOTAL FREE ENERGY PREDICTED BY IDOCK:   -9.39 KCAL/MOL
REMARK 923 INTER-LIGAND FREE ENERGY PREDICTED BY IDOCK:   -7.66 KCAL/MOL
REMARK 924 INTRA-LIGAND FREE ENERGY PREDICTED BY IDOCK:   -1.73 KCAL/MOL
REMARK 927      BINDING AFFINITY PREDICTED BY RF-SCORE:    0.00 PKD
ROOT
HETATM    1  C   UNL     1     -11.984  13.888  66.519  1.00  0.00    -0.470 C  
HETATM    2  C   UNL     1     -11.894  12.930  67.664  1.00  0.00    -0.346 A  
HETATM    3  N   UNL     1     -11.661  11.626  67.376  1.00  0.00    -0.606 NA 
HETATM    4  C   UNL     1     -11.621  10.783  68.439  1.00  0.00    -0.239 A  
HETATM    5  C   UNL     1     -11.800  11.223  69.742  1.00  0.00    -0.364 A  
HETATM    6  C   UNL     1     -12.057  13.366  68.980  1.00  0.00    -0.259 A  
HETATM    7  N   UNL     1     -12.017  12.533  70.052  1.00  0.00    -0.334 NA 
ENDROOT
BRANCH   5   8
HETATM    8  C   UNL     1     -11.796  10.231  70.854  1.00  0.00    -0.377 C  
HETATM    9  O   UNL     1     -10.741   9.815  71.320  1.00  0.00    -0.304 OA 
HETATM   10  N   UNL     1     -13.040   9.814  71.288  1.00  0.00    -0.392 N  
HETATM   11  H   UNL     1     -13.875  10.262  70.911  1.00  0.00     0.000 HD 
BRANCH  10  12
HETATM   12  C   UNL     1     -13.184   8.755  72.266  1.00  0.00    -0.412 C  
BRANCH  12  13
HETATM   13  C   UNL     1     -13.372   7.368  71.628  1.00  0.00    -0.426 C  
BRANCH  13  14
HETATM   14  C   UNL     1     -12.091   6.719  71.135  1.00  0.00    -0.422 A  
HETATM   15  C   UNL     1     -11.770   6.667  69.771  1.00  0.00    -0.279 A  
HETATM   16  C   UNL     1     -10.612   6.027  69.327  1.00  0.00    -0.366 A  
HETATM   17  C   UNL     1      -9.721   5.481  70.248  1.00  0.00    -0.183 A  
HETATM   18  C   UNL     1      -9.994   5.564  71.617  1.00  0.00    -0.233 A  
HETATM   19  C   UNL     1     -11.169   6.186  72.054  1.00  0.00    -0.335 A  
BRANCH  17  20
HETATM   20  S   UNL     1      -8.323   4.555  69.658  1.00  0.00    -0.069 S  
HETATM   21  O   UNL     1      -8.424   3.193  70.136  1.00  0.00    -0.051 OA 
HETATM   22  O   UNL     1      -7.137   5.341  69.940  1.00  0.00    -0.058 OA 
BRANCH  20  23
HETATM   23  N   UNL     1      -8.467   4.584  68.000  1.00  0.00    -0.097 N  
HETATM   24  H   UNL     1      -9.284   4.135  67.587  1.00  0.00     0.000 HD 
BRANCH  23  25
HETATM   25  C   UNL     1      -7.556   5.174  67.143  1.00  0.00    -0.092 C  
HETATM   26  O   UNL     1      -6.460   4.696  66.898  1.00  0.00    -0.039 OA 
BRANCH  25  27
HETATM   27  N   UNL     1      -8.011   6.333  66.580  1.00  0.00    -0.107 N  
HETATM   28  H   UNL     1      -8.375   6.322  65.628  1.00  0.00     0.000 HD 
BRANCH  27  29
HETATM   29  C   UNL     1      -7.982   7.587  67.328  1.00  0.00    -0.118 C  
HETATM   30  C   UNL     1      -6.646   8.316  67.146  1.00  0.00    -0.058 C  
HETATM   31  C   UNL     1      -6.510   8.987  65.781  1.00  0.00    -0.064 C  
HETATM   32  C   UNL     1      -7.696   9.896  65.478  1.00  0.00    -0.124 C  
HETATM   33  C   UNL     1      -9.021   9.151  65.601  1.00  0.00    -0.249 C  
HETATM   34  C   UNL     1      -9.170   8.491  66.971  1.00  0.00    -0.187 C  
ENDBRANCH  27  29
ENDBRANCH  25  27
ENDBRANCH  23  25
ENDBRANCH  20  23
ENDBRANCH  17  20
ENDBRANCH  13  14
ENDBRANCH  12  13
ENDBRANCH  10  12
ENDBRANCH   5   8
TORSDOF 9
ENDMDL
MODEL      139
REMARK 921   NORMALIZED FREE ENERGY PREDICTED BY IDOCK:   -5.16 KCAL/MOL
REMARK 922        TOTAL FREE ENERGY PREDICTED BY IDOCK:   -9.37 KCAL/MOL
REMARK 923 INTER-LIGAND FREE ENERGY PREDICTED BY IDOCK:   -7.72 KCAL/MOL
REMARK 924 INTRA-LIGAND FREE ENERGY PREDICTED BY IDOCK:   -1.66 KCAL/MOL
REMARK 927      BINDING AFFINITY PREDICTED BY RF-SCORE:    0.00 PKD
ROOT
HETATM    1  C   UNL     1     -12.157  14.497  64.533  1.00  0.00    -0.501 C  
HETATM    2  C   UNL     1     -12.042  13.730  65.812  1.00  0.00    -0.429 A  
HETATM    3  N   UNL     1     -12.094  14.430  66.972  1.00  0.00    -0.400 NA 
HETATM    4  C   UNL     1     -11.951  13.703  68.109  1.00  0.00    -0.355 A  
HETATM    5  C   UNL     1     -11.771  12.328  68.094  1.00  0.00    -0.349 A  
HETATM    6  C   UNL     1     -11.875  12.344  65.807  1.00  0.00    -0.406 A  
HETATM    7  N   UNL     1     -11.734  11.605  66.938  1.00  0.00    -0.555 NA 
ENDROOT
BRANCH   5   8
HETATM    8  C   UNL     1     -11.568  11.605  69.379  1.00  0.00    -0.327 C  
HETATM    9  O   UNL     1     -10.594  10.880  69.545  1.00  0.00    -0.229 OA 
HETATM   10  N   UNL     1     -12.550  11.794  70.333  1.00  0.00    -0.162 N  
HETATM   11  H   UNL     1     -13.290  12.475  70.159  1.00  0.00     0.000 HD 
BRANCH  10  12
HETATM   12  C   UNL     1     -12.553  11.049  71.576  1.00  0.00    -0.356 C  
BRANCH  12  13
HETATM   13  C   UNL     1     -13.308   9.713  71.474  1.00  0.00    -0.468 C  
BRANCH  13  14
HETATM   14  C   UNL     1     -12.475   8.487  71.800  1.00  0.00    -0.388 A  
HETATM   15  C   UNL     1     -12.744   7.238  71.220  1.00  0.00    -0.400 A  
HETATM   16  C   UNL     1     -11.999   6.109  71.563  1.00  0.00    -0.132 A  
HETATM   17  C   UNL     1     -10.929   6.223  72.448  1.00  0.00    -0.254 A  
HETATM   18  C   UNL     1     -10.609   7.466  73.001  1.00  0.00    -0.392 A  
HETATM   19  C   UNL     1     -11.375   8.590  72.672  1.00  0.00    -0.248 A  
BRANCH  17  20
HETATM   20  S   UNL     1     -10.079   4.752  72.974  1.00  0.00    -0.168 S  
HETATM   21  O   UNL     1     -10.932   4.012  73.877  1.00  0.00    -0.235 OA 
HETATM   22  O   UNL     1      -8.748   5.151  73.390  1.00  0.00    -0.115 OA 
BRANCH  20  23
HETATM   23  N   UNL     1      -9.842   3.879  71.577  1.00  0.00    -0.186 N  
HETATM   24  H   UNL     1     -10.592   3.258  71.273  1.00  0.00     0.000 HD 
BRANCH  23  25
HETATM   25  C   UNL     1      -8.700   3.936  70.799  1.00  0.00    -0.073 C  
HETATM   26  O   UNL     1      -7.916   3.008  70.691  1.00  0.00    -0.046 OA 
BRANCH  25  27
HETATM   27  N   UNL     1      -8.547   5.127  70.145  1.00  0.00    -0.106 N  
HETATM   28  H   UNL     1      -9.371   5.661  69.871  1.00  0.00     0.000 HD 
BRANCH  27  29
HETATM   29  C   UNL     1      -7.217   5.642  69.835  1.00  0.00    -0.069 C  
HETATM   30  C   UNL     1      -7.241   6.549  68.600  1.00  0.00    -0.085 C  
HETATM   31  C   UNL     1      -7.842   7.926  68.879  1.00  0.00    -0.117 C  
HETATM   32  C   UNL     1      -7.169   8.605  70.066  1.00  0.00    -0.051 C  
HETATM   33  C   UNL     1      -7.200   7.724  71.310  1.00  0.00    -0.062 C  
HETATM   34  C   UNL     1      -6.586   6.351  71.041  1.00  0.00    -0.053 C  
ENDBRANCH  27  29
ENDBRANCH  25  27
ENDBRANCH  23  25
ENDBRANCH  20  23
ENDBRANCH  17  20
ENDBRANCH  13  14
ENDBRANCH  12  13
ENDBRANCH  10  12
ENDBRANCH   5   8
TORSDOF 9
ENDMDL
MODEL      140
REMARK 921   NORMALIZED FREE ENERGY PREDICTED BY IDOCK:   -5.14 KCAL/MOL
REMARK 922        TOTAL FREE ENERGY PREDICTED BY IDOCK:   -9.33 KCAL/MOL
REMARK 923 INTER-LIGAND FREE ENERGY PREDICTED BY IDOCK:   -7.84 KCAL/MOL
REMARK 924 INTRA-LIGAND FREE ENERGY PREDICTED BY IDOCK:   -1.49 KCAL/MOL
REMARK 927      BINDING AFFINITY PREDICTED BY RF-SCORE:    0.00 PKD
ROOT
HETATM    1  C   UNL     1     -11.987  14.947  69.362  1.00  0.00    -0.336 C  
HETATM    2  C   UNL     1     -11.547  14.043  68.254  1.00  0.00    -0.329 A  
HETATM    3  N   UNL     1     -10.703  13.029  68.567  1.00  0.00    -0.250 NA 
HETATM    4  C   UNL     1     -10.299  12.253  67.530  1.00  0.00    -0.203 A  
HETATM    5  C   UNL     1     -10.724  12.474  66.228  1.00  0.00    -0.260 A  
HETATM    6  C   UNL     1     -11.981  14.248  66.944  1.00  0.00    -0.438 A  
HETATM    7  N   UNL     1     -11.587  13.478  65.897  1.00  0.00    -0.325 NA 
ENDROOT
BRANCH   5   8
HETATM    8  C   UNL     1     -10.197  11.614  65.133  1.00  0.00    -0.274 C  
HETATM    9  O   UNL     1     -10.897  11.325  64.169  1.00  0.00    -0.357 OA 
HETATM   10  N   UNL     1      -8.901  11.163  65.298  1.00  0.00    -0.353 N  
HETATM   11  H   UNL     1      -8.349  11.508  66.083  1.00  0.00     0.000 HD 
BRANCH  10  12
HETATM   12  C   UNL     1      -8.308  10.210  64.380  1.00  0.00    -0.171 C  
BRANCH  12  13
HETATM   13  C   UNL     1      -8.656   8.751  64.719  1.00  0.00    -0.161 C  
BRANCH  13  14
HETATM   14  C   UNL     1      -8.405   8.359  66.164  1.00  0.00    -0.127 A  
HETATM   15  C   UNL     1      -9.353   7.641  66.908  1.00  0.00    -0.203 A  
HETATM   16  C   UNL     1      -9.129   7.326  68.250  1.00  0.00    -0.134 A  
HETATM   17  C   UNL     1      -7.922   7.672  68.854  1.00  0.00    -0.125 A  
HETATM   18  C   UNL     1      -6.941   8.345  68.119  1.00  0.00    -0.081 A  
HETATM   19  C   UNL     1      -7.182   8.679  66.781  1.00  0.00    -0.078 A  
BRANCH  17  20
HETATM   20  S   UNL     1      -7.711   7.383  70.595  1.00  0.00    -0.092 S  
HETATM   21  O   UNL     1      -6.336   7.651  70.954  1.00  0.00    -0.038 OA 
HETATM   22  O   UNL     1      -8.304   6.093  70.891  1.00  0.00    -0.123 OA 
BRANCH  20  23
HETATM   23  N   UNL     1      -8.713   8.489  71.331  1.00  0.00    -0.168 N  
HETATM   24  H   UNL     1      -8.846   9.389  70.870  1.00  0.00     0.000 HD 
BRANCH  23  25
HETATM   25  C   UNL     1      -9.378   8.274  72.525  1.00  0.00    -0.280 C  
HETATM   26  O   UNL     1      -8.817   7.927  73.551  1.00  0.00    -0.221 OA 
BRANCH  25  27
HETATM   27  N   UNL     1     -10.722   8.510  72.448  1.00  0.00    -0.342 N  
HETATM   28  H   UNL     1     -11.264   8.620  73.305  1.00  0.00     0.000 HD 
BRANCH  27  29
HETATM   29  C   UNL     1     -11.389   8.608  71.153  1.00  0.00    -0.275 C  
HETATM   30  C   UNL     1     -12.106   7.302  70.793  1.00  0.00    -0.284 C  
HETATM   31  C   UNL     1     -13.398   7.090  71.579  1.00  0.00    -0.370 C  
HETATM   32  C   UNL     1     -14.328   8.294  71.472  1.00  0.00    -0.525 C  
HETATM   33  C   UNL     1     -13.629   9.583  71.888  1.00  0.00    -0.468 C  
HETATM   34  C   UNL     1     -12.344   9.808  71.094  1.00  0.00    -0.451 C  
ENDBRANCH  27  29
ENDBRANCH  25  27
ENDBRANCH  23  25
ENDBRANCH  20  23
ENDBRANCH  17  20
ENDBRANCH  13  14
ENDBRANCH  12  13
ENDBRANCH  10  12
ENDBRANCH   5   8
TORSDOF 9
ENDMDL
MODEL      141
REMARK 921   NORMALIZED FREE ENERGY PREDICTED BY IDOCK:   -5.13 KCAL/MOL
REMARK 922        TOTAL FREE ENERGY PREDICTED BY IDOCK:   -9.33 KCAL/MOL
REMARK 923 INTER-LIGAND FREE ENERGY PREDICTED BY IDOCK:   -8.57 KCAL/MOL
REMARK 924 INTRA-LIGAND FREE ENERGY PREDICTED BY IDOCK:   -0.76 KCAL/MOL
REMARK 927      BINDING AFFINITY PREDICTED BY RF-SCORE:    0.00 PKD
ROOT
HETATM    1  C   UNL     1      -8.786   2.180  64.848  1.00  0.00    -0.118 C  
HETATM    2  C   UNL     1      -8.838   3.374  65.747  1.00  0.00    -0.133 A  
HETATM    3  N   UNL     1      -7.842   3.519  66.657  1.00  0.00    -0.081 NA 
HETATM    4  C   UNL     1      -7.942   4.595  67.478  1.00  0.00    -0.097 A  
HETATM    5  C   UNL     1      -8.992   5.497  67.394  1.00  0.00    -0.107 A  
HETATM    6  C   UNL     1      -9.882   4.295  65.661  1.00  0.00    -0.218 A  
HETATM    7  N   UNL     1      -9.992   5.377  66.474  1.00  0.00    -0.178 NA 
ENDROOT
BRANCH   5   8
HETATM    8  C   UNL     1      -9.063   6.625  68.364  1.00  0.00    -0.124 C  
HETATM    9  O   UNL     1      -9.376   6.429  69.533  1.00  0.00    -0.143 OA 
HETATM   10  N   UNL     1      -8.778   7.875  67.849  1.00  0.00    -0.125 N  
HETATM   11  H   UNL     1      -8.445   7.955  66.888  1.00  0.00     0.000 HD 
BRANCH  10  12
HETATM   12  C   UNL     1      -8.940   9.077  68.644  1.00  0.00    -0.137 C  
BRANCH  12  13
HETATM   13  C   UNL     1     -10.401   9.547  68.731  1.00  0.00    -0.228 C  
BRANCH  13  14
HETATM   14  C   UNL     1     -10.810  10.546  67.663  1.00  0.00    -0.355 A  
HETATM   15  C   UNL     1     -10.275  10.498  66.367  1.00  0.00    -0.296 A  
HETATM   16  C   UNL     1     -10.624  11.451  65.408  1.00  0.00    -0.333 A  
HETATM   17  C   UNL     1     -11.564  12.433  65.712  1.00  0.00    -0.398 A  
HETATM   18  C   UNL     1     -12.148  12.473  66.982  1.00  0.00    -0.147 A  
HETATM   19  C   UNL     1     -11.776  11.529  67.946  1.00  0.00    -0.317 A  
BRANCH  17  20
HETATM   20  S   UNL     1     -11.894  13.714  64.524  1.00  0.00    -0.432 S  
HETATM   21  O   UNL     1     -13.093  14.423  64.915  1.00  0.00    -0.593 OA 
HETATM   22  O   UNL     1     -11.798  13.114  63.207  1.00  0.00    -0.504 OA 
BRANCH  20  23
HETATM   23  N   UNL     1     -10.579  14.731  64.623  1.00  0.00    -0.590 N  
HETATM   24  H   UNL     1      -9.666  14.351  64.372  1.00  0.00     0.000 HD 
BRANCH  23  25
HETATM   25  C   UNL     1     -10.637  16.053  65.024  1.00  0.00    -0.316 C  
HETATM   26  O   UNL     1     -11.232  16.917  64.401  1.00  0.00    -1.159 OA 
BRANCH  25  27
HETATM   27  N   UNL     1      -9.980  16.294  66.198  1.00  0.00    -0.313 N  
HETATM   28  H   UNL     1      -9.013  16.617  66.178  1.00  0.00     0.000 HD 
BRANCH  27  29
HETATM   29  C   UNL     1     -10.649  16.094  67.481  1.00  0.00    -0.314 C  
HETATM   30  C   UNL     1     -10.277  14.743  68.101  1.00  0.00    -0.228 C  
HETATM   31  C   UNL     1      -8.869  14.721  68.694  1.00  0.00    -0.180 C  
HETATM   32  C   UNL     1      -8.650  15.871  69.671  1.00  0.00     0.044 C  
HETATM   33  C   UNL     1      -8.963  17.219  69.031  1.00  0.00    -0.083 C  
HETATM   34  C   UNL     1     -10.376  17.252  68.451  1.00  0.00    -0.366 C  
ENDBRANCH  27  29
ENDBRANCH  25  27
ENDBRANCH  23  25
ENDBRANCH  20  23
ENDBRANCH  17  20
ENDBRANCH  13  14
ENDBRANCH  12  13
ENDBRANCH  10  12
ENDBRANCH   5   8
TORSDOF 9
ENDMDL
MODEL      142
REMARK 921   NORMALIZED FREE ENERGY PREDICTED BY IDOCK:   -5.13 KCAL/MOL
REMARK 922        TOTAL FREE ENERGY PREDICTED BY IDOCK:   -9.33 KCAL/MOL
REMARK 923 INTER-LIGAND FREE ENERGY PREDICTED BY IDOCK:   -8.00 KCAL/MOL
REMARK 924 INTRA-LIGAND FREE ENERGY PREDICTED BY IDOCK:   -1.33 KCAL/MOL
REMARK 927      BINDING AFFINITY PREDICTED BY RF-SCORE:    0.00 PKD
ROOT
HETATM    1  C   UNL     1      -7.917   7.298  68.246  1.00  0.00    -0.124 C  
HETATM    2  C   UNL     1      -8.971   8.150  68.879  1.00  0.00    -0.141 A  
HETATM    3  N   UNL     1      -8.788   9.494  68.859  1.00  0.00    -0.134 NA 
HETATM    4  C   UNL     1      -9.748  10.231  69.473  1.00  0.00    -0.211 A  
HETATM    5  C   UNL     1     -10.852   9.653  70.082  1.00  0.00    -0.280 A  
HETATM    6  C   UNL     1     -10.093   7.579  69.481  1.00  0.00    -0.189 A  
HETATM    7  N   UNL     1     -11.061   8.305  70.097  1.00  0.00    -0.230 NA 
ENDROOT
BRANCH   5   8
HETATM    8  C   UNL     1     -11.837  10.523  70.783  1.00  0.00    -0.365 C  
HETATM    9  O   UNL     1     -12.677  10.040  71.535  1.00  0.00    -0.360 OA 
HETATM   10  N   UNL     1     -11.743  11.874  70.508  1.00  0.00    -0.495 N  
HETATM   11  H   UNL     1     -10.969  12.214  69.938  1.00  0.00     0.000 HD 
BRANCH  10  12
HETATM   12  C   UNL     1     -12.720  12.819  71.013  1.00  0.00    -0.243 C  
BRANCH  12  13
HETATM   13  C   UNL     1     -12.168  14.249  71.129  1.00  0.00    -0.431 C  
BRANCH  13  14
HETATM   14  C   UNL     1     -11.791  14.893  69.807  1.00  0.00    -0.356 A  
HETATM   15  C   UNL     1     -11.942  14.213  68.589  1.00  0.00    -0.373 A  
HETATM   16  C   UNL     1     -11.548  14.799  67.384  1.00  0.00    -0.377 A  
HETATM   17  C   UNL     1     -11.054  16.101  67.371  1.00  0.00    -0.134 A  
HETATM   18  C   UNL     1     -10.941  16.817  68.567  1.00  0.00    -0.312 A  
HETATM   19  C   UNL     1     -11.315  16.216  69.775  1.00  0.00    -0.323 A  
BRANCH  17  20
HETATM   20  S   UNL     1     -10.435  16.778  65.849  1.00  0.00    -0.233 S  
HETATM   21  O   UNL     1     -10.462  18.222  65.929  1.00  0.00    -0.532 OA 
HETATM   22  O   UNL     1     -11.116  16.095  64.766  1.00  0.00    -0.532 OA 
BRANCH  20  23
HETATM   23  N   UNL     1      -8.860  16.247  65.761  1.00  0.00    -0.135 N  
HETATM   24  H   UNL     1      -8.635  15.544  65.056  1.00  0.00     0.000 HD 
BRANCH  23  25
HETATM   25  C   UNL     1      -7.834  16.690  66.576  1.00  0.00    -0.307 C  
HETATM   26  O   UNL     1      -7.583  17.870  66.755  1.00  0.00    -0.196 OA 
BRANCH  25  27
HETATM   27  N   UNL     1      -7.143  15.677  67.179  1.00  0.00    -0.200 N  
HETATM   28  H   UNL     1      -6.135  15.603  67.043  1.00  0.00     0.000 HD 
BRANCH  27  29
HETATM   29  C   UNL     1      -7.832  14.699  68.016  1.00  0.00    -0.133 C  
HETATM   30  C   UNL     1      -7.499  13.264  67.590  1.00  0.00    -0.173 C  
HETATM   31  C   UNL     1      -6.100  12.822  68.015  1.00  0.00    -0.100 C  
HETATM   32  C   UNL     1      -5.868  13.038  69.506  1.00  0.00    -0.103 C  
HETATM   33  C   UNL     1      -6.143  14.481  69.915  1.00  0.00    -0.141 C  
HETATM   34  C   UNL     1      -7.547  14.924  69.507  1.00  0.00    -0.137 C  
ENDBRANCH  27  29
ENDBRANCH  25  27
ENDBRANCH  23  25
ENDBRANCH  20  23
ENDBRANCH  17  20
ENDBRANCH  13  14
ENDBRANCH  12  13
ENDBRANCH  10  12
ENDBRANCH   5   8
TORSDOF 9
ENDMDL
MODEL      143
REMARK 921   NORMALIZED FREE ENERGY PREDICTED BY IDOCK:   -5.12 KCAL/MOL
REMARK 922        TOTAL FREE ENERGY PREDICTED BY IDOCK:   -9.31 KCAL/MOL
REMARK 923 INTER-LIGAND FREE ENERGY PREDICTED BY IDOCK:   -8.43 KCAL/MOL
REMARK 924 INTRA-LIGAND FREE ENERGY PREDICTED BY IDOCK:   -0.88 KCAL/MOL
REMARK 927      BINDING AFFINITY PREDICTED BY RF-SCORE:    0.00 PKD
ROOT
HETATM    1  C   UNL     1      -5.339  18.358  67.235  1.00  0.00    -0.140 C  
HETATM    2  C   UNL     1      -6.544  17.522  66.940  1.00  0.00    -0.186 A  
HETATM    3  N   UNL     1      -6.584  16.271  67.461  1.00  0.00    -0.148 NA 
HETATM    4  C   UNL     1      -7.677  15.532  67.143  1.00  0.00    -0.222 A  
HETATM    5  C   UNL     1      -8.696  16.021  66.340  1.00  0.00    -0.327 A  
HETATM    6  C   UNL     1      -7.582  18.012  66.146  1.00  0.00    -0.250 A  
HETATM    7  N   UNL     1      -8.682  17.283  65.822  1.00  0.00    -0.500 NA 
ENDROOT
BRANCH   5   8
HETATM    8  C   UNL     1      -9.839  15.133  65.990  1.00  0.00    -0.320 C  
HETATM    9  O   UNL     1     -10.261  15.077  64.840  1.00  0.00    -0.357 OA 
HETATM   10  N   UNL     1     -10.383  14.417  67.039  1.00  0.00    -0.262 N  
HETATM   11  H   UNL     1      -9.931  14.450  67.953  1.00  0.00     0.000 HD 
BRANCH  10  12
HETATM   12  C   UNL     1     -11.582  13.619  66.871  1.00  0.00    -0.367 C  
BRANCH  12  13
HETATM   13  C   UNL     1     -12.153  13.104  68.202  1.00  0.00    -0.224 C  
BRANCH  13  14
HETATM   14  C   UNL     1     -11.670  11.723  68.607  1.00  0.00    -0.389 A  
HETATM   15  C   UNL     1     -10.929  10.916  67.730  1.00  0.00    -0.339 A  
HETATM   16  C   UNL     1     -10.530   9.630  68.098  1.00  0.00    -0.266 A  
HETATM   17  C   UNL     1     -10.812   9.152  69.375  1.00  0.00    -0.151 A  
HETATM   18  C   UNL     1     -11.507   9.955  70.284  1.00  0.00    -0.349 A  
HETATM   19  C   UNL     1     -11.925  11.235  69.901  1.00  0.00    -0.440 A  
BRANCH  17  20
HETATM   20  S   UNL     1     -10.415   7.466  69.777  1.00  0.00    -0.232 S  
HETATM   21  O   UNL     1      -9.111   7.425  70.403  1.00  0.00    -0.156 OA 
HETATM   22  O   UNL     1     -10.682   6.668  68.596  1.00  0.00    -0.215 OA 
BRANCH  20  23
HETATM   23  N   UNL     1     -11.582   7.007  70.872  1.00  0.00    -0.311 N  
HETATM   24  H   UNL     1     -12.503   6.762  70.508  1.00  0.00     0.000 HD 
BRANCH  23  25
HETATM   25  C   UNL     1     -11.390   6.935  72.240  1.00  0.00    -0.269 C  
HETATM   26  O   UNL     1     -11.252   7.917  72.950  1.00  0.00    -0.398 OA 
BRANCH  25  27
HETATM   27  N   UNL     1     -11.394   5.655  72.722  1.00  0.00    -0.349 N  
HETATM   28  H   UNL     1     -12.234   5.085  72.632  1.00  0.00     0.000 HD 
BRANCH  27  29
HETATM   29  C   UNL     1     -10.207   5.098  73.364  1.00  0.00    -0.189 C  
HETATM   30  C   UNL     1     -10.583   4.102  74.467  1.00  0.00    -0.229 C  
HETATM   31  C   UNL     1     -11.069   2.760  73.923  1.00  0.00    -0.258 C  
HETATM   32  C   UNL     1     -10.077   2.159  72.934  1.00  0.00    -0.200 C  
HETATM   33  C   UNL     1      -9.751   3.130  71.804  1.00  0.00    -0.234 C  
HETATM   34  C   UNL     1      -9.249   4.470  72.342  1.00  0.00    -0.151 C  
ENDBRANCH  27  29
ENDBRANCH  25  27
ENDBRANCH  23  25
ENDBRANCH  20  23
ENDBRANCH  17  20
ENDBRANCH  13  14
ENDBRANCH  12  13
ENDBRANCH  10  12
ENDBRANCH   5   8
TORSDOF 9
ENDMDL
MODEL      144
REMARK 921   NORMALIZED FREE ENERGY PREDICTED BY IDOCK:   -5.12 KCAL/MOL
REMARK 922        TOTAL FREE ENERGY PREDICTED BY IDOCK:   -9.31 KCAL/MOL
REMARK 923 INTER-LIGAND FREE ENERGY PREDICTED BY IDOCK:   -7.63 KCAL/MOL
REMARK 924 INTRA-LIGAND FREE ENERGY PREDICTED BY IDOCK:   -1.68 KCAL/MOL
REMARK 927      BINDING AFFINITY PREDICTED BY RF-SCORE:    0.00 PKD
ROOT
HETATM    1  C   UNL     1      -6.842   8.371  67.288  1.00  0.00    -0.070 C  
HETATM    2  C   UNL     1      -6.712   9.758  67.833  1.00  0.00    -0.065 A  
HETATM    3  N   UNL     1      -6.555   9.893  69.174  1.00  0.00    -0.051 NA 
HETATM    4  C   UNL     1      -6.475  11.167  69.634  1.00  0.00    -0.128 A  
HETATM    5  C   UNL     1      -6.542  12.267  68.792  1.00  0.00    -0.084 A  
HETATM    6  C   UNL     1      -6.763  10.870  66.992  1.00  0.00    -0.098 A  
HETATM    7  N   UNL     1      -6.682  12.149  67.440  1.00  0.00    -0.130 NA 
ENDROOT
BRANCH   5   8
HETATM    8  C   UNL     1      -6.501  13.636  69.376  1.00  0.00    -0.106 C  
HETATM    9  O   UNL     1      -5.779  13.889  70.334  1.00  0.00    -0.123 OA 
HETATM   10  N   UNL     1      -7.334  14.565  68.781  1.00  0.00    -0.123 N  
HETATM   11  H   UNL     1      -7.845  14.308  67.938  1.00  0.00     0.000 HD 
BRANCH  10  12
HETATM   12  C   UNL     1      -7.497  15.897  69.330  1.00  0.00    -0.219 C  
BRANCH  12  13
HETATM   13  C   UNL     1      -8.281  16.838  68.401  1.00  0.00    -0.224 C  
BRANCH  13  14
HETATM   14  C   UNL     1      -9.329  16.152  67.542  1.00  0.00    -0.217 A  
HETATM   15  C   UNL     1     -10.601  15.838  68.043  1.00  0.00    -0.279 A  
HETATM   16  C   UNL     1     -11.539  15.166  67.257  1.00  0.00    -0.231 A  
HETATM   17  C   UNL     1     -11.241  14.851  65.933  1.00  0.00    -0.328 A  
HETATM   18  C   UNL     1      -9.997  15.197  65.396  1.00  0.00    -0.365 A  
HETATM   19  C   UNL     1      -9.052  15.850  66.196  1.00  0.00    -0.385 A  
BRANCH  17  20
HETATM   20  S   UNL     1     -12.395  13.879  64.993  1.00  0.00    -0.425 S  
HETATM   21  O   UNL     1     -12.432  14.374  63.635  1.00  0.00    -0.805 OA 
HETATM   22  O   UNL     1     -13.616  13.790  65.771  1.00  0.00    -0.249 OA 
BRANCH  20  23
HETATM   23  N   UNL     1     -11.764  12.338  65.016  1.00  0.00    -0.360 N  
HETATM   24  H   UNL     1     -12.073  11.689  64.292  1.00  0.00     0.000 HD 
BRANCH  23  25
HETATM   25  C   UNL     1     -10.852  11.876  65.947  1.00  0.00    -0.297 C  
HETATM   26  O   UNL     1      -9.659  11.763  65.716  1.00  0.00    -0.233 OA 
BRANCH  25  27
HETATM   27  N   UNL     1     -11.413  11.580  67.157  1.00  0.00    -0.285 N  
HETATM   28  H   UNL     1     -12.355  11.190  67.194  1.00  0.00     0.000 HD 
BRANCH  27  29
HETATM   29  C   UNL     1     -10.680  11.816  68.397  1.00  0.00    -0.219 C  
HETATM   30  C   UNL     1     -11.593  12.385  69.488  1.00  0.00    -0.353 C  
HETATM   31  C   UNL     1     -12.526  11.340  70.096  1.00  0.00    -0.297 C  
HETATM   32  C   UNL     1     -11.760  10.115  70.583  1.00  0.00    -0.425 C  
HETATM   33  C   UNL     1     -10.899   9.515  69.478  1.00  0.00    -0.243 C  
HETATM   34  C   UNL     1      -9.952  10.552  68.876  1.00  0.00    -0.213 C  
ENDBRANCH  27  29
ENDBRANCH  25  27
ENDBRANCH  23  25
ENDBRANCH  20  23
ENDBRANCH  17  20
ENDBRANCH  13  14
ENDBRANCH  12  13
ENDBRANCH  10  12
ENDBRANCH   5   8
TORSDOF 9
ENDMDL
MODEL      145
REMARK 921   NORMALIZED FREE ENERGY PREDICTED BY IDOCK:   -5.12 KCAL/MOL
REMARK 922        TOTAL FREE ENERGY PREDICTED BY IDOCK:   -9.31 KCAL/MOL
REMARK 923 INTER-LIGAND FREE ENERGY PREDICTED BY IDOCK:   -7.81 KCAL/MOL
REMARK 924 INTRA-LIGAND FREE ENERGY PREDICTED BY IDOCK:   -1.49 KCAL/MOL
REMARK 927      BINDING AFFINITY PREDICTED BY RF-SCORE:    0.00 PKD
ROOT
HETATM    1  C   UNL     1      -8.786   1.888  63.808  1.00  0.00    -0.089 C  
HETATM    2  C   UNL     1      -8.772   3.232  64.464  1.00  0.00    -0.099 A  
HETATM    3  N   UNL     1      -7.654   3.989  64.323  1.00  0.00    -0.077 NA 
HETATM    4  C   UNL     1      -7.667   5.186  64.962  1.00  0.00    -0.085 A  
HETATM    5  C   UNL     1      -8.752   5.619  65.708  1.00  0.00    -0.150 A  
HETATM    6  C   UNL     1      -9.865   3.682  65.205  1.00  0.00    -0.126 A  
HETATM    7  N   UNL     1      -9.890   4.879  65.846  1.00  0.00    -0.184 NA 
ENDROOT
BRANCH   5   8
HETATM    8  C   UNL     1      -8.672   6.922  66.425  1.00  0.00    -0.142 C  
HETATM    9  O   UNL     1      -8.591   7.976  65.803  1.00  0.00    -0.143 OA 
HETATM   10  N   UNL     1      -8.674   6.847  67.804  1.00  0.00    -0.121 N  
HETATM   11  H   UNL     1      -8.826   5.944  68.254  1.00  0.00     0.000 HD 
BRANCH  10  12
HETATM   12  C   UNL     1      -8.464   8.022  68.627  1.00  0.00    -0.128 C  
BRANCH  12  13
HETATM   13  C   UNL     1      -9.777   8.645  69.130  1.00  0.00    -0.173 C  
BRANCH  13  14
HETATM   14  C   UNL     1     -10.071  10.030  68.584  1.00  0.00    -0.187 A  
HETATM   15  C   UNL     1     -11.319  10.353  68.030  1.00  0.00    -0.277 A  
HETATM   16  C   UNL     1     -11.561  11.617  67.488  1.00  0.00    -0.345 A  
HETATM   17  C   UNL     1     -10.577  12.601  67.549  1.00  0.00    -0.221 A  
HETATM   18  C   UNL     1      -9.342  12.319  68.141  1.00  0.00    -0.205 A  
HETATM   19  C   UNL     1      -9.097  11.042  68.660  1.00  0.00    -0.174 A  
BRANCH  17  20
HETATM   20  S   UNL     1     -10.856  14.158  66.737  1.00  0.00    -0.299 S  
HETATM   21  O   UNL     1     -12.280  14.368  66.597  1.00  0.00    -0.424 OA 
HETATM   22  O   UNL     1      -9.995  14.194  65.570  1.00  0.00    -0.327 OA 
BRANCH  20  23
HETATM   23  N   UNL     1     -10.216  15.294  67.771  1.00  0.00    -0.235 N  
HETATM   24  H   UNL     1      -9.201  15.327  67.870  1.00  0.00     0.000 HD 
BRANCH  23  25
HETATM   25  C   UNL     1     -10.963  16.197  68.506  1.00  0.00    -0.338 C  
HETATM   26  O   UNL     1     -10.763  17.400  68.493  1.00  0.00    -0.348 OA 
BRANCH  25  27
HETATM   27  N   UNL     1     -11.962  15.611  69.233  1.00  0.00    -0.489 N  
HETATM   28  H   UNL     1     -12.935  15.802  68.998  1.00  0.00     0.000 HD 
BRANCH  27  29
HETATM   29  C   UNL     1     -11.649  14.714  70.341  1.00  0.00    -0.268 C  
HETATM   30  C   UNL     1     -11.223  15.494  71.590  1.00  0.00    -0.388 C  
HETATM   31  C   UNL     1     -12.392  16.167  72.305  1.00  0.00    -0.538 C  
HETATM   32  C   UNL     1     -13.511  15.178  72.612  1.00  0.00    -0.578 C  
HETATM   33  C   UNL     1     -13.975  14.447  71.356  1.00  0.00    -0.395 C  
HETATM   34  C   UNL     1     -12.811  13.758  70.645  1.00  0.00    -0.262 C  
ENDBRANCH  27  29
ENDBRANCH  25  27
ENDBRANCH  23  25
ENDBRANCH  20  23
ENDBRANCH  17  20
ENDBRANCH  13  14
ENDBRANCH  12  13
ENDBRANCH  10  12
ENDBRANCH   5   8
TORSDOF 9
ENDMDL
MODEL      146
REMARK 921   NORMALIZED FREE ENERGY PREDICTED BY IDOCK:   -5.12 KCAL/MOL
REMARK 922        TOTAL FREE ENERGY PREDICTED BY IDOCK:   -9.30 KCAL/MOL
REMARK 923 INTER-LIGAND FREE ENERGY PREDICTED BY IDOCK:   -8.43 KCAL/MOL
REMARK 924 INTRA-LIGAND FREE ENERGY PREDICTED BY IDOCK:   -0.87 KCAL/MOL
REMARK 927      BINDING AFFINITY PREDICTED BY RF-SCORE:    0.00 PKD
ROOT
HETATM    1  C   UNL     1      -5.235  12.331  67.304  1.00  0.00    -0.087 C  
HETATM    2  C   UNL     1      -6.413  13.145  67.736  1.00  0.00    -0.153 A  
HETATM    3  N   UNL     1      -6.211  14.465  67.977  1.00  0.00    -0.142 NA 
HETATM    4  C   UNL     1      -7.295  15.162  68.400  1.00  0.00    -0.115 A  
HETATM    5  C   UNL     1      -8.538  14.570  68.571  1.00  0.00    -0.175 A  
HETATM    6  C   UNL     1      -7.670  12.562  67.897  1.00  0.00    -0.138 A  
HETATM    7  N   UNL     1      -8.764  13.249  68.317  1.00  0.00    -0.179 NA 
ENDROOT
BRANCH   5   8
HETATM    8  C   UNL     1      -9.669  15.387  69.090  1.00  0.00    -0.252 C  
HETATM    9  O   UNL     1     -10.091  16.349  68.457  1.00  0.00    -0.230 OA 
HETATM   10  N   UNL     1     -10.175  14.999  70.316  1.00  0.00    -0.504 N  
HETATM   11  H   UNL     1      -9.831  14.141  70.748  1.00  0.00     0.000 HD 
BRANCH  10  12
HETATM   12  C   UNL     1     -11.184  15.782  71.002  1.00  0.00    -0.350 C  
BRANCH  12  13
HETATM   13  C   UNL     1     -12.602  15.213  70.837  1.00  0.00    -0.441 C  
BRANCH  13  14
HETATM   14  C   UNL     1     -12.701  13.705  70.979  1.00  0.00    -0.408 A  
HETATM   15  C   UNL     1     -13.395  13.109  72.043  1.00  0.00    -0.587 A  
HETATM   16  C   UNL     1     -13.439  11.722  72.188  1.00  0.00    -0.273 A  
HETATM   17  C   UNL     1     -12.840  10.902  71.234  1.00  0.00    -0.433 A  
HETATM   18  C   UNL     1     -12.183  11.471  70.138  1.00  0.00    -0.387 A  
HETATM   19  C   UNL     1     -12.122  12.863  70.011  1.00  0.00    -0.357 A  
BRANCH  17  20
HETATM   20  S   UNL     1     -12.791   9.146  71.508  1.00  0.00    -0.348 S  
HETATM   21  O   UNL     1     -14.138   8.623  71.451  1.00  0.00    -0.370 OA 
HETATM   22  O   UNL     1     -11.968   8.916  72.679  1.00  0.00    -0.243 OA 
BRANCH  20  23
HETATM   23  N   UNL     1     -11.898   8.546  70.237  1.00  0.00    -0.458 N  
HETATM   24  H   UNL     1     -11.852   9.104  69.385  1.00  0.00     0.000 HD 
BRANCH  23  25
HETATM   25  C   UNL     1     -11.213   7.345  70.257  1.00  0.00    -0.247 C  
HETATM   26  O   UNL     1     -11.654   6.314  69.774  1.00  0.00    -0.436 OA 
BRANCH  25  27
HETATM   27  N   UNL     1      -9.985   7.428  70.851  1.00  0.00    -0.185 N  
HETATM   28  H   UNL     1      -9.470   8.308  70.822  1.00  0.00     0.000 HD 
BRANCH  27  29
HETATM   29  C   UNL     1      -9.403   6.273  71.526  1.00  0.00    -0.148 C  
HETATM   30  C   UNL     1      -7.872   6.349  71.547  1.00  0.00    -0.101 C  
HETATM   31  C   UNL     1      -7.335   7.362  72.556  1.00  0.00    -0.076 C  
HETATM   32  C   UNL     1      -7.909   7.128  73.950  1.00  0.00    -0.128 C  
HETATM   33  C   UNL     1      -9.433   7.113  73.935  1.00  0.00    -0.297 C  
HETATM   34  C   UNL     1      -9.976   6.090  72.938  1.00  0.00    -0.187 C  
ENDBRANCH  27  29
ENDBRANCH  25  27
ENDBRANCH  23  25
ENDBRANCH  20  23
ENDBRANCH  17  20
ENDBRANCH  13  14
ENDBRANCH  12  13
ENDBRANCH  10  12
ENDBRANCH   5   8
TORSDOF 9
ENDMDL
MODEL      147
REMARK 921   NORMALIZED FREE ENERGY PREDICTED BY IDOCK:   -5.10 KCAL/MOL
REMARK 922        TOTAL FREE ENERGY PREDICTED BY IDOCK:   -9.28 KCAL/MOL
REMARK 923 INTER-LIGAND FREE ENERGY PREDICTED BY IDOCK:   -8.08 KCAL/MOL
REMARK 924 INTRA-LIGAND FREE ENERGY PREDICTED BY IDOCK:   -1.20 KCAL/MOL
REMARK 927      BINDING AFFINITY PREDICTED BY RF-SCORE:    0.00 PKD
ROOT
HETATM    1  C   UNL     1     -10.394   3.213  72.651  1.00  0.00    -0.212 C  
HETATM    2  C   UNL     1     -10.430   4.673  72.329  1.00  0.00    -0.170 A  
HETATM    3  N   UNL     1     -11.441   5.408  72.857  1.00  0.00    -0.309 NA 
HETATM    4  C   UNL     1     -11.460   6.721  72.514  1.00  0.00    -0.231 A  
HETATM    5  C   UNL     1     -10.505   7.284  71.681  1.00  0.00    -0.198 A  
HETATM    6  C   UNL     1      -9.466   5.252  71.504  1.00  0.00    -0.150 A  
HETATM    7  N   UNL     1      -9.471   6.565  71.156  1.00  0.00    -0.167 NA 
ENDROOT
BRANCH   5   8
HETATM    8  C   UNL     1     -10.621   8.721  71.306  1.00  0.00    -0.262 C  
HETATM    9  O   UNL     1      -9.727   9.515  71.580  1.00  0.00    -0.195 OA 
HETATM   10  N   UNL     1     -11.791   9.079  70.664  1.00  0.00    -0.448 N  
HETATM   11  H   UNL     1     -12.454   8.352  70.395  1.00  0.00     0.000 HD 
BRANCH  10  12
HETATM   12  C   UNL     1     -12.097  10.463  70.363  1.00  0.00    -0.315 C  
BRANCH  12  13
HETATM   13  C   UNL     1     -11.809  10.838  68.900  1.00  0.00    -0.287 C  
BRANCH  13  14
HETATM   14  C   UNL     1     -10.598  11.732  68.701  1.00  0.00    -0.250 A  
HETATM   15  C   UNL     1     -10.718  13.128  68.624  1.00  0.00    -0.274 A  
HETATM   16  C   UNL     1      -9.603  13.935  68.394  1.00  0.00    -0.215 A  
HETATM   17  C   UNL     1      -8.336  13.363  68.300  1.00  0.00    -0.160 A  
HETATM   18  C   UNL     1      -8.184  11.978  68.423  1.00  0.00    -0.151 A  
HETATM   19  C   UNL     1      -9.310  11.172  68.629  1.00  0.00    -0.186 A  
BRANCH  17  20
HETATM   20  S   UNL     1      -6.950  14.391  67.875  1.00  0.00    -0.178 S  
HETATM   21  O   UNL     1      -5.906  13.566  67.310  1.00  0.00    -0.345 OA 
HETATM   22  O   UNL     1      -6.672  15.234  69.022  1.00  0.00    -0.109 OA 
BRANCH  20  23
HETATM   23  N   UNL     1      -7.537  15.433  66.716  1.00  0.00    -0.240 N  
HETATM   24  H   UNL     1      -8.302  15.104  66.128  1.00  0.00     0.000 HD 
BRANCH  23  25
HETATM   25  C   UNL     1      -7.059  16.712  66.495  1.00  0.00    -0.177 C  
HETATM   26  O   UNL     1      -5.872  16.974  66.385  1.00  0.00    -0.286 OA 
BRANCH  25  27
HETATM   27  N   UNL     1      -8.047  17.650  66.390  1.00  0.00    -0.264 N  
HETATM   28  H   UNL     1      -7.844  18.549  65.953  1.00  0.00     0.000 HD 
BRANCH  27  29
HETATM   29  C   UNL     1      -9.390  17.379  66.895  1.00  0.00    -0.263 C  
HETATM   30  C   UNL     1      -9.521  17.768  68.372  1.00  0.00    -0.297 C  
HETATM   31  C   UNL     1      -9.613  19.277  68.589  1.00  0.00    -0.479 C  
HETATM   32  C   UNL     1     -10.712  19.904  67.739  1.00  0.00    -0.365 C  
HETATM   33  C   UNL     1     -10.544  19.564  66.262  1.00  0.00    -0.580 C  
HETATM   34  C   UNL     1     -10.468  18.055  66.037  1.00  0.00    -0.317 C  
ENDBRANCH  27  29
ENDBRANCH  25  27
ENDBRANCH  23  25
ENDBRANCH  20  23
ENDBRANCH  17  20
ENDBRANCH  13  14
ENDBRANCH  12  13
ENDBRANCH  10  12
ENDBRANCH   5   8
TORSDOF 9
ENDMDL
MODEL      148
REMARK 921   NORMALIZED FREE ENERGY PREDICTED BY IDOCK:   -5.08 KCAL/MOL
REMARK 922        TOTAL FREE ENERGY PREDICTED BY IDOCK:   -9.25 KCAL/MOL
REMARK 923 INTER-LIGAND FREE ENERGY PREDICTED BY IDOCK:   -7.74 KCAL/MOL
REMARK 924 INTRA-LIGAND FREE ENERGY PREDICTED BY IDOCK:   -1.51 KCAL/MOL
REMARK 927      BINDING AFFINITY PREDICTED BY RF-SCORE:    0.00 PKD
ROOT
HETATM    1  C   UNL     1      -9.657  20.500  67.022  1.00  0.00    -0.540 C  
HETATM    2  C   UNL     1      -9.644  19.021  67.246  1.00  0.00    -0.313 A  
HETATM    3  N   UNL     1     -10.781  18.445  67.707  1.00  0.00    -0.394 NA 
HETATM    4  C   UNL     1     -10.718  17.108  67.931  1.00  0.00    -0.355 A  
HETATM    5  C   UNL     1      -9.568  16.370  67.698  1.00  0.00    -0.227 A  
HETATM    6  C   UNL     1      -8.495  18.268  67.001  1.00  0.00    -0.250 A  
HETATM    7  N   UNL     1      -8.420  16.929  67.218  1.00  0.00    -0.192 NA 
ENDROOT
BRANCH   5   8
HETATM    8  C   UNL     1      -9.558  14.915  68.018  1.00  0.00    -0.207 C  
HETATM    9  O   UNL     1      -8.628  14.416  68.642  1.00  0.00    -0.171 OA 
HETATM   10  N   UNL     1     -10.638  14.192  67.548  1.00  0.00    -0.256 N  
HETATM   11  H   UNL     1     -11.415  14.686  67.108  1.00  0.00     0.000 HD 
BRANCH  10  12
HETATM   12  C   UNL     1     -10.693  12.749  67.667  1.00  0.00    -0.219 C  
BRANCH  12  13
HETATM   13  C   UNL     1     -10.429  12.025  66.337  1.00  0.00    -0.267 C  
BRANCH  13  14
HETATM   14  C   UNL     1     -10.234  10.524  66.459  1.00  0.00    -0.288 A  
HETATM   15  C   UNL     1     -10.786   9.795  67.523  1.00  0.00    -0.327 A  
HETATM   16  C   UNL     1     -10.560   8.423  67.649  1.00  0.00    -0.265 A  
HETATM   17  C   UNL     1      -9.828   7.745  66.677  1.00  0.00    -0.225 A  
HETATM   18  C   UNL     1      -9.309   8.442  65.581  1.00  0.00    -0.065 A  
HETATM   19  C   UNL     1      -9.518   9.821  65.473  1.00  0.00    -0.324 A  
BRANCH  17  20
HETATM   20  S   UNL     1      -9.439   6.028  66.925  1.00  0.00    -0.139 S  
HETATM   21  O   UNL     1      -8.529   5.596  65.887  1.00  0.00    -0.125 OA 
HETATM   22  O   UNL     1     -10.693   5.329  67.133  1.00  0.00    -0.206 OA 
BRANCH  20  23
HETATM   23  N   UNL     1      -8.675   5.978  68.403  1.00  0.00    -0.114 N  
HETATM   24  H   UNL     1      -7.813   6.513  68.510  1.00  0.00     0.000 HD 
BRANCH  23  25
HETATM   25  C   UNL     1      -9.127   5.261  69.497  1.00  0.00    -0.112 C  
HETATM   26  O   UNL     1      -8.524   4.313  69.971  1.00  0.00    -0.064 OA 
BRANCH  25  27
HETATM   27  N   UNL     1     -10.304   5.733  70.007  1.00  0.00    -0.235 N  
HETATM   28  H   UNL     1     -11.111   5.842  69.394  1.00  0.00     0.000 HD 
BRANCH  27  29
HETATM   29  C   UNL     1     -10.417   6.083  71.420  1.00  0.00    -0.231 C  
HETATM   30  C   UNL     1      -9.603   7.338  71.753  1.00  0.00    -0.163 C  
HETATM   31  C   UNL     1     -10.256   8.627  71.256  1.00  0.00    -0.308 C  
HETATM   32  C   UNL     1     -11.700   8.747  71.732  1.00  0.00    -0.416 C  
HETATM   33  C   UNL     1     -12.522   7.522  71.346  1.00  0.00    -0.382 C  
HETATM   34  C   UNL     1     -11.881   6.232  71.854  1.00  0.00    -0.359 C  
ENDBRANCH  27  29
ENDBRANCH  25  27
ENDBRANCH  23  25
ENDBRANCH  20  23
ENDBRANCH  17  20
ENDBRANCH  13  14
ENDBRANCH  12  13
ENDBRANCH  10  12
ENDBRANCH   5   8
TORSDOF 9
ENDMDL
MODEL      149
REMARK 921   NORMALIZED FREE ENERGY PREDICTED BY IDOCK:   -5.07 KCAL/MOL
REMARK 922        TOTAL FREE ENERGY PREDICTED BY IDOCK:   -9.23 KCAL/MOL
REMARK 923 INTER-LIGAND FREE ENERGY PREDICTED BY IDOCK:   -7.05 KCAL/MOL
REMARK 924 INTRA-LIGAND FREE ENERGY PREDICTED BY IDOCK:   -2.18 KCAL/MOL
REMARK 927      BINDING AFFINITY PREDICTED BY RF-SCORE:    0.00 PKD
ROOT
HETATM    1  C   UNL     1     -10.229  18.001  66.343  1.00  0.00    -0.393 C  
HETATM    2  C   UNL     1     -10.512  16.548  66.559  1.00  0.00    -0.270 A  
HETATM    3  N   UNL     1     -10.850  16.153  67.812  1.00  0.00    -0.327 NA 
HETATM    4  C   UNL     1     -11.065  14.823  67.975  1.00  0.00    -0.286 A  
HETATM    5  C   UNL     1     -10.954  13.919  66.930  1.00  0.00    -0.295 A  
HETATM    6  C   UNL     1     -10.417  15.633  65.511  1.00  0.00    -0.404 A  
HETATM    7  N   UNL     1     -10.632  14.300  65.660  1.00  0.00    -0.304 NA 
ENDROOT
BRANCH   5   8
HETATM    8  C   UNL     1     -11.152  12.467  67.197  1.00  0.00    -0.276 C  
HETATM    9  O   UNL     1     -12.096  11.861  66.701  1.00  0.00    -0.587 OA 
HETATM   10  N   UNL     1     -10.227  11.882  68.041  1.00  0.00    -0.187 N  
HETATM   11  H   UNL     1      -9.422  12.426  68.351  1.00  0.00     0.000 HD 
BRANCH  10  12
HETATM   12  C   UNL     1     -10.375  10.514  68.494  1.00  0.00    -0.179 C  
BRANCH  12  13
HETATM   13  C   UNL     1     -11.138  10.400  69.824  1.00  0.00    -0.352 C  
BRANCH  13  14
HETATM   14  C   UNL     1     -11.016   9.052  70.512  1.00  0.00    -0.295 A  
HETATM   15  C   UNL     1     -11.083   8.930  71.908  1.00  0.00    -0.442 A  
HETATM   16  C   UNL     1     -10.922   7.691  72.531  1.00  0.00    -0.377 A  
HETATM   17  C   UNL     1     -10.754   6.541  71.762  1.00  0.00    -0.228 A  
HETATM   18  C   UNL     1     -10.734   6.631  70.367  1.00  0.00    -0.297 A  
HETATM   19  C   UNL     1     -10.871   7.879  69.749  1.00  0.00    -0.202 A  
BRANCH  17  20
HETATM   20  S   UNL     1     -10.418   4.996  72.575  1.00  0.00    -0.220 S  
HETATM   21  O   UNL     1     -10.334   3.949  71.582  1.00  0.00    -0.077 OA 
HETATM   22  O   UNL     1     -11.351   4.880  73.680  1.00  0.00    -0.303 OA 
BRANCH  20  23
HETATM   23  N   UNL     1      -8.933   5.213  73.296  1.00  0.00    -0.120 N  
HETATM   24  H   UNL     1      -8.911   5.671  74.207  1.00  0.00     0.000 HD 
BRANCH  23  25
HETATM   25  C   UNL     1      -7.728   4.816  72.746  1.00  0.00    -0.092 C  
HETATM   26  O   UNL     1      -6.983   4.009  73.276  1.00  0.00    -0.054 OA 
BRANCH  25  27
HETATM   27  N   UNL     1      -7.463   5.401  71.539  1.00  0.00    -0.098 N  
HETATM   28  H   UNL     1      -8.068   5.207  70.741  1.00  0.00     0.000 HD 
BRANCH  27  29
HETATM   29  C   UNL     1      -6.324   6.300  71.380  1.00  0.00    -0.049 C  
HETATM   30  C   UNL     1      -6.096   6.660  69.908  1.00  0.00    -0.027 C  
HETATM   31  C   UNL     1      -7.116   7.661  69.370  1.00  0.00    -0.075 C  
HETATM   32  C   UNL     1      -7.206   8.904  70.248  1.00  0.00    -0.054 C  
HETATM   33  C   UNL     1      -7.493   8.546  71.702  1.00  0.00    -0.128 C  
HETATM   34  C   UNL     1      -6.466   7.557  72.251  1.00  0.00    -0.050 C  
ENDBRANCH  27  29
ENDBRANCH  25  27
ENDBRANCH  23  25
ENDBRANCH  20  23
ENDBRANCH  17  20
ENDBRANCH  13  14
ENDBRANCH  12  13
ENDBRANCH  10  12
ENDBRANCH   5   8
TORSDOF 9
ENDMDL
MODEL      150
REMARK 921   NORMALIZED FREE ENERGY PREDICTED BY IDOCK:   -5.06 KCAL/MOL
REMARK 922        TOTAL FREE ENERGY PREDICTED BY IDOCK:   -9.22 KCAL/MOL
REMARK 923 INTER-LIGAND FREE ENERGY PREDICTED BY IDOCK:   -7.72 KCAL/MOL
REMARK 924 INTRA-LIGAND FREE ENERGY PREDICTED BY IDOCK:   -1.50 KCAL/MOL
REMARK 927      BINDING AFFINITY PREDICTED BY RF-SCORE:    0.00 PKD
ROOT
HETATM    1  C   UNL     1     -12.603  13.475  65.667  1.00  0.00    -0.512 C  
HETATM    2  C   UNL     1     -11.576  12.542  65.106  1.00  0.00    -0.353 A  
HETATM    3  N   UNL     1     -11.052  11.610  65.940  1.00  0.00    -0.292 NA 
HETATM    4  C   UNL     1     -10.099  10.806  65.403  1.00  0.00    -0.285 A  
HETATM    5  C   UNL     1      -9.687  10.920  64.084  1.00  0.00    -0.296 A  
HETATM    6  C   UNL     1     -11.166  12.640  63.776  1.00  0.00    -0.463 A  
HETATM    7  N   UNL     1     -10.216  11.840  63.227  1.00  0.00    -0.430 NA 
ENDROOT
BRANCH   5   8
HETATM    8  C   UNL     1      -8.599  10.038  63.581  1.00  0.00    -0.202 C  
HETATM    9  O   UNL     1      -8.858   9.020  62.947  1.00  0.00    -0.187 OA 
HETATM   10  N   UNL     1      -7.313  10.435  63.896  1.00  0.00    -0.318 N  
HETATM   11  H   UNL     1      -7.167  11.334  64.354  1.00  0.00     0.000 HD 
BRANCH  10  12
HETATM   12  C   UNL     1      -6.166   9.602  63.588  1.00  0.00    -0.108 C  
BRANCH  12  13
HETATM   13  C   UNL     1      -5.242   9.383  64.797  1.00  0.00    -0.049 C  
BRANCH  13  14
HETATM   14  C   UNL     1      -5.894   8.682  65.975  1.00  0.00    -0.047 A  
HETATM   15  C   UNL     1      -6.560   7.457  65.826  1.00  0.00    -0.045 A  
HETATM   16  C   UNL     1      -7.196   6.846  66.908  1.00  0.00    -0.077 A  
HETATM   17  C   UNL     1      -7.122   7.421  68.175  1.00  0.00    -0.085 A  
HETATM   18  C   UNL     1      -6.422   8.618  68.359  1.00  0.00    -0.056 A  
HETATM   19  C   UNL     1      -5.807   9.238  67.265  1.00  0.00    -0.046 A  
BRANCH  17  20
HETATM   20  S   UNL     1      -8.049   6.700  69.510  1.00  0.00    -0.127 S  
HETATM   21  O   UNL     1      -8.001   7.588  70.651  1.00  0.00    -0.097 OA 
HETATM   22  O   UNL     1      -7.614   5.323  69.640  1.00  0.00    -0.067 OA 
BRANCH  20  23
HETATM   23  N   UNL     1      -9.608   6.600  68.936  1.00  0.00    -0.130 N  
HETATM   24  H   UNL     1      -9.914   5.708  68.548  1.00  0.00     0.000 HD 
BRANCH  23  25
HETATM   25  C   UNL     1     -10.517   7.643  68.947  1.00  0.00    -0.199 C  
HETATM   26  O   UNL     1     -10.353   8.681  68.328  1.00  0.00    -0.206 OA 
BRANCH  25  27
HETATM   27  N   UNL     1     -11.628   7.386  69.701  1.00  0.00    -0.458 N  
HETATM   28  H   UNL     1     -12.493   7.100  69.244  1.00  0.00     0.000 HD 
BRANCH  27  29
HETATM   29  C   UNL     1     -11.588   7.518  71.154  1.00  0.00    -0.282 C  
HETATM   30  C   UNL     1     -11.524   8.989  71.582  1.00  0.00    -0.431 C  
HETATM   31  C   UNL     1     -12.858   9.716  71.431  1.00  0.00    -0.471 C  
HETATM   32  C   UNL     1     -13.990   8.973  72.132  1.00  0.00    -0.499 C  
HETATM   33  C   UNL     1     -14.089   7.526  71.660  1.00  0.00    -0.562 C  
HETATM   34  C   UNL     1     -12.761   6.789  71.824  1.00  0.00    -0.342 C  
ENDBRANCH  27  29
ENDBRANCH  25  27
ENDBRANCH  23  25
ENDBRANCH  20  23
ENDBRANCH  17  20
ENDBRANCH  13  14
ENDBRANCH  12  13
ENDBRANCH  10  12
ENDBRANCH   5   8
TORSDOF 9
ENDMDL
MODEL      151
REMARK 921   NORMALIZED FREE ENERGY PREDICTED BY IDOCK:   -5.06 KCAL/MOL
REMARK 922        TOTAL FREE ENERGY PREDICTED BY IDOCK:   -9.22 KCAL/MOL
REMARK 923 INTER-LIGAND FREE ENERGY PREDICTED BY IDOCK:   -8.19 KCAL/MOL
REMARK 924 INTRA-LIGAND FREE ENERGY PREDICTED BY IDOCK:   -1.03 KCAL/MOL
REMARK 927      BINDING AFFINITY PREDICTED BY RF-SCORE:    0.00 PKD
ROOT
HETATM    1  C   UNL     1     -11.211   6.196  72.570  1.00  0.00    -0.327 C  
HETATM    2  C   UNL     1     -10.667   6.268  71.179  1.00  0.00    -0.249 A  
HETATM    3  N   UNL     1      -9.319   6.304  71.032  1.00  0.00    -0.160 NA 
HETATM    4  C   UNL     1      -8.865   6.404  69.757  1.00  0.00    -0.142 A  
HETATM    5  C   UNL     1      -9.719   6.461  68.667  1.00  0.00    -0.123 A  
HETATM    6  C   UNL     1     -11.518   6.312  70.074  1.00  0.00    -0.390 A  
HETATM    7  N   UNL     1     -11.077   6.409  68.794  1.00  0.00    -0.334 NA 
ENDROOT
BRANCH   5   8
HETATM    8  C   UNL     1      -9.149   6.625  67.301  1.00  0.00    -0.118 C  
HETATM    9  O   UNL     1      -8.574   5.696  66.745  1.00  0.00    -0.111 OA 
HETATM   10  N   UNL     1      -9.297   7.878  66.738  1.00  0.00    -0.173 N  
HETATM   11  H   UNL     1      -9.857   8.579  67.222  1.00  0.00     0.000 HD 
BRANCH  10  12
HETATM   12  C   UNL     1      -8.674   8.218  65.473  1.00  0.00    -0.140 C  
BRANCH  12  13
HETATM   13  C   UNL     1      -7.984   9.592  65.494  1.00  0.00    -0.115 C  
BRANCH  13  14
HETATM   14  C   UNL     1      -8.748  10.674  66.235  1.00  0.00    -0.163 A  
HETATM   15  C   UNL     1      -8.219  11.301  67.374  1.00  0.00    -0.135 A  
HETATM   16  C   UNL     1      -8.951  12.261  68.074  1.00  0.00    -0.190 A  
HETATM   17  C   UNL     1     -10.203  12.658  67.608  1.00  0.00    -0.217 A  
HETATM   18  C   UNL     1     -10.731  12.084  66.448  1.00  0.00    -0.294 A  
HETATM   19  C   UNL     1     -10.002  11.104  65.764  1.00  0.00    -0.292 A  
BRANCH  17  20
HETATM   20  S   UNL     1     -11.175  13.782  68.585  1.00  0.00    -0.297 S  
HETATM   21  O   UNL     1     -11.856  13.038  69.622  1.00  0.00    -0.305 OA 
HETATM   22  O   UNL     1     -11.931  14.608  67.664  1.00  0.00    -0.362 OA 
BRANCH  20  23
HETATM   23  N   UNL     1     -10.064  14.816  69.268  1.00  0.00    -0.345 N  
HETATM   24  H   UNL     1      -9.154  14.432  69.525  1.00  0.00     0.000 HD 
BRANCH  23  25
HETATM   25  C   UNL     1     -10.287  16.159  69.513  1.00  0.00    -0.282 C  
HETATM   26  O   UNL     1     -10.957  16.567  70.447  1.00  0.00    -0.309 OA 
BRANCH  25  27
HETATM   27  N   UNL     1      -9.665  16.984  68.618  1.00  0.00    -0.271 N  
HETATM   28  H   UNL     1      -9.055  16.586  67.905  1.00  0.00     0.000 HD 
BRANCH  27  29
HETATM   29  C   UNL     1      -9.867  18.429  68.672  1.00  0.00    -0.376 C  
HETATM   30  C   UNL     1      -8.540  19.184  68.539  1.00  0.00    -0.398 C  
HETATM   31  C   UNL     1      -7.994  19.192  67.112  1.00  0.00    -0.279 C  
HETATM   32  C   UNL     1      -9.032  19.692  66.113  1.00  0.00    -0.375 C  
HETATM   33  C   UNL     1     -10.330  18.898  66.207  1.00  0.00    -0.512 C  
HETATM   34  C   UNL     1     -10.889  18.900  67.629  1.00  0.00    -0.407 C  
ENDBRANCH  27  29
ENDBRANCH  25  27
ENDBRANCH  23  25
ENDBRANCH  20  23
ENDBRANCH  17  20
ENDBRANCH  13  14
ENDBRANCH  12  13
ENDBRANCH  10  12
ENDBRANCH   5   8
TORSDOF 9
ENDMDL
MODEL      152
REMARK 921   NORMALIZED FREE ENERGY PREDICTED BY IDOCK:   -5.06 KCAL/MOL
REMARK 922        TOTAL FREE ENERGY PREDICTED BY IDOCK:   -9.21 KCAL/MOL
REMARK 923 INTER-LIGAND FREE ENERGY PREDICTED BY IDOCK:   -9.06 KCAL/MOL
REMARK 924 INTRA-LIGAND FREE ENERGY PREDICTED BY IDOCK:   -0.16 KCAL/MOL
REMARK 927      BINDING AFFINITY PREDICTED BY RF-SCORE:    0.00 PKD
ROOT
HETATM    1  C   UNL     1      -9.796  10.795  62.845  1.00  0.00    -0.294 C  
HETATM    2  C   UNL     1     -10.163  11.693  63.984  1.00  0.00    -0.346 A  
HETATM    3  N   UNL     1     -10.944  12.767  63.711  1.00  0.00    -0.421 NA 
HETATM    4  C   UNL     1     -11.226  13.577  64.763  1.00  0.00    -0.352 A  
HETATM    5  C   UNL     1     -10.752  13.324  66.042  1.00  0.00    -0.277 A  
HETATM    6  C   UNL     1      -9.703  11.439  65.277  1.00  0.00    -0.241 A  
HETATM    7  N   UNL     1      -9.980  12.239  66.338  1.00  0.00    -0.223 NA 
ENDROOT
BRANCH   5   8
HETATM    8  C   UNL     1     -11.059  14.286  67.136  1.00  0.00    -0.311 C  
HETATM    9  O   UNL     1     -11.077  15.494  66.924  1.00  0.00    -0.306 OA 
HETATM   10  N   UNL     1     -11.291  13.726  68.378  1.00  0.00    -0.274 N  
HETATM   11  H   UNL     1     -11.341  12.711  68.465  1.00  0.00     0.000 HD 
BRANCH  10  12
HETATM   12  C   UNL     1     -11.467  14.548  69.559  1.00  0.00    -0.288 C  
BRANCH  12  13
HETATM   13  C   UNL     1     -12.531  13.995  70.523  1.00  0.00    -0.429 C  
BRANCH  13  14
HETATM   14  C   UNL     1     -12.454  12.498  70.760  1.00  0.00    -0.357 A  
HETATM   15  C   UNL     1     -13.137  11.885  71.821  1.00  0.00    -0.465 A  
HETATM   16  C   UNL     1     -13.021  10.514  72.056  1.00  0.00    -0.490 A  
HETATM   17  C   UNL     1     -12.269   9.720  71.193  1.00  0.00    -0.362 A  
HETATM   18  C   UNL     1     -11.619  10.300  70.099  1.00  0.00    -0.376 A  
HETATM   19  C   UNL     1     -11.720  11.679  69.883  1.00  0.00    -0.414 A  
BRANCH  17  20
HETATM   20  S   UNL     1     -12.025   8.003  71.585  1.00  0.00    -0.312 S  
HETATM   21  O   UNL     1     -13.244   7.278  71.304  1.00  0.00    -0.372 OA 
HETATM   22  O   UNL     1     -11.428   7.944  72.905  1.00  0.00    -0.403 OA 
BRANCH  20  23
HETATM   23  N   UNL     1     -10.819   7.502  70.552  1.00  0.00    -0.236 N  
HETATM   24  H   UNL     1     -10.350   8.213  69.990  1.00  0.00     0.000 HD 
BRANCH  23  25
HETATM   25  C   UNL     1     -10.409   6.190  70.402  1.00  0.00    -0.213 C  
HETATM   26  O   UNL     1     -10.706   5.501  69.440  1.00  0.00    -0.295 OA 
BRANCH  25  27
HETATM   27  N   UNL     1      -9.620   5.747  71.426  1.00  0.00    -0.157 N  
HETATM   28  H   UNL     1      -8.714   6.185  71.590  1.00  0.00     0.000 HD 
BRANCH  27  29
HETATM   29  C   UNL     1     -10.061   4.654  72.288  1.00  0.00    -0.189 C  
HETATM   30  C   UNL     1      -9.221   3.391  72.064  1.00  0.00    -0.172 C  
HETATM   31  C   UNL     1      -7.828   3.479  72.684  1.00  0.00    -0.068 C  
HETATM   32  C   UNL     1      -7.889   3.864  74.158  1.00  0.00    -0.082 C  
HETATM   33  C   UNL     1      -8.674   5.153  74.370  1.00  0.00    -0.112 C  
HETATM   34  C   UNL     1     -10.074   5.065  73.766  1.00  0.00    -0.216 C  
ENDBRANCH  27  29
ENDBRANCH  25  27
ENDBRANCH  23  25
ENDBRANCH  20  23
ENDBRANCH  17  20
ENDBRANCH  13  14
ENDBRANCH  12  13
ENDBRANCH  10  12
ENDBRANCH   5   8
TORSDOF 9
ENDMDL
MODEL      153
REMARK 921   NORMALIZED FREE ENERGY PREDICTED BY IDOCK:   -5.05 KCAL/MOL
REMARK 922        TOTAL FREE ENERGY PREDICTED BY IDOCK:   -9.21 KCAL/MOL
REMARK 923 INTER-LIGAND FREE ENERGY PREDICTED BY IDOCK:   -7.60 KCAL/MOL
REMARK 924 INTRA-LIGAND FREE ENERGY PREDICTED BY IDOCK:   -1.61 KCAL/MOL
REMARK 927      BINDING AFFINITY PREDICTED BY RF-SCORE:    0.00 PKD
ROOT
HETATM    1  C   UNL     1      -5.164   8.414  67.880  1.00  0.00    -0.034 C  
HETATM    2  C   UNL     1      -5.949   9.684  67.781  1.00  0.00    -0.051 A  
HETATM    3  N   UNL     1      -6.673  10.062  68.865  1.00  0.00    -0.052 NA 
HETATM    4  C   UNL     1      -7.398  11.200  68.724  1.00  0.00    -0.114 A  
HETATM    5  C   UNL     1      -7.400  11.939  67.551  1.00  0.00    -0.132 A  
HETATM    6  C   UNL     1      -5.945  10.442  66.610  1.00  0.00    -0.066 A  
HETATM    7  N   UNL     1      -6.665  11.584  66.458  1.00  0.00    -0.075 NA 
ENDROOT
BRANCH   5   8
HETATM    8  C   UNL     1      -8.262  13.149  67.452  1.00  0.00    -0.187 C  
HETATM    9  O   UNL     1      -8.285  13.979  68.354  1.00  0.00    -0.141 OA 
HETATM   10  N   UNL     1      -9.028  13.245  66.306  1.00  0.00    -0.454 N  
HETATM   11  H   UNL     1      -8.898  12.562  65.561  1.00  0.00     0.000 HD 
BRANCH  10  12
HETATM   12  C   UNL     1     -10.012  14.297  66.138  1.00  0.00    -0.314 C  
BRANCH  12  13
HETATM   13  C   UNL     1     -11.447  13.830  66.432  1.00  0.00    -0.351 C  
BRANCH  13  14
HETATM   14  C   UNL     1     -11.572  12.855  67.589  1.00  0.00    -0.406 A  
HETATM   15  C   UNL     1     -11.877  13.289  68.888  1.00  0.00    -0.367 A  
HETATM   16  C   UNL     1     -11.944  12.388  69.952  1.00  0.00    -0.369 A  
HETATM   17  C   UNL     1     -11.766  11.025  69.722  1.00  0.00    -0.335 A  
HETATM   18  C   UNL     1     -11.509  10.562  68.428  1.00  0.00    -0.285 A  
HETATM   19  C   UNL     1     -11.420  11.474  67.370  1.00  0.00    -0.349 A  
BRANCH  17  20
HETATM   20  S   UNL     1     -11.721   9.912  71.107  1.00  0.00    -0.403 S  
HETATM   21  O   UNL     1     -12.664  10.364  72.107  1.00  0.00    -0.345 OA 
HETATM   22  O   UNL     1     -10.327   9.715  71.456  1.00  0.00    -0.186 OA 
BRANCH  20  23
HETATM   23  N   UNL     1     -12.213   8.447  70.488  1.00  0.00    -0.468 N  
HETATM   24  H   UNL     1     -12.844   8.460  69.685  1.00  0.00     0.000 HD 
BRANCH  23  25
HETATM   25  C   UNL     1     -11.829   7.215  70.984  1.00  0.00    -0.333 C  
HETATM   26  O   UNL     1     -12.547   6.520  71.683  1.00  0.00    -0.318 OA 
BRANCH  25  27
HETATM   27  N   UNL     1     -10.572   6.842  70.596  1.00  0.00    -0.218 N  
HETATM   28  H   UNL     1      -9.760   7.243  71.064  1.00  0.00     0.000 HD 
BRANCH  27  29
HETATM   29  C   UNL     1     -10.380   5.875  69.520  1.00  0.00    -0.248 C  
HETATM   30  C   UNL     1     -11.047   6.343  68.221  1.00  0.00    -0.359 C  
HETATM   31  C   UNL     1     -10.276   7.459  67.519  1.00  0.00    -0.289 C  
HETATM   32  C   UNL     1      -8.814   7.085  67.302  1.00  0.00    -0.119 C  
HETATM   33  C   UNL     1      -8.138   6.677  68.606  1.00  0.00    -0.119 C  
HETATM   34  C   UNL     1      -8.896   5.550  69.304  1.00  0.00    -0.112 C  
ENDBRANCH  27  29
ENDBRANCH  25  27
ENDBRANCH  23  25
ENDBRANCH  20  23
ENDBRANCH  17  20
ENDBRANCH  13  14
ENDBRANCH  12  13
ENDBRANCH  10  12
ENDBRANCH   5   8
TORSDOF 9
ENDMDL
MODEL      154
REMARK 921   NORMALIZED FREE ENERGY PREDICTED BY IDOCK:   -5.05 KCAL/MOL
REMARK 922        TOTAL FREE ENERGY PREDICTED BY IDOCK:   -9.21 KCAL/MOL
REMARK 923 INTER-LIGAND FREE ENERGY PREDICTED BY IDOCK:   -7.90 KCAL/MOL
REMARK 924 INTRA-LIGAND FREE ENERGY PREDICTED BY IDOCK:   -1.31 KCAL/MOL
REMARK 927      BINDING AFFINITY PREDICTED BY RF-SCORE:    0.00 PKD
ROOT
HETATM    1  C   UNL     1      -5.151  19.908  71.623  1.00  0.00    -0.398 C  
HETATM    2  C   UNL     1      -5.772  19.243  70.436  1.00  0.00    -0.230 A  
HETATM    3  N   UNL     1      -6.610  19.984  69.668  1.00  0.00    -0.332 NA 
HETATM    4  C   UNL     1      -7.180  19.336  68.621  1.00  0.00    -0.332 A  
HETATM    5  C   UNL     1      -6.922  18.003  68.342  1.00  0.00    -0.236 A  
HETATM    6  C   UNL     1      -5.506  17.906  70.139  1.00  0.00    -0.247 A  
HETATM    7  N   UNL     1      -6.068  17.248  69.092  1.00  0.00    -0.204 NA 
ENDROOT
BRANCH   5   8
HETATM    8  C   UNL     1      -7.625  17.345  67.207  1.00  0.00    -0.192 C  
HETATM    9  O   UNL     1      -6.997  16.750  66.338  1.00  0.00    -0.225 OA 
HETATM   10  N   UNL     1      -9.001  17.474  67.200  1.00  0.00    -0.234 N  
HETATM   11  H   UNL     1      -9.464  17.911  67.997  1.00  0.00     0.000 HD 
BRANCH  10  12
HETATM   12  C   UNL     1      -9.801  17.003  66.087  1.00  0.00    -0.278 C  
BRANCH  12  13
HETATM   13  C   UNL     1     -11.072  16.259  66.532  1.00  0.00     0.120 C  
BRANCH  13  14
HETATM   14  C   UNL     1     -10.880  14.776  66.791  1.00  0.00    -0.316 A  
HETATM   15  C   UNL     1     -11.911  13.980  67.313  1.00  0.00    -0.448 A  
HETATM   16  C   UNL     1     -11.708  12.627  67.589  1.00  0.00    -0.420 A  
HETATM   17  C   UNL     1     -10.485  12.031  67.288  1.00  0.00    -0.218 A  
HETATM   18  C   UNL     1      -9.458  12.792  66.721  1.00  0.00    -0.243 A  
HETATM   19  C   UNL     1      -9.660  14.154  66.469  1.00  0.00    -0.310 A  
BRANCH  17  20
HETATM   20  S   UNL     1     -10.202  10.343  67.770  1.00  0.00    -0.206 S  
HETATM   21  O   UNL     1      -8.837  10.207  68.230  1.00  0.00    -0.121 OA 
HETATM   22  O   UNL     1     -10.698   9.501  66.698  1.00  0.00    -0.143 OA 
BRANCH  20  23
HETATM   23  N   UNL     1     -11.253  10.084  69.034  1.00  0.00    -0.402 N  
HETATM   24  H   UNL     1     -12.084  10.672  69.088  1.00  0.00     0.000 HD 
BRANCH  23  25
HETATM   25  C   UNL     1     -11.078   9.126  70.017  1.00  0.00    -0.190 C  
HETATM   26  O   UNL     1     -11.456   9.271  71.168  1.00  0.00    -0.280 OA 
BRANCH  25  27
HETATM   27  N   UNL     1     -10.461   7.992  69.567  1.00  0.00    -0.225 N  
HETATM   28  H   UNL     1      -9.456   8.001  69.393  1.00  0.00     0.000 HD 
BRANCH  27  29
HETATM   29  C   UNL     1     -11.225   6.771  69.333  1.00  0.00    -0.234 C  
HETATM   30  C   UNL     1     -11.025   6.251  67.905  1.00  0.00    -0.421 C  
HETATM   31  C   UNL     1      -9.666   5.586  67.692  1.00  0.00    -0.145 C  
HETATM   32  C   UNL     1      -9.399   4.503  68.731  1.00  0.00    -0.206 C  
HETATM   33  C   UNL     1      -9.540   5.039  70.152  1.00  0.00    -0.257 C  
HETATM   34  C   UNL     1     -10.903   5.690  70.375  1.00  0.00    -0.326 C  
ENDBRANCH  27  29
ENDBRANCH  25  27
ENDBRANCH  23  25
ENDBRANCH  20  23
ENDBRANCH  17  20
ENDBRANCH  13  14
ENDBRANCH  12  13
ENDBRANCH  10  12
ENDBRANCH   5   8
TORSDOF 9
ENDMDL
MODEL      155
REMARK 921   NORMALIZED FREE ENERGY PREDICTED BY IDOCK:   -5.03 KCAL/MOL
REMARK 922        TOTAL FREE ENERGY PREDICTED BY IDOCK:   -9.17 KCAL/MOL
REMARK 923 INTER-LIGAND FREE ENERGY PREDICTED BY IDOCK:   -8.35 KCAL/MOL
REMARK 924 INTRA-LIGAND FREE ENERGY PREDICTED BY IDOCK:   -0.81 KCAL/MOL
REMARK 927      BINDING AFFINITY PREDICTED BY RF-SCORE:    0.00 PKD
ROOT
HETATM    1  C   UNL     1     -12.136  14.752  71.860  1.00  0.00    -0.409 C  
HETATM    2  C   UNL     1     -11.935  14.722  70.378  1.00  0.00    -0.309 A  
HETATM    3  N   UNL     1     -12.389  13.636  69.703  1.00  0.00    -0.260 NA 
HETATM    4  C   UNL     1     -12.157  13.631  68.366  1.00  0.00    -0.277 A  
HETATM    5  C   UNL     1     -11.503  14.670  67.722  1.00  0.00    -0.340 A  
HETATM    6  C   UNL     1     -11.291  15.770  69.718  1.00  0.00    -0.339 A  
HETATM    7  N   UNL     1     -11.056  15.777  68.381  1.00  0.00    -0.323 NA 
ENDROOT
BRANCH   5   8
HETATM    8  C   UNL     1     -11.237  14.569  66.260  1.00  0.00    -0.342 C  
HETATM    9  O   UNL     1     -10.216  15.041  65.773  1.00  0.00    -0.293 OA 
HETATM   10  N   UNL     1     -12.217  13.939  65.516  1.00  0.00    -0.417 N  
HETATM   11  H   UNL     1     -13.001  13.498  65.996  1.00  0.00     0.000 HD 
BRANCH  10  12
HETATM   12  C   UNL     1     -12.155  13.889  64.069  1.00  0.00    -0.396 C  
BRANCH  12  13
HETATM   13  C   UNL     1     -12.019  12.459  63.521  1.00  0.00    -0.627 C  
BRANCH  13  14
HETATM   14  C   UNL     1     -10.734  11.750  63.910  1.00  0.00    -0.457 A  
HETATM   15  C   UNL     1     -10.401  11.515  65.253  1.00  0.00    -0.322 A  
HETATM   16  C   UNL     1      -9.195  10.904  65.600  1.00  0.00    -0.227 A  
HETATM   17  C   UNL     1      -8.327  10.460  64.604  1.00  0.00    -0.155 A  
HETATM   18  C   UNL     1      -8.660  10.639  63.257  1.00  0.00    -0.151 A  
HETATM   19  C   UNL     1      -9.860  11.275  62.917  1.00  0.00    -0.317 A  
BRANCH  17  20
HETATM   20  S   UNL     1      -6.740   9.807  65.065  1.00  0.00    -0.113 S  
HETATM   21  O   UNL     1      -6.067  10.762  65.919  1.00  0.00    -0.124 OA 
HETATM   22  O   UNL     1      -6.100   9.336  63.852  1.00  0.00    -0.085 OA 
BRANCH  20  23
HETATM   23  N   UNL     1      -7.086   8.426  65.927  1.00  0.00    -0.071 N  
HETATM   24  H   UNL     1      -6.502   8.212  66.736  1.00  0.00     0.000 HD 
BRANCH  23  25
HETATM   25  C   UNL     1      -8.109   7.546  65.622  1.00  0.00    -0.128 C  
HETATM   26  O   UNL     1      -8.409   7.237  64.481  1.00  0.00    -0.055 OA 
BRANCH  25  27
HETATM   27  N   UNL     1      -8.736   7.039  66.726  1.00  0.00    -0.119 N  
HETATM   28  H   UNL     1      -8.192   6.542  67.431  1.00  0.00     0.000 HD 
BRANCH  27  29
HETATM   29  C   UNL     1     -10.175   7.202  66.906  1.00  0.00    -0.260 C  
HETATM   30  C   UNL     1     -10.819   5.922  67.452  1.00  0.00    -0.341 C  
HETATM   31  C   UNL     1     -10.537   5.694  68.936  1.00  0.00    -0.303 C  
HETATM   32  C   UNL     1     -10.903   6.914  69.774  1.00  0.00    -0.295 C  
HETATM   33  C   UNL     1     -10.213   8.174  69.265  1.00  0.00    -0.216 C  
HETATM   34  C   UNL     1     -10.505   8.416  67.785  1.00  0.00    -0.284 C  
ENDBRANCH  27  29
ENDBRANCH  25  27
ENDBRANCH  23  25
ENDBRANCH  20  23
ENDBRANCH  17  20
ENDBRANCH  13  14
ENDBRANCH  12  13
ENDBRANCH  10  12
ENDBRANCH   5   8
TORSDOF 9
ENDMDL
MODEL      156
REMARK 921   NORMALIZED FREE ENERGY PREDICTED BY IDOCK:   -5.02 KCAL/MOL
REMARK 922        TOTAL FREE ENERGY PREDICTED BY IDOCK:   -9.16 KCAL/MOL
REMARK 923 INTER-LIGAND FREE ENERGY PREDICTED BY IDOCK:   -7.24 KCAL/MOL
REMARK 924 INTRA-LIGAND FREE ENERGY PREDICTED BY IDOCK:   -1.92 KCAL/MOL
REMARK 927      BINDING AFFINITY PREDICTED BY RF-SCORE:    0.00 PKD
ROOT
HETATM    1  C   UNL     1      -7.716   8.108  74.566  1.00  0.00    -0.285 C  
HETATM    2  C   UNL     1      -8.148   7.143  73.507  1.00  0.00    -0.109 A  
HETATM    3  N   UNL     1      -9.234   6.373  73.764  1.00  0.00    -0.130 NA 
HETATM    4  C   UNL     1      -9.573   5.486  72.795  1.00  0.00    -0.148 A  
HETATM    5  C   UNL     1      -8.862   5.372  71.610  1.00  0.00    -0.135 A  
HETATM    6  C   UNL     1      -7.447   7.032  72.306  1.00  0.00    -0.086 A  
HETATM    7  N   UNL     1      -7.777   6.150  71.327  1.00  0.00    -0.104 NA 
ENDROOT
BRANCH   5   8
HETATM    8  C   UNL     1      -9.261   4.339  70.615  1.00  0.00    -0.124 C  
HETATM    9  O   UNL     1      -9.830   3.312  70.971  1.00  0.00    -0.162 OA 
HETATM   10  N   UNL     1      -8.929   4.612  69.302  1.00  0.00    -0.092 N  
HETATM   11  H   UNL     1      -8.530   5.521  69.068  1.00  0.00     0.000 HD 
BRANCH  10  12
HETATM   12  C   UNL     1      -9.134   3.637  68.250  1.00  0.00    -0.148 C  
BRANCH  12  13
HETATM   13  C   UNL     1      -9.631   4.265  66.937  1.00  0.00    -0.225 C  
BRANCH  13  14
HETATM   14  C   UNL     1      -9.608   5.783  66.912  1.00  0.00    -0.153 A  
HETATM   15  C   UNL     1     -10.771   6.540  67.113  1.00  0.00    -0.438 A  
HETATM   16  C   UNL     1     -10.745   7.934  67.042  1.00  0.00    -0.289 A  
HETATM   17  C   UNL     1      -9.538   8.598  66.829  1.00  0.00    -0.207 A  
HETATM   18  C   UNL     1      -8.357   7.867  66.674  1.00  0.00    -0.125 A  
HETATM   19  C   UNL     1      -8.394   6.468  66.723  1.00  0.00    -0.111 A  
BRANCH  17  20
HETATM   20  S   UNL     1      -9.547  10.362  66.608  1.00  0.00    -0.183 S  
HETATM   21  O   UNL     1      -9.110  10.671  65.264  1.00  0.00    -0.179 OA 
HETATM   22  O   UNL     1      -8.864  10.941  67.748  1.00  0.00    -0.132 OA 
BRANCH  20  23
HETATM   23  N   UNL     1     -11.141  10.803  66.800  1.00  0.00    -0.161 N  
HETATM   24  H   UNL     1     -11.779  10.625  66.024  1.00  0.00     0.000 HD 
BRANCH  23  25
HETATM   25  C   UNL     1     -11.660  11.396  67.936  1.00  0.00    -0.266 C  
HETATM   26  O   UNL     1     -11.865  12.595  68.033  1.00  0.00    -0.338 OA 
BRANCH  25  27
HETATM   27  N   UNL     1     -11.943  10.504  68.933  1.00  0.00    -0.513 N  
HETATM   28  H   UNL     1     -12.482   9.664  68.720  1.00  0.00     0.000 HD 
BRANCH  27  29
HETATM   29  C   UNL     1     -11.482  10.739  70.297  1.00  0.00    -0.319 C  
HETATM   30  C   UNL     1     -12.653  10.779  71.285  1.00  0.00    -0.532 C  
HETATM   31  C   UNL     1     -13.229   9.397  71.589  1.00  0.00    -0.470 C  
HETATM   32  C   UNL     1     -12.146   8.420  72.034  1.00  0.00    -0.417 C  
HETATM   33  C   UNL     1     -11.011   8.338  71.020  1.00  0.00    -0.280 C  
HETATM   34  C   UNL     1     -10.421   9.716  70.724  1.00  0.00    -0.375 C  
ENDBRANCH  27  29
ENDBRANCH  25  27
ENDBRANCH  23  25
ENDBRANCH  20  23
ENDBRANCH  17  20
ENDBRANCH  13  14
ENDBRANCH  12  13
ENDBRANCH  10  12
ENDBRANCH   5   8
TORSDOF 9
ENDMDL
MODEL      157
REMARK 921   NORMALIZED FREE ENERGY PREDICTED BY IDOCK:   -5.02 KCAL/MOL
REMARK 922        TOTAL FREE ENERGY PREDICTED BY IDOCK:   -9.16 KCAL/MOL
REMARK 923 INTER-LIGAND FREE ENERGY PREDICTED BY IDOCK:   -7.53 KCAL/MOL
REMARK 924 INTRA-LIGAND FREE ENERGY PREDICTED BY IDOCK:   -1.64 KCAL/MOL
REMARK 927      BINDING AFFINITY PREDICTED BY RF-SCORE:    0.00 PKD
ROOT
HETATM    1  C   UNL     1      -9.390   2.188  68.017  1.00  0.00    -0.244 C  
HETATM    2  C   UNL     1      -9.005   3.407  67.241  1.00  0.00    -0.150 A  
HETATM    3  N   UNL     1      -8.345   4.391  67.903  1.00  0.00    -0.094 NA 
HETATM    4  C   UNL     1      -8.044   5.495  67.174  1.00  0.00    -0.101 A  
HETATM    5  C   UNL     1      -8.381   5.616  65.835  1.00  0.00    -0.128 A  
HETATM    6  C   UNL     1      -9.327   3.532  65.889  1.00  0.00    -0.157 A  
HETATM    7  N   UNL     1      -9.029   4.630  65.149  1.00  0.00    -0.146 NA 
ENDROOT
BRANCH   5   8
HETATM    8  C   UNL     1      -8.064   6.880  65.114  1.00  0.00    -0.132 C  
HETATM    9  O   UNL     1      -7.975   6.900  63.891  1.00  0.00    -0.117 OA 
HETATM   10  N   UNL     1      -7.864   7.989  65.913  1.00  0.00    -0.095 N  
HETATM   11  H   UNL     1      -8.034   7.919  66.916  1.00  0.00     0.000 HD 
BRANCH  10  12
HETATM   12  C   UNL     1      -7.417   9.252  65.357  1.00  0.00    -0.098 C  
BRANCH  12  13
HETATM   13  C   UNL     1      -7.162  10.324  66.430  1.00  0.00    -0.113 C  
BRANCH  13  14
HETATM   14  C   UNL     1      -8.275  11.345  66.581  1.00  0.00    -0.163 A  
HETATM   15  C   UNL     1      -8.130  12.475  67.400  1.00  0.00    -0.180 A  
HETATM   16  C   UNL     1      -9.177  13.383  67.567  1.00  0.00    -0.219 A  
HETATM   17  C   UNL     1     -10.369  13.208  66.867  1.00  0.00    -0.247 A  
HETATM   18  C   UNL     1     -10.520  12.116  66.007  1.00  0.00    -0.281 A  
HETATM   19  C   UNL     1      -9.474  11.197  65.862  1.00  0.00    -0.241 A  
BRANCH  17  20
HETATM   20  S   UNL     1     -11.735  14.298  67.195  1.00  0.00    -0.418 S  
HETATM   21  O   UNL     1     -12.646  14.263  66.072  1.00  0.00    -0.447 OA 
HETATM   22  O   UNL     1     -11.180  15.560  67.645  1.00  0.00    -0.323 OA 
BRANCH  20  23
HETATM   23  N   UNL     1     -12.473  13.655  68.542  1.00  0.00    -0.205 N  
HETATM   24  H   UNL     1     -13.383  13.213  68.418  1.00  0.00     0.000 HD 
BRANCH  23  25
HETATM   25  C   UNL     1     -11.938  13.679  69.817  1.00  0.00    -0.341 C  
HETATM   26  O   UNL     1     -11.965  14.664  70.537  1.00  0.00    -0.274 OA 
BRANCH  25  27
HETATM   27  N   UNL     1     -11.395  12.485  70.201  1.00  0.00    -0.471 N  
HETATM   28  H   UNL     1     -10.665  12.469  70.914  1.00  0.00     0.000 HD 
BRANCH  27  29
HETATM   29  C   UNL     1     -11.848  11.233  69.602  1.00  0.00    -0.360 C  
HETATM   30  C   UNL     1     -10.671  10.299  69.301  1.00  0.00    -0.265 C  
HETATM   31  C   UNL     1     -10.096   9.635  70.551  1.00  0.00    -0.338 C  
HETATM   32  C   UNL     1     -11.178   8.936  71.366  1.00  0.00    -0.382 C  
HETATM   33  C   UNL     1     -12.320   9.884  71.716  1.00  0.00    -0.456 C  
HETATM   34  C   UNL     1     -12.908  10.540  70.468  1.00  0.00    -0.339 C  
ENDBRANCH  27  29
ENDBRANCH  25  27
ENDBRANCH  23  25
ENDBRANCH  20  23
ENDBRANCH  17  20
ENDBRANCH  13  14
ENDBRANCH  12  13
ENDBRANCH  10  12
ENDBRANCH   5   8
TORSDOF 9
ENDMDL
MODEL      158
REMARK 921   NORMALIZED FREE ENERGY PREDICTED BY IDOCK:   -5.01 KCAL/MOL
REMARK 922        TOTAL FREE ENERGY PREDICTED BY IDOCK:   -9.14 KCAL/MOL
REMARK 923 INTER-LIGAND FREE ENERGY PREDICTED BY IDOCK:   -7.71 KCAL/MOL
REMARK 924 INTRA-LIGAND FREE ENERGY PREDICTED BY IDOCK:   -1.44 KCAL/MOL
REMARK 927      BINDING AFFINITY PREDICTED BY RF-SCORE:    0.00 PKD
ROOT
HETATM    1  C   UNL     1     -10.824   2.567  73.502  1.00  0.00    -0.289 C  
HETATM    2  C   UNL     1     -10.783   3.920  72.864  1.00  0.00    -0.120 A  
HETATM    3  N   UNL     1     -10.296   4.004  71.601  1.00  0.00    -0.031 NA 
HETATM    4  C   UNL     1     -10.242   5.252  71.069  1.00  0.00    -0.229 A  
HETATM    5  C   UNL     1     -10.663   6.374  71.766  1.00  0.00    -0.233 A  
HETATM    6  C   UNL     1     -11.218   5.053  73.551  1.00  0.00    -0.269 A  
HETATM    7  N   UNL     1     -11.172   6.306  73.030  1.00  0.00    -0.202 NA 
ENDROOT
BRANCH   5   8
HETATM    8  C   UNL     1     -10.525   7.717  71.138  1.00  0.00    -0.208 C  
HETATM    9  O   UNL     1     -11.515   8.373  70.833  1.00  0.00    -0.268 OA 
HETATM   10  N   UNL     1      -9.229   8.141  70.912  1.00  0.00    -0.148 N  
HETATM   11  H   UNL     1      -8.453   7.581  71.264  1.00  0.00     0.000 HD 
BRANCH  10  12
HETATM   12  C   UNL     1      -8.948   9.364  70.186  1.00  0.00    -0.227 C  
BRANCH  12  13
HETATM   13  C   UNL     1      -8.154   9.125  68.890  1.00  0.00    -0.100 C  
BRANCH  13  14
HETATM   14  C   UNL     1      -8.711   9.830  67.667  1.00  0.00    -0.125 A  
HETATM   15  C   UNL     1      -8.027  10.889  67.052  1.00  0.00    -0.132 A  
HETATM   16  C   UNL     1      -8.572  11.559  65.955  1.00  0.00    -0.046 A  
HETATM   17  C   UNL     1      -9.786  11.140  65.416  1.00  0.00    -0.231 A  
HETATM   18  C   UNL     1     -10.464  10.056  65.981  1.00  0.00    -0.145 A  
HETATM   19  C   UNL     1      -9.923   9.403  67.095  1.00  0.00    -0.263 A  
BRANCH  17  20
HETATM   20  S   UNL     1     -10.526  12.089  64.107  1.00  0.00    -0.390 S  
HETATM   21  O   UNL     1     -11.809  11.511  63.774  1.00  0.00    -0.336 OA 
HETATM   22  O   UNL     1      -9.517  12.266  63.081  1.00  0.00    -0.196 OA 
BRANCH  20  23
HETATM   23  N   UNL     1     -10.741  13.607  64.756  1.00  0.00    -0.387 N  
HETATM   24  H   UNL     1      -9.952  14.252  64.725  1.00  0.00     0.000 HD 
BRANCH  23  25
HETATM   25  C   UNL     1     -11.915  14.054  65.335  1.00  0.00    -0.380 C  
HETATM   26  O   UNL     1     -12.743  14.724  64.740  1.00  0.00    -0.471 OA 
BRANCH  25  27
HETATM   27  N   UNL     1     -12.066  13.655  66.634  1.00  0.00    -0.415 N  
HETATM   28  H   UNL     1     -12.904  13.142  66.909  1.00  0.00     0.000 HD 
BRANCH  27  29
HETATM   29  C   UNL     1     -11.043  13.954  67.630  1.00  0.00    -0.277 C  
HETATM   30  C   UNL     1     -11.483  15.089  68.562  1.00  0.00    -0.335 C  
HETATM   31  C   UNL     1     -12.527  14.653  69.588  1.00  0.00    -0.197 C  
HETATM   32  C   UNL     1     -12.072  13.425  70.369  1.00  0.00    -0.405 C  
HETATM   33  C   UNL     1     -11.692  12.277  69.441  1.00  0.00    -0.392 C  
HETATM   34  C   UNL     1     -10.636  12.703  68.422  1.00  0.00    -0.258 C  
ENDBRANCH  27  29
ENDBRANCH  25  27
ENDBRANCH  23  25
ENDBRANCH  20  23
ENDBRANCH  17  20
ENDBRANCH  13  14
ENDBRANCH  12  13
ENDBRANCH  10  12
ENDBRANCH   5   8
TORSDOF 9
ENDMDL
MODEL      159
REMARK 921   NORMALIZED FREE ENERGY PREDICTED BY IDOCK:   -5.01 KCAL/MOL
REMARK 922        TOTAL FREE ENERGY PREDICTED BY IDOCK:   -9.14 KCAL/MOL
REMARK 923 INTER-LIGAND FREE ENERGY PREDICTED BY IDOCK:   -7.72 KCAL/MOL
REMARK 924 INTRA-LIGAND FREE ENERGY PREDICTED BY IDOCK:   -1.42 KCAL/MOL
REMARK 927      BINDING AFFINITY PREDICTED BY RF-SCORE:    0.00 PKD
ROOT
HETATM    1  C   UNL     1     -12.158   6.443  71.609  1.00  0.00    -0.319 C  
HETATM    2  C   UNL     1     -12.335   7.925  71.514  1.00  0.00    -0.315 A  
HETATM    3  N   UNL     1     -11.351   8.638  70.911  1.00  0.00    -0.268 NA 
HETATM    4  C   UNL     1     -11.532   9.983  70.876  1.00  0.00    -0.371 A  
HETATM    5  C   UNL     1     -12.653  10.596  71.415  1.00  0.00    -0.421 A  
HETATM    6  C   UNL     1     -13.466   8.549  72.041  1.00  0.00    -0.381 A  
HETATM    7  N   UNL     1     -13.660   9.893  72.009  1.00  0.00    -0.359 NA 
ENDROOT
BRANCH   5   8
HETATM    8  C   UNL     1     -12.757  12.081  71.386  1.00  0.00    -0.275 C  
HETATM    9  O   UNL     1     -13.538  12.670  72.125  1.00  0.00    -0.517 OA 
HETATM   10  N   UNL     1     -11.942  12.719  70.471  1.00  0.00    -0.532 N  
HETATM   11  H   UNL     1     -11.258  12.174  69.946  1.00  0.00     0.000 HD 
BRANCH  10  12
HETATM   12  C   UNL     1     -12.037  14.147  70.239  1.00  0.00    -0.342 C  
BRANCH  12  13
HETATM   13  C   UNL     1     -11.912  14.525  68.754  1.00  0.00    -0.315 C  
BRANCH  13  14
HETATM   14  C   UNL     1     -11.192  13.499  67.897  1.00  0.00    -0.302 A  
HETATM   15  C   UNL     1     -11.860  12.776  66.898  1.00  0.00    -0.440 A  
HETATM   16  C   UNL     1     -11.198  11.802  66.148  1.00  0.00    -0.363 A  
HETATM   17  C   UNL     1      -9.837  11.578  66.344  1.00  0.00    -0.205 A  
HETATM   18  C   UNL     1      -9.138  12.321  67.301  1.00  0.00    -0.184 A  
HETATM   19  C   UNL     1      -9.813  13.279  68.066  1.00  0.00    -0.230 A  
BRANCH  17  20
HETATM   20  S   UNL     1      -9.044  10.245  65.477  1.00  0.00    -0.191 S  
HETATM   21  O   UNL     1      -7.612  10.351  65.654  1.00  0.00    -0.144 OA 
HETATM   22  O   UNL     1      -9.612  10.202  64.143  1.00  0.00    -0.290 OA 
BRANCH  20  23
HETATM   23  N   UNL     1      -9.604   8.865  66.221  1.00  0.00    -0.240 N  
HETATM   24  H   UNL     1     -10.344   8.968  66.915  1.00  0.00     0.000 HD 
BRANCH  23  25
HETATM   25  C   UNL     1      -9.137   7.589  65.964  1.00  0.00    -0.094 C  
HETATM   26  O   UNL     1      -9.684   6.579  66.377  1.00  0.00    -0.156 OA 
BRANCH  25  27
HETATM   27  N   UNL     1      -8.014   7.568  65.185  1.00  0.00    -0.122 N  
HETATM   28  H   UNL     1      -7.171   8.046  65.503  1.00  0.00     0.000 HD 
BRANCH  27  29
HETATM   29  C   UNL     1      -8.009   6.869  63.903  1.00  0.00    -0.064 C  
HETATM   30  C   UNL     1      -7.477   7.765  62.779  1.00  0.00    -0.110 C  
HETATM   31  C   UNL     1      -5.961   7.948  62.823  1.00  0.00    -0.072 C  
HETATM   32  C   UNL     1      -5.233   6.609  62.872  1.00  0.00    -0.030 C  
HETATM   33  C   UNL     1      -5.722   5.745  64.028  1.00  0.00    -0.021 C  
HETATM   34  C   UNL     1      -7.236   5.546  63.980  1.00  0.00    -0.051 C  
ENDBRANCH  27  29
ENDBRANCH  25  27
ENDBRANCH  23  25
ENDBRANCH  20  23
ENDBRANCH  17  20
ENDBRANCH  13  14
ENDBRANCH  12  13
ENDBRANCH  10  12
ENDBRANCH   5   8
TORSDOF 9
ENDMDL
MODEL      160
REMARK 921   NORMALIZED FREE ENERGY PREDICTED BY IDOCK:   -5.01 KCAL/MOL
REMARK 922        TOTAL FREE ENERGY PREDICTED BY IDOCK:   -9.14 KCAL/MOL
REMARK 923 INTER-LIGAND FREE ENERGY PREDICTED BY IDOCK:   -7.67 KCAL/MOL
REMARK 924 INTRA-LIGAND FREE ENERGY PREDICTED BY IDOCK:   -1.47 KCAL/MOL
REMARK 927      BINDING AFFINITY PREDICTED BY RF-SCORE:    0.00 PKD
ROOT
HETATM    1  C   UNL     1     -10.817  17.325  68.072  1.00  0.00    -0.297 C  
HETATM    2  C   UNL     1     -11.100  15.867  68.250  1.00  0.00    -0.345 A  
HETATM    3  N   UNL     1     -11.522  15.453  69.471  1.00  0.00    -0.295 NA 
HETATM    4  C   UNL     1     -11.734  14.119  69.603  1.00  0.00    -0.316 A  
HETATM    5  C   UNL     1     -11.539  13.229  68.557  1.00  0.00    -0.333 A  
HETATM    6  C   UNL     1     -10.921  14.966  67.200  1.00  0.00    -0.323 A  
HETATM    7  N   UNL     1     -11.132  13.630  67.318  1.00  0.00    -0.287 NA 
ENDROOT
BRANCH   5   8
HETATM    8  C   UNL     1     -11.742  11.773  68.792  1.00  0.00    -0.329 C  
HETATM    9  O   UNL     1     -12.070  11.029  67.875  1.00  0.00    -0.600 OA 
HETATM   10  N   UNL     1     -11.557  11.346  70.093  1.00  0.00    -0.445 N  
HETATM   11  H   UNL     1     -11.205  12.003  70.788  1.00  0.00     0.000 HD 
BRANCH  10  12
HETATM   12  C   UNL     1     -11.851   9.983  70.492  1.00  0.00    -0.303 C  
BRANCH  12  13
HETATM   13  C   UNL     1     -11.062   9.537  71.734  1.00  0.00    -0.214 C  
BRANCH  13  14
HETATM   14  C   UNL     1     -10.489   8.134  71.650  1.00  0.00    -0.288 A  
HETATM   15  C   UNL     1      -9.198   7.836  72.114  1.00  0.00    -0.198 A  
HETATM   16  C   UNL     1      -8.666   6.552  71.989  1.00  0.00    -0.132 A  
HETATM   17  C   UNL     1      -9.441   5.526  71.453  1.00  0.00    -0.148 A  
HETATM   18  C   UNL     1     -10.748   5.786  71.029  1.00  0.00    -0.326 A  
HETATM   19  C   UNL     1     -11.267   7.082  71.135  1.00  0.00    -0.304 A  
BRANCH  17  20
HETATM   20  S   UNL     1      -8.701   3.933  71.179  1.00  0.00    -0.084 S  
HETATM   21  O   UNL     1      -8.782   3.159  72.398  1.00  0.00    -0.081 OA 
HETATM   22  O   UNL     1      -7.417   4.159  70.542  1.00  0.00    -0.044 OA 
BRANCH  20  23
HETATM   23  N   UNL     1      -9.640   3.228  69.999  1.00  0.00    -0.155 N  
HETATM   24  H   UNL     1     -10.478   2.728  70.296  1.00  0.00     0.000 HD 
BRANCH  23  25
HETATM   25  C   UNL     1      -9.365   3.273  68.644  1.00  0.00    -0.169 C  
HETATM   26  O   UNL     1      -9.549   2.331  67.891  1.00  0.00    -0.181 OA 
BRANCH  25  27
HETATM   27  N   UNL     1      -8.885   4.484  68.227  1.00  0.00    -0.103 N  
HETATM   28  H   UNL     1      -8.334   5.055  68.867  1.00  0.00     0.000 HD 
BRANCH  27  29
HETATM   29  C   UNL     1      -9.154   4.967  66.876  1.00  0.00    -0.118 C  
HETATM   30  C   UNL     1     -10.565   5.554  66.762  1.00  0.00    -0.360 C  
HETATM   31  C   UNL     1     -10.697   6.930  67.411  1.00  0.00    -0.396 C  
HETATM   32  C   UNL     1      -9.638   7.900  66.898  1.00  0.00    -0.263 C  
HETATM   33  C   UNL     1      -8.231   7.338  67.069  1.00  0.00    -0.117 C  
HETATM   34  C   UNL     1      -8.089   5.968  66.408  1.00  0.00    -0.110 C  
ENDBRANCH  27  29
ENDBRANCH  25  27
ENDBRANCH  23  25
ENDBRANCH  20  23
ENDBRANCH  17  20
ENDBRANCH  13  14
ENDBRANCH  12  13
ENDBRANCH  10  12
ENDBRANCH   5   8
TORSDOF 9
ENDMDL
MODEL      161
REMARK 921   NORMALIZED FREE ENERGY PREDICTED BY IDOCK:   -4.99 KCAL/MOL
REMARK 922        TOTAL FREE ENERGY PREDICTED BY IDOCK:   -9.12 KCAL/MOL
REMARK 923 INTER-LIGAND FREE ENERGY PREDICTED BY IDOCK:   -7.59 KCAL/MOL
REMARK 924 INTRA-LIGAND FREE ENERGY PREDICTED BY IDOCK:   -1.53 KCAL/MOL
REMARK 927      BINDING AFFINITY PREDICTED BY RF-SCORE:    0.00 PKD
ROOT
HETATM    1  C   UNL     1     -13.530  16.090  73.326  1.00  0.00    -0.570 C  
HETATM    2  C   UNL     1     -13.133  15.020  72.359  1.00  0.00    -0.372 A  
HETATM    3  N   UNL     1     -13.554  13.756  72.612  1.00  0.00    -0.689 NA 
HETATM    4  C   UNL     1     -13.145  12.809  71.730  1.00  0.00    -0.356 A  
HETATM    5  C   UNL     1     -12.351  13.108  70.634  1.00  0.00    -0.326 A  
HETATM    6  C   UNL     1     -12.346  15.314  71.244  1.00  0.00    -0.361 A  
HETATM    7  N   UNL     1     -11.933  14.376  70.354  1.00  0.00    -0.305 NA 
ENDROOT
BRANCH   5   8
HETATM    8  C   UNL     1     -11.897  12.008  69.739  1.00  0.00    -0.331 C  
HETATM    9  O   UNL     1     -12.657  11.098  69.428  1.00  0.00    -0.297 OA 
HETATM   10  N   UNL     1     -10.582  12.081  69.321  1.00  0.00    -0.442 N  
HETATM   11  H   UNL     1     -10.031  12.908  69.551  1.00  0.00     0.000 HD 
BRANCH  10  12
HETATM   12  C   UNL     1      -9.968  11.010  68.560  1.00  0.00    -0.193 C  
BRANCH  12  13
HETATM   13  C   UNL     1      -9.720  11.383  67.089  1.00  0.00    -0.200 C  
BRANCH  13  14
HETATM   14  C   UNL     1      -9.039  10.303  66.268  1.00  0.00    -0.178 A  
HETATM   15  C   UNL     1      -9.355  10.097  64.917  1.00  0.00    -0.310 A  
HETATM   16  C   UNL     1      -8.755   9.070  64.185  1.00  0.00    -0.126 A  
HETATM   17  C   UNL     1      -7.780   8.270  64.778  1.00  0.00    -0.114 A  
HETATM   18  C   UNL     1      -7.412   8.488  66.109  1.00  0.00    -0.089 A  
HETATM   19  C   UNL     1      -8.035   9.504  66.844  1.00  0.00    -0.109 A  
BRANCH  17  20
HETATM   20  S   UNL     1      -7.127   6.886  63.873  1.00  0.00    -0.065 S  
HETATM   21  O   UNL     1      -6.040   7.341  63.035  1.00  0.00    -0.051 OA 
HETATM   22  O   UNL     1      -8.254   6.185  63.289  1.00  0.00    -0.099 OA 
BRANCH  20  23
HETATM   23  N   UNL     1      -6.546   5.854  65.043  1.00  0.00    -0.042 N  
HETATM   24  H   UNL     1      -5.606   6.025  65.401  1.00  0.00     0.000 HD 
BRANCH  23  25
HETATM   25  C   UNL     1      -7.247   4.782  65.563  1.00  0.00    -0.071 C  
HETATM   26  O   UNL     1      -7.197   3.657  65.093  1.00  0.00    -0.064 OA 
BRANCH  25  27
HETATM   27  N   UNL     1      -7.985   5.100  66.669  1.00  0.00    -0.104 N  
HETATM   28  H   UNL     1      -7.608   5.754  67.354  1.00  0.00     0.000 HD 
BRANCH  27  29
HETATM   29  C   UNL     1      -9.305   4.514  66.878  1.00  0.00    -0.145 C  
HETATM   30  C   UNL     1      -9.541   4.180  68.355  1.00  0.00    -0.190 C  
HETATM   31  C   UNL     1      -9.819   5.413  69.213  1.00  0.00    -0.249 C  
HETATM   32  C   UNL     1     -10.950   6.258  68.636  1.00  0.00    -0.423 C  
HETATM   33  C   UNL     1     -10.683   6.639  67.184  1.00  0.00    -0.440 C  
HETATM   34  C   UNL     1     -10.420   5.408  66.319  1.00  0.00    -0.277 C  
ENDBRANCH  27  29
ENDBRANCH  25  27
ENDBRANCH  23  25
ENDBRANCH  20  23
ENDBRANCH  17  20
ENDBRANCH  13  14
ENDBRANCH  12  13
ENDBRANCH  10  12
ENDBRANCH   5   8
TORSDOF 9
ENDMDL
MODEL      162
REMARK 921   NORMALIZED FREE ENERGY PREDICTED BY IDOCK:   -4.98 KCAL/MOL
REMARK 922        TOTAL FREE ENERGY PREDICTED BY IDOCK:   -9.10 KCAL/MOL
REMARK 923 INTER-LIGAND FREE ENERGY PREDICTED BY IDOCK:   -8.31 KCAL/MOL
REMARK 924 INTRA-LIGAND FREE ENERGY PREDICTED BY IDOCK:   -0.79 KCAL/MOL
REMARK 927      BINDING AFFINITY PREDICTED BY RF-SCORE:    0.00 PKD
ROOT
HETATM    1  C   UNL     1     -12.987  15.785  73.802  1.00  0.00    -0.633 C  
HETATM    2  C   UNL     1     -12.572  15.570  72.381  1.00  0.00    -0.400 A  
HETATM    3  N   UNL     1     -11.243  15.539  72.112  1.00  0.00    -0.321 NA 
HETATM    4  C   UNL     1     -10.907  15.377  70.808  1.00  0.00    -0.252 A  
HETATM    5  C   UNL     1     -11.858  15.245  69.807  1.00  0.00    -0.332 A  
HETATM    6  C   UNL     1     -13.522  15.421  71.369  1.00  0.00    -0.522 A  
HETATM    7  N   UNL     1     -13.198  15.255  70.061  1.00  0.00     0.097 NA 
ENDROOT
BRANCH   5   8
HETATM    8  C   UNL     1     -11.414  15.124  68.391  1.00  0.00    -0.332 C  
HETATM    9  O   UNL     1     -10.359  15.626  68.018  1.00  0.00    -0.238 OA 
HETATM   10  N   UNL     1     -12.272  14.440  67.551  1.00  0.00    -0.619 N  
HETATM   11  H   UNL     1     -13.092  13.978  67.945  1.00  0.00     0.000 HD 
BRANCH  10  12
HETATM   12  C   UNL     1     -12.034  14.363  66.123  1.00  0.00    -0.369 C  
BRANCH  12  13
HETATM   13  C   UNL     1     -12.419  13.000  65.522  1.00  0.00    -0.496 C  
BRANCH  13  14
HETATM   14  C   UNL     1     -11.477  11.863  65.876  1.00  0.00    -0.340 A  
HETATM   15  C   UNL     1     -10.626  11.288  64.920  1.00  0.00    -0.364 A  
HETATM   16  C   UNL     1      -9.798  10.212  65.247  1.00  0.00    -0.388 A  
HETATM   17  C   UNL     1      -9.762   9.734  66.555  1.00  0.00    -0.209 A  
HETATM   18  C   UNL     1     -10.564  10.323  67.537  1.00  0.00    -0.320 A  
HETATM   19  C   UNL     1     -11.410  11.385  67.197  1.00  0.00    -0.327 A  
BRANCH  17  20
HETATM   20  S   UNL     1      -8.805   8.281  66.920  1.00  0.00    -0.145 S  
HETATM   21  O   UNL     1      -9.311   7.674  68.131  1.00  0.00    -0.144 OA 
HETATM   22  O   UNL     1      -7.406   8.652  66.819  1.00  0.00    -0.077 OA 
BRANCH  20  23
HETATM   23  N   UNL     1      -9.068   7.266  65.627  1.00  0.00    -0.385 N  
HETATM   24  H   UNL     1      -9.937   7.380  65.104  1.00  0.00     0.000 HD 
BRANCH  23  25
HETATM   25  C   UNL     1      -8.193   6.279  65.212  1.00  0.00    -0.138 C  
HETATM   26  O   UNL     1      -7.439   6.408  64.261  1.00  0.00    -0.076 OA 
BRANCH  25  27
HETATM   27  N   UNL     1      -8.240   5.152  65.984  1.00  0.00    -0.112 N  
HETATM   28  H   UNL     1      -7.387   4.803  66.420  1.00  0.00     0.000 HD 
BRANCH  27  29
HETATM   29  C   UNL     1      -9.499   4.442  66.191  1.00  0.00    -0.174 C  
HETATM   30  C   UNL     1     -10.148   4.053  64.858  1.00  0.00    -0.214 C  
HETATM   31  C   UNL     1      -9.456   2.876  64.174  1.00  0.00    -0.133 C  
HETATM   32  C   UNL     1      -9.324   1.678  65.109  1.00  0.00    -0.022 C  
HETATM   33  C   UNL     1      -8.623   2.055  66.409  1.00  0.00    -0.112 C  
HETATM   34  C   UNL     1      -9.320   3.223  67.106  1.00  0.00    -0.212 C  
ENDBRANCH  27  29
ENDBRANCH  25  27
ENDBRANCH  23  25
ENDBRANCH  20  23
ENDBRANCH  17  20
ENDBRANCH  13  14
ENDBRANCH  12  13
ENDBRANCH  10  12
ENDBRANCH   5   8
TORSDOF 9
ENDMDL
MODEL      163
REMARK 921   NORMALIZED FREE ENERGY PREDICTED BY IDOCK:   -4.98 KCAL/MOL
REMARK 922        TOTAL FREE ENERGY PREDICTED BY IDOCK:   -9.09 KCAL/MOL
REMARK 923 INTER-LIGAND FREE ENERGY PREDICTED BY IDOCK:   -7.01 KCAL/MOL
REMARK 924 INTRA-LIGAND FREE ENERGY PREDICTED BY IDOCK:   -2.08 KCAL/MOL
REMARK 927      BINDING AFFINITY PREDICTED BY RF-SCORE:    0.00 PKD
ROOT
HETATM    1  C   UNL     1     -14.036  14.688  72.575  1.00  0.00    -0.442 C  
HETATM    2  C   UNL     1     -13.359  13.534  71.907  1.00  0.00    -0.443 A  
HETATM    3  N   UNL     1     -13.602  12.293  72.398  1.00  0.00    -0.289 NA 
HETATM    4  C   UNL     1     -12.943  11.276  71.788  1.00  0.00    -0.414 A  
HETATM    5  C   UNL     1     -12.077  11.484  70.725  1.00  0.00    -0.309 A  
HETATM    6  C   UNL     1     -12.497  13.732  70.828  1.00  0.00    -0.370 A  
HETATM    7  N   UNL     1     -11.834  12.722  70.207  1.00  0.00    -0.271 NA 
ENDROOT
BRANCH   5   8
HETATM    8  C   UNL     1     -11.347  10.325  70.140  1.00  0.00    -0.316 C  
HETATM    9  O   UNL     1     -11.290  10.166  68.926  1.00  0.00    -0.204 OA 
HETATM   10  N   UNL     1     -10.776   9.456  71.051  1.00  0.00    -0.311 N  
HETATM   11  H   UNL     1     -10.793   9.693  72.043  1.00  0.00     0.000 HD 
BRANCH  10  12
HETATM   12  C   UNL     1     -10.154   8.217  70.629  1.00  0.00    -0.194 C  
BRANCH  12  13
HETATM   13  C   UNL     1     -11.175   7.135  70.237  1.00  0.00    -0.309 C  
BRANCH  13  14
HETATM   14  C   UNL     1     -10.806   6.335  69.001  1.00  0.00    -0.400 A  
HETATM   15  C   UNL     1     -10.021   5.175  69.082  1.00  0.00    -0.273 A  
HETATM   16  C   UNL     1      -9.651   4.474  67.933  1.00  0.00    -0.208 A  
HETATM   17  C   UNL     1     -10.113   4.887  66.686  1.00  0.00    -0.249 A  
HETATM   18  C   UNL     1     -10.937   6.012  66.584  1.00  0.00    -0.229 A  
HETATM   19  C   UNL     1     -11.285   6.725  67.737  1.00  0.00    -0.195 A  
BRANCH  17  20
HETATM   20  S   UNL     1      -9.522   4.062  65.226  1.00  0.00    -0.184 S  
HETATM   21  O   UNL     1     -10.632   3.401  64.576  1.00  0.00    -0.084 OA 
HETATM   22  O   UNL     1      -8.343   3.307  65.606  1.00  0.00    -0.096 OA 
BRANCH  20  23
HETATM   23  N   UNL     1      -8.946   5.285  64.254  1.00  0.00    -0.357 N  
HETATM   24  H   UNL     1      -9.610   5.753  63.637  1.00  0.00     0.000 HD 
BRANCH  23  25
HETATM   25  C   UNL     1      -7.630   5.712  64.225  1.00  0.00    -0.080 C  
HETATM   26  O   UNL     1      -6.917   5.616  63.240  1.00  0.00    -0.039 OA 
BRANCH  25  27
HETATM   27  N   UNL     1      -7.215   6.271  65.401  1.00  0.00    -0.068 N  
HETATM   28  H   UNL     1      -7.198   5.706  66.250  1.00  0.00     0.000 HD 
BRANCH  27  29
HETATM   29  C   UNL     1      -6.794   7.668  65.455  1.00  0.00    -0.045 C  
HETATM   30  C   UNL     1      -7.784   8.579  64.721  1.00  0.00    -0.107 C  
HETATM   31  C   UNL     1      -9.077   8.812  65.501  1.00  0.00    -0.221 C  
HETATM   32  C   UNL     1      -8.800   9.302  66.919  1.00  0.00    -0.141 C  
HETATM   33  C   UNL     1      -7.862   8.361  67.666  1.00  0.00    -0.107 C  
HETATM   34  C   UNL     1      -6.561   8.137  66.897  1.00  0.00    -0.057 C  
ENDBRANCH  27  29
ENDBRANCH  25  27
ENDBRANCH  23  25
ENDBRANCH  20  23
ENDBRANCH  17  20
ENDBRANCH  13  14
ENDBRANCH  12  13
ENDBRANCH  10  12
ENDBRANCH   5   8
TORSDOF 9
ENDMDL
MODEL      164
REMARK 921   NORMALIZED FREE ENERGY PREDICTED BY IDOCK:   -4.98 KCAL/MOL
REMARK 922        TOTAL FREE ENERGY PREDICTED BY IDOCK:   -9.09 KCAL/MOL
REMARK 923 INTER-LIGAND FREE ENERGY PREDICTED BY IDOCK:   -8.63 KCAL/MOL
REMARK 924 INTRA-LIGAND FREE ENERGY PREDICTED BY IDOCK:   -0.47 KCAL/MOL
REMARK 927      BINDING AFFINITY PREDICTED BY RF-SCORE:    0.00 PKD
ROOT
HETATM    1  C   UNL     1      -8.446  19.782  66.506  1.00  0.00    -0.380 C  
HETATM    2  C   UNL     1      -9.154  18.482  66.721  1.00  0.00    -0.297 A  
HETATM    3  N   UNL     1      -8.801  17.436  65.934  1.00  0.00    -0.534 NA 
HETATM    4  C   UNL     1      -9.490  16.284  66.136  1.00  0.00    -0.339 A  
HETATM    5  C   UNL     1     -10.490  16.174  67.090  1.00  0.00    -0.305 A  
HETATM    6  C   UNL     1     -10.152  18.358  67.689  1.00  0.00    -0.360 A  
HETATM    7  N   UNL     1     -10.846  17.210  67.903  1.00  0.00    -0.344 NA 
ENDROOT
BRANCH   5   8
HETATM    8  C   UNL     1     -11.238  14.894  67.218  1.00  0.00    -0.345 C  
HETATM    9  O   UNL     1     -11.687  14.327  66.227  1.00  0.00    -0.367 OA 
HETATM   10  N   UNL     1     -11.401  14.422  68.507  1.00  0.00    -0.267 N  
HETATM   11  H   UNL     1     -10.932  14.901  69.275  1.00  0.00     0.000 HD 
BRANCH  10  12
HETATM   12  C   UNL     1     -12.223  13.262  68.791  1.00  0.00    -0.089 C  
BRANCH  12  13
HETATM   13  C   UNL     1     -12.238  12.887  70.282  1.00  0.00    -0.362 C  
BRANCH  13  14
HETATM   14  C   UNL     1     -12.057  11.406  70.564  1.00  0.00    -0.487 A  
HETATM   15  C   UNL     1     -11.140  10.626  69.843  1.00  0.00    -0.364 A  
HETATM   16  C   UNL     1     -11.017   9.255  70.081  1.00  0.00    -0.278 A  
HETATM   17  C   UNL     1     -11.766   8.653  71.090  1.00  0.00    -0.288 A  
HETATM   18  C   UNL     1     -12.651   9.419  71.855  1.00  0.00    -0.481 A  
HETATM   19  C   UNL     1     -12.787  10.788  71.595  1.00  0.00    -0.562 A  
BRANCH  17  20
HETATM   20  S   UNL     1     -11.694   6.888  71.286  1.00  0.00    -0.347 S  
HETATM   21  O   UNL     1     -11.696   6.267  69.980  1.00  0.00    -0.408 OA 
HETATM   22  O   UNL     1     -12.697   6.524  72.269  1.00  0.00    -0.161 OA 
BRANCH  20  23
HETATM   23  N   UNL     1     -10.238   6.607  72.043  1.00  0.00    -0.188 N  
HETATM   24  H   UNL     1     -10.196   6.740  73.054  1.00  0.00     0.000 HD 
BRANCH  23  25
HETATM   25  C   UNL     1      -9.082   6.208  71.399  1.00  0.00    -0.143 C  
HETATM   26  O   UNL     1      -8.777   6.580  70.277  1.00  0.00    -0.147 OA 
BRANCH  25  27
HETATM   27  N   UNL     1      -8.303   5.372  72.149  1.00  0.00    -0.124 N  
HETATM   28  H   UNL     1      -7.296   5.528  72.196  1.00  0.00     0.000 HD 
BRANCH  27  29
HETATM   29  C   UNL     1      -8.896   4.259  72.884  1.00  0.00    -0.103 C  
HETATM   30  C   UNL     1      -9.859   3.456  72.002  1.00  0.00    -0.239 C  
HETATM   31  C   UNL     1      -9.143   2.564  70.989  1.00  0.00    -0.179 C  
HETATM   32  C   UNL     1      -8.108   1.667  71.660  1.00  0.00    -0.041 C  
HETATM   33  C   UNL     1      -7.115   2.475  72.488  1.00  0.00    -0.031 C  
HETATM   34  C   UNL     1      -7.825   3.357  73.513  1.00  0.00    -0.070 C  
ENDBRANCH  27  29
ENDBRANCH  25  27
ENDBRANCH  23  25
ENDBRANCH  20  23
ENDBRANCH  17  20
ENDBRANCH  13  14
ENDBRANCH  12  13
ENDBRANCH  10  12
ENDBRANCH   5   8
TORSDOF 9
ENDMDL
MODEL      165
REMARK 921   NORMALIZED FREE ENERGY PREDICTED BY IDOCK:   -4.98 KCAL/MOL
REMARK 922        TOTAL FREE ENERGY PREDICTED BY IDOCK:   -9.09 KCAL/MOL
REMARK 923 INTER-LIGAND FREE ENERGY PREDICTED BY IDOCK:   -8.43 KCAL/MOL
REMARK 924 INTRA-LIGAND FREE ENERGY PREDICTED BY IDOCK:   -0.66 KCAL/MOL
REMARK 927      BINDING AFFINITY PREDICTED BY RF-SCORE:    0.00 PKD
ROOT
HETATM    1  C   UNL     1      -6.226   3.582  67.011  1.00  0.00    -0.035 C  
HETATM    2  C   UNL     1      -7.000   4.436  67.964  1.00  0.00    -0.056 A  
HETATM    3  N   UNL     1      -6.897   4.153  69.287  1.00  0.00    -0.045 NA 
HETATM    4  C   UNL     1      -7.640   4.927  70.117  1.00  0.00    -0.059 A  
HETATM    5  C   UNL     1      -8.452   5.949  69.650  1.00  0.00    -0.117 A  
HETATM    6  C   UNL     1      -7.808   5.476  67.505  1.00  0.00    -0.101 A  
HETATM    7  N   UNL     1      -8.554   6.260  68.326  1.00  0.00    -0.117 NA 
ENDROOT
BRANCH   5   8
HETATM    8  C   UNL     1      -9.280   6.722  70.617  1.00  0.00    -0.155 C  
HETATM    9  O   UNL     1     -10.084   6.156  71.349  1.00  0.00    -0.188 OA 
HETATM   10  N   UNL     1      -9.090   8.091  70.607  1.00  0.00    -0.151 N  
HETATM   11  H   UNL     1      -8.347   8.487  70.031  1.00  0.00     0.000 HD 
BRANCH  10  12
HETATM   12  C   UNL     1      -9.922   8.978  71.396  1.00  0.00    -0.318 C  
BRANCH  12  13
HETATM   13  C   UNL     1     -11.307   9.215  70.773  1.00  0.00    -0.337 C  
BRANCH  13  14
HETATM   14  C   UNL     1     -11.338  10.270  69.681  1.00  0.00    -0.315 A  
HETATM   15  C   UNL     1     -10.910   9.989  68.375  1.00  0.00    -0.277 A  
HETATM   16  C   UNL     1     -10.900  10.980  67.391  1.00  0.00    -0.327 A  
HETATM   17  C   UNL     1     -11.379  12.256  67.683  1.00  0.00    -0.311 A  
HETATM   18  C   UNL     1     -11.857  12.546  68.964  1.00  0.00    -0.344 A  
HETATM   19  C   UNL     1     -11.842  11.555  69.952  1.00  0.00    -0.430 A  
BRANCH  17  20
HETATM   20  S   UNL     1     -11.233  13.537  66.459  1.00  0.00    -0.314 S  
HETATM   21  O   UNL     1     -12.549  14.062  66.167  1.00  0.00    -0.468 OA 
HETATM   22  O   UNL     1     -10.401  13.018  65.390  1.00  0.00    -0.291 OA 
BRANCH  20  23
HETATM   23  N   UNL     1     -10.304  14.712  67.186  1.00  0.00    -0.263 N  
HETATM   24  H   UNL     1      -9.300  14.547  67.255  1.00  0.00     0.000 HD 
BRANCH  23  25
HETATM   25  C   UNL     1     -10.799  15.895  67.705  1.00  0.00    -0.324 C  
HETATM   26  O   UNL     1     -11.777  15.950  68.432  1.00  0.00    -0.358 OA 
BRANCH  25  27
HETATM   27  N   UNL     1     -10.072  16.993  67.340  1.00  0.00    -0.283 N  
HETATM   28  H   UNL     1      -9.417  16.929  66.561  1.00  0.00     0.000 HD 
BRANCH  27  29
HETATM   29  C   UNL     1     -10.223  18.258  68.054  1.00  0.00    -0.385 C  
HETATM   30  C   UNL     1      -8.916  18.673  68.740  1.00  0.00    -0.291 C  
HETATM   31  C   UNL     1      -7.870  19.209  67.765  1.00  0.00    -0.295 C  
HETATM   32  C   UNL     1      -8.431  20.327  66.893  1.00  0.00    -0.354 C  
HETATM   33  C   UNL     1      -9.698  19.891  66.165  1.00  0.00    -0.527 C  
HETATM   34  C   UNL     1     -10.754  19.368  67.138  1.00  0.00    -0.593 C  
ENDBRANCH  27  29
ENDBRANCH  25  27
ENDBRANCH  23  25
ENDBRANCH  20  23
ENDBRANCH  17  20
ENDBRANCH  13  14
ENDBRANCH  12  13
ENDBRANCH  10  12
ENDBRANCH   5   8
TORSDOF 9
ENDMDL
MODEL      166
REMARK 921   NORMALIZED FREE ENERGY PREDICTED BY IDOCK:   -4.97 KCAL/MOL
REMARK 922        TOTAL FREE ENERGY PREDICTED BY IDOCK:   -9.08 KCAL/MOL
REMARK 923 INTER-LIGAND FREE ENERGY PREDICTED BY IDOCK:   -7.26 KCAL/MOL
REMARK 924 INTRA-LIGAND FREE ENERGY PREDICTED BY IDOCK:   -1.82 KCAL/MOL
REMARK 927      BINDING AFFINITY PREDICTED BY RF-SCORE:    0.00 PKD
ROOT
HETATM    1  C   UNL     1      -8.105  10.229  63.461  1.00  0.00    -0.152 C  
HETATM    2  C   UNL     1      -8.225   8.848  64.022  1.00  0.00    -0.168 A  
HETATM    3  N   UNL     1      -8.708   8.721  65.283  1.00  0.00    -0.190 NA 
HETATM    4  C   UNL     1      -8.769   7.456  65.769  1.00  0.00    -0.109 A  
HETATM    5  C   UNL     1      -8.370   6.355  65.026  1.00  0.00    -0.087 A  
HETATM    6  C   UNL     1      -7.841   7.733  63.277  1.00  0.00    -0.129 A  
HETATM    7  N   UNL     1      -7.899   6.461  63.750  1.00  0.00    -0.114 NA 
ENDROOT
BRANCH   5   8
HETATM    8  C   UNL     1      -8.416   5.002  65.646  1.00  0.00    -0.127 C  
HETATM    9  O   UNL     1      -8.806   4.031  65.006  1.00  0.00    -0.120 OA 
HETATM   10  N   UNL     1      -8.017   4.935  66.967  1.00  0.00    -0.102 N  
HETATM   11  H   UNL     1      -7.628   5.766  67.413  1.00  0.00     0.000 HD 
BRANCH  10  12
HETATM   12  C   UNL     1      -8.139   3.711  67.735  1.00  0.00    -0.084 C  
BRANCH  12  13
HETATM   13  C   UNL     1      -9.506   3.566  68.423  1.00  0.00    -0.209 C  
BRANCH  13  14
HETATM   14  C   UNL     1      -9.855   4.690  69.381  1.00  0.00    -0.272 A  
HETATM   15  C   UNL     1     -10.707   5.740  69.006  1.00  0.00    -0.354 A  
HETATM   16  C   UNL     1     -10.984   6.792  69.882  1.00  0.00    -0.340 A  
HETATM   17  C   UNL     1     -10.460   6.779  71.173  1.00  0.00    -0.214 A  
HETATM   18  C   UNL     1      -9.648   5.719  71.587  1.00  0.00    -0.178 A  
HETATM   19  C   UNL     1      -9.355   4.679  70.696  1.00  0.00    -0.220 A  
BRANCH  17  20
HETATM   20  S   UNL     1     -10.713   8.190  72.225  1.00  0.00    -0.338 S  
HETATM   21  O   UNL     1      -9.612   9.111  72.051  1.00  0.00    -0.300 OA 
HETATM   22  O   UNL     1     -11.044   7.688  73.545  1.00  0.00    -0.315 OA 
BRANCH  20  23
HETATM   23  N   UNL     1     -12.122   8.882  71.670  1.00  0.00    -0.323 N  
HETATM   24  H   UNL     1     -12.907   8.263  71.467  1.00  0.00     0.000 HD 
BRANCH  23  25
HETATM   25  C   UNL     1     -12.303  10.238  71.464  1.00  0.00    -0.390 C  
HETATM   26  O   UNL     1     -13.194  10.883  71.993  1.00  0.00    -0.492 OA 
BRANCH  25  27
HETATM   27  N   UNL     1     -11.374  10.789  70.627  1.00  0.00    -0.421 N  
HETATM   28  H   UNL     1     -10.550  11.245  71.019  1.00  0.00     0.000 HD 
BRANCH  27  29
HETATM   29  C   UNL     1     -11.547  10.731  69.179  1.00  0.00    -0.305 C  
HETATM   30  C   UNL     1     -11.813  12.122  68.591  1.00  0.00    -0.358 C  
HETATM   31  C   UNL     1     -10.563  12.997  68.529  1.00  0.00    -0.274 C  
HETATM   32  C   UNL     1      -9.415  12.291  67.814  1.00  0.00    -0.197 C  
HETATM   33  C   UNL     1      -9.113  10.934  68.440  1.00  0.00    -0.164 C  
HETATM   34  C   UNL     1     -10.357  10.049  68.491  1.00  0.00    -0.217 C  
ENDBRANCH  27  29
ENDBRANCH  25  27
ENDBRANCH  23  25
ENDBRANCH  20  23
ENDBRANCH  17  20
ENDBRANCH  13  14
ENDBRANCH  12  13
ENDBRANCH  10  12
ENDBRANCH   5   8
TORSDOF 9
ENDMDL
MODEL      167
REMARK 921   NORMALIZED FREE ENERGY PREDICTED BY IDOCK:   -4.96 KCAL/MOL
REMARK 922        TOTAL FREE ENERGY PREDICTED BY IDOCK:   -9.07 KCAL/MOL
REMARK 923 INTER-LIGAND FREE ENERGY PREDICTED BY IDOCK:   -8.37 KCAL/MOL
REMARK 924 INTRA-LIGAND FREE ENERGY PREDICTED BY IDOCK:   -0.69 KCAL/MOL
REMARK 927      BINDING AFFINITY PREDICTED BY RF-SCORE:    0.00 PKD
ROOT
HETATM    1  C   UNL     1      -6.589  19.843  69.218  1.00  0.00    -0.378 C  
HETATM    2  C   UNL     1      -7.616  18.828  68.827  1.00  0.00    -0.311 A  
HETATM    3  N   UNL     1      -8.885  19.264  68.625  1.00  0.00    -0.371 NA 
HETATM    4  C   UNL     1      -9.794  18.309  68.306  1.00  0.00    -0.350 A  
HETATM    5  C   UNL     1      -9.454  16.970  68.185  1.00  0.00    -0.262 A  
HETATM    6  C   UNL     1      -7.280  17.481  68.688  1.00  0.00    -0.246 A  
HETATM    7  N   UNL     1      -8.180  16.517  68.366  1.00  0.00    -0.186 NA 
ENDROOT
BRANCH   5   8
HETATM    8  C   UNL     1     -10.517  15.972  67.883  1.00  0.00    -0.292 C  
HETATM    9  O   UNL     1     -10.994  15.884  66.757  1.00  0.00    -0.271 OA 
HETATM   10  N   UNL     1     -10.925  15.192  68.949  1.00  0.00    -0.242 N  
HETATM   11  H   UNL     1     -10.428  15.262  69.836  1.00  0.00     0.000 HD 
BRANCH  10  12
HETATM   12  C   UNL     1     -12.042  14.276  68.833  1.00  0.00    -0.279 C  
BRANCH  12  13
HETATM   13  C   UNL     1     -11.677  12.969  68.110  1.00  0.00    -0.391 C  
BRANCH  13  14
HETATM   14  C   UNL     1     -11.321  11.815  69.029  1.00  0.00    -0.338 A  
HETATM   15  C   UNL     1     -12.186  11.393  70.050  1.00  0.00    -0.377 A  
HETATM   16  C   UNL     1     -11.827  10.360  70.918  1.00  0.00    -0.475 A  
HETATM   17  C   UNL     1     -10.620   9.688  70.739  1.00  0.00    -0.322 A  
HETATM   18  C   UNL     1      -9.762  10.058  69.698  1.00  0.00    -0.255 A  
HETATM   19  C   UNL     1     -10.117  11.110  68.847  1.00  0.00    -0.199 A  
BRANCH  17  20
HETATM   20  S   UNL     1     -10.121   8.469  71.933  1.00  0.00    -0.324 S  
HETATM   21  O   UNL     1     -11.249   8.151  72.781  1.00  0.00    -0.389 OA 
HETATM   22  O   UNL     1      -8.875   8.925  72.518  1.00  0.00    -0.381 OA 
BRANCH  20  23
HETATM   23  N   UNL     1      -9.702   7.138  71.027  1.00  0.00    -0.166 N  
HETATM   24  H   UNL     1      -8.708   6.941  70.905  1.00  0.00     0.000 HD 
BRANCH  23  25
HETATM   25  C   UNL     1     -10.606   6.280  70.426  1.00  0.00    -0.252 C  
HETATM   26  O   UNL     1     -11.730   6.616  70.094  1.00  0.00    -0.394 OA 
BRANCH  25  27
HETATM   27  N   UNL     1     -10.108   5.023  70.222  1.00  0.00    -0.256 N  
HETATM   28  H   UNL     1     -10.643   4.212  70.533  1.00  0.00     0.000 HD 
BRANCH  27  29
HETATM   29  C   UNL     1      -8.820   4.829  69.564  1.00  0.00    -0.087 C  
HETATM   30  C   UNL     1      -7.985   3.756  70.272  1.00  0.00    -0.050 C  
HETATM   31  C   UNL     1      -8.476   2.335  69.998  1.00  0.00    -0.087 C  
HETATM   32  C   UNL     1      -8.601   2.060  68.503  1.00  0.00    -0.100 C  
HETATM   33  C   UNL     1      -9.481   3.096  67.812  1.00  0.00    -0.209 C  
HETATM   34  C   UNL     1      -8.985   4.518  68.070  1.00  0.00    -0.136 C  
ENDBRANCH  27  29
ENDBRANCH  25  27
ENDBRANCH  23  25
ENDBRANCH  20  23
ENDBRANCH  17  20
ENDBRANCH  13  14
ENDBRANCH  12  13
ENDBRANCH  10  12
ENDBRANCH   5   8
TORSDOF 9
ENDMDL
MODEL      168
REMARK 921   NORMALIZED FREE ENERGY PREDICTED BY IDOCK:   -4.96 KCAL/MOL
REMARK 922        TOTAL FREE ENERGY PREDICTED BY IDOCK:   -9.06 KCAL/MOL
REMARK 923 INTER-LIGAND FREE ENERGY PREDICTED BY IDOCK:   -7.45 KCAL/MOL
REMARK 924 INTRA-LIGAND FREE ENERGY PREDICTED BY IDOCK:   -1.61 KCAL/MOL
REMARK 927      BINDING AFFINITY PREDICTED BY RF-SCORE:    0.00 PKD
ROOT
HETATM    1  C   UNL     1     -10.306  17.491  68.299  1.00  0.00    -0.379 C  
HETATM    2  C   UNL     1     -10.694  16.051  68.418  1.00  0.00    -0.289 A  
HETATM    3  N   UNL     1     -11.818  15.760  69.119  1.00  0.00    -0.386 NA 
HETATM    4  C   UNL     1     -12.118  14.441  69.235  1.00  0.00    -0.299 A  
HETATM    5  C   UNL     1     -11.332  13.448  68.670  1.00  0.00    -0.286 A  
HETATM    6  C   UNL     1      -9.918  15.046  67.840  1.00  0.00    -0.222 A  
HETATM    7  N   UNL     1     -10.208  13.724  67.947  1.00  0.00    -0.240 NA 
ENDROOT
BRANCH   5   8
HETATM    8  C   UNL     1     -11.695  12.020  68.884  1.00  0.00    -0.326 C  
HETATM    9  O   UNL     1     -11.414  11.169  68.047  1.00  0.00    -0.328 OA 
HETATM   10  N   UNL     1     -12.373  11.745  70.056  1.00  0.00    -0.204 N  
HETATM   11  H   UNL     1     -12.501  12.487  70.744  1.00  0.00     0.000 HD 
BRANCH  10  12
HETATM   12  C   UNL     1     -12.906  10.425  70.331  1.00  0.00    -0.183 C  
BRANCH  12  13
HETATM   13  C   UNL     1     -12.694   9.982  71.788  1.00  0.00    -0.526 C  
BRANCH  13  14
HETATM   14  C   UNL     1     -11.924   8.684  71.950  1.00  0.00    -0.424 A  
HETATM   15  C   UNL     1     -10.610   8.664  72.440  1.00  0.00    -0.310 A  
HETATM   16  C   UNL     1      -9.896   7.469  72.541  1.00  0.00    -0.226 A  
HETATM   17  C   UNL     1     -10.509   6.262  72.211  1.00  0.00    -0.199 A  
HETATM   18  C   UNL     1     -11.835   6.250  71.767  1.00  0.00    -0.342 A  
HETATM   19  C   UNL     1     -12.537   7.455  71.645  1.00  0.00    -0.391 A  
BRANCH  17  20
HETATM   20  S   UNL     1      -9.544   4.769  72.219  1.00  0.00    -0.155 S  
HETATM   21  O   UNL     1     -10.417   3.644  72.474  1.00  0.00    -0.157 OA 
HETATM   22  O   UNL     1      -8.392   5.006  73.068  1.00  0.00    -0.110 OA 
BRANCH  20  23
HETATM   23  N   UNL     1      -8.920   4.662  70.679  1.00  0.00    -0.113 N  
HETATM   24  H   UNL     1      -8.956   3.755  70.215  1.00  0.00     0.000 HD 
BRANCH  23  25
HETATM   25  C   UNL     1      -8.357   5.718  69.985  1.00  0.00    -0.123 C  
HETATM   26  O   UNL     1      -7.352   6.303  70.355  1.00  0.00    -0.083 OA 
BRANCH  25  27
HETATM   27  N   UNL     1      -9.022   6.027  68.832  1.00  0.00    -0.123 N  
HETATM   28  H   UNL     1      -8.866   5.467  67.994  1.00  0.00     0.000 HD 
BRANCH  27  29
HETATM   29  C   UNL     1      -9.955   7.149  68.787  1.00  0.00    -0.163 C  
HETATM   30  C   UNL     1      -9.240   8.481  69.038  1.00  0.00    -0.146 C  
HETATM   31  C   UNL     1      -8.419   8.958  67.841  1.00  0.00    -0.125 C  
HETATM   32  C   UNL     1      -9.253   8.996  66.565  1.00  0.00    -0.226 C  
HETATM   33  C   UNL     1      -9.915   7.651  66.286  1.00  0.00    -0.021 C  
HETATM   34  C   UNL     1     -10.750   7.177  67.474  1.00  0.00    -0.344 C  
ENDBRANCH  27  29
ENDBRANCH  25  27
ENDBRANCH  23  25
ENDBRANCH  20  23
ENDBRANCH  17  20
ENDBRANCH  13  14
ENDBRANCH  12  13
ENDBRANCH  10  12
ENDBRANCH   5   8
TORSDOF 9
ENDMDL
MODEL      169
REMARK 921   NORMALIZED FREE ENERGY PREDICTED BY IDOCK:   -4.95 KCAL/MOL
REMARK 922        TOTAL FREE ENERGY PREDICTED BY IDOCK:   -9.05 KCAL/MOL
REMARK 923 INTER-LIGAND FREE ENERGY PREDICTED BY IDOCK:   -7.45 KCAL/MOL
REMARK 924 INTRA-LIGAND FREE ENERGY PREDICTED BY IDOCK:   -1.60 KCAL/MOL
REMARK 927      BINDING AFFINITY PREDICTED BY RF-SCORE:    0.00 PKD
ROOT
HETATM    1  C   UNL     1     -10.377  14.004  66.011  1.00  0.00    -0.312 C  
HETATM    2  C   UNL     1      -9.896  12.590  66.093  1.00  0.00    -0.258 A  
HETATM    3  N   UNL     1      -8.841  12.331  66.904  1.00  0.00    -0.204 NA 
HETATM    4  C   UNL     1      -8.412  11.044  66.924  1.00  0.00    -0.139 A  
HETATM    5  C   UNL     1      -9.014  10.048  66.170  1.00  0.00    -0.149 A  
HETATM    6  C   UNL     1     -10.505  11.579  65.349  1.00  0.00    -0.281 A  
HETATM    7  N   UNL     1     -10.088  10.287  65.363  1.00  0.00    -0.298 NA 
ENDROOT
BRANCH   5   8
HETATM    8  C   UNL     1      -8.455   8.669  66.203  1.00  0.00    -0.133 C  
HETATM    9  O   UNL     1      -7.680   8.327  67.090  1.00  0.00    -0.094 OA 
HETATM   10  N   UNL     1      -8.851   7.838  65.172  1.00  0.00    -0.379 N  
HETATM   11  H   UNL     1      -9.561   8.162  64.516  1.00  0.00     0.000 HD 
BRANCH  10  12
HETATM   12  C   UNL     1      -8.281   6.516  65.003  1.00  0.00    -0.115 C  
BRANCH  12  13
HETATM   13  C   UNL     1      -9.219   5.392  65.473  1.00  0.00    -0.093 C  
BRANCH  13  14
HETATM   14  C   UNL     1      -9.214   5.148  66.971  1.00  0.00    -0.117 A  
HETATM   15  C   UNL     1     -10.344   5.406  67.762  1.00  0.00    -0.226 A  
HETATM   16  C   UNL     1     -10.312   5.221  69.146  1.00  0.00    -0.264 A  
HETATM   17  C   UNL     1      -9.167   4.714  69.754  1.00  0.00    -0.123 A  
HETATM   18  C   UNL     1      -8.044   4.402  68.981  1.00  0.00    -0.072 A  
HETATM   19  C   UNL     1      -8.074   4.613  67.597  1.00  0.00    -0.100 A  
BRANCH  17  20
HETATM   20  S   UNL     1      -9.100   4.612  71.528  1.00  0.00    -0.139 S  
HETATM   21  O   UNL     1      -8.165   5.598  72.022  1.00  0.00    -0.113 OA 
HETATM   22  O   UNL     1      -8.935   3.213  71.872  1.00  0.00    -0.086 OA 
BRANCH  20  23
HETATM   23  N   UNL     1     -10.641   4.993  72.030  1.00  0.00    -0.203 N  
HETATM   24  H   UNL     1     -11.421   4.642  71.474  1.00  0.00     0.000 HD 
BRANCH  23  25
HETATM   25  C   UNL     1     -10.938   5.752  73.148  1.00  0.00    -0.271 C  
HETATM   26  O   UNL     1     -10.692   5.392  74.287  1.00  0.00    -0.253 OA 
BRANCH  25  27
HETATM   27  N   UNL     1     -11.514   6.955  72.850  1.00  0.00    -0.501 N  
HETATM   28  H   UNL     1     -11.529   7.694  73.552  1.00  0.00     0.000 HD 
BRANCH  27  29
HETATM   29  C   UNL     1     -12.106   7.193  71.537  1.00  0.00    -0.342 C  
HETATM   30  C   UNL     1     -13.625   7.375  71.633  1.00  0.00    -0.449 C  
HETATM   31  C   UNL     1     -14.033   8.734  72.198  1.00  0.00    -0.522 C  
HETATM   32  C   UNL     1     -13.373   9.881  71.440  1.00  0.00    -0.447 C  
HETATM   33  C   UNL     1     -11.857   9.729  71.399  1.00  0.00    -0.488 C  
HETATM   34  C   UNL     1     -11.443   8.377  70.820  1.00  0.00    -0.277 C  
ENDBRANCH  27  29
ENDBRANCH  25  27
ENDBRANCH  23  25
ENDBRANCH  20  23
ENDBRANCH  17  20
ENDBRANCH  13  14
ENDBRANCH  12  13
ENDBRANCH  10  12
ENDBRANCH   5   8
TORSDOF 9
ENDMDL
MODEL      170
REMARK 921   NORMALIZED FREE ENERGY PREDICTED BY IDOCK:   -4.91 KCAL/MOL
REMARK 922        TOTAL FREE ENERGY PREDICTED BY IDOCK:   -8.98 KCAL/MOL
REMARK 923 INTER-LIGAND FREE ENERGY PREDICTED BY IDOCK:   -7.40 KCAL/MOL
REMARK 924 INTRA-LIGAND FREE ENERGY PREDICTED BY IDOCK:   -1.58 KCAL/MOL
REMARK 927      BINDING AFFINITY PREDICTED BY RF-SCORE:    0.00 PKD
ROOT
HETATM    1  C   UNL     1     -12.659  15.297  70.484  1.00  0.00    -0.450 C  
HETATM    2  C   UNL     1     -12.746  13.840  70.808  1.00  0.00    -0.290 A  
HETATM    3  N   UNL     1     -13.453  13.481  71.909  1.00  0.00    -0.429 NA 
HETATM    4  C   UNL     1     -13.479  12.154  72.189  1.00  0.00    -0.278 A  
HETATM    5  C   UNL     1     -12.831  11.215  71.400  1.00  0.00    -0.439 A  
HETATM    6  C   UNL     1     -12.110  12.886  70.012  1.00  0.00    -0.286 A  
HETATM    7  N   UNL     1     -12.131  11.555  70.280  1.00  0.00    -0.352 NA 
ENDROOT
BRANCH   5   8
HETATM    8  C   UNL     1     -12.860   9.781  71.800  1.00  0.00    -0.434 C  
HETATM    9  O   UNL     1     -13.923   9.217  72.036  1.00  0.00    -0.402 OA 
HETATM   10  N   UNL     1     -11.629   9.163  71.901  1.00  0.00    -0.370 N  
HETATM   11  H   UNL     1     -10.792   9.669  71.610  1.00  0.00     0.000 HD 
BRANCH  10  12
HETATM   12  C   UNL     1     -11.498   7.812  72.410  1.00  0.00    -0.363 C  
BRANCH  12  13
HETATM   13  C   UNL     1     -10.756   6.875  71.443  1.00  0.00    -0.247 C  
BRANCH  13  14
HETATM   14  C   UNL     1     -10.047   7.576  70.299  1.00  0.00    -0.194 A  
HETATM   15  C   UNL     1      -8.664   7.807  70.320  1.00  0.00    -0.143 A  
HETATM   16  C   UNL     1      -8.031   8.494  69.283  1.00  0.00    -0.111 A  
HETATM   17  C   UNL     1      -8.765   8.908  68.173  1.00  0.00    -0.134 A  
HETATM   18  C   UNL     1     -10.137   8.646  68.105  1.00  0.00    -0.236 A  
HETATM   19  C   UNL     1     -10.769   7.978  69.160  1.00  0.00    -0.121 A  
BRANCH  17  20
HETATM   20  S   UNL     1      -7.970   9.897  66.928  1.00  0.00    -0.109 S  
HETATM   21  O   UNL     1      -8.944  10.789  66.340  1.00  0.00    -0.158 OA 
HETATM   22  O   UNL     1      -7.205   8.996  66.087  1.00  0.00    -0.087 OA 
BRANCH  20  23
HETATM   23  N   UNL     1      -6.825  10.777  67.756  1.00  0.00    -0.072 N  
HETATM   24  H   UNL     1      -5.849  10.661  67.483  1.00  0.00     0.000 HD 
BRANCH  23  25
HETATM   25  C   UNL     1      -7.104  11.655  68.788  1.00  0.00    -0.106 C  
HETATM   26  O   UNL     1      -6.546  11.613  69.872  1.00  0.00    -0.121 OA 
BRANCH  25  27
HETATM   27  N   UNL     1      -8.049  12.588  68.466  1.00  0.00    -0.272 N  
HETATM   28  H   UNL     1      -9.006  12.472  68.799  1.00  0.00     0.000 HD 
BRANCH  27  29
HETATM   29  C   UNL     1      -7.704  13.749  67.652  1.00  0.00    -0.179 C  
HETATM   30  C   UNL     1      -8.924  14.282  66.891  1.00  0.00    -0.255 C  
HETATM   31  C   UNL     1      -9.901  15.046  67.783  1.00  0.00    -0.220 C  
HETATM   32  C   UNL     1      -9.201  16.147  68.572  1.00  0.00    -0.210 C  
HETATM   33  C   UNL     1      -8.025  15.603  69.375  1.00  0.00    -0.226 C  
HETATM   34  C   UNL     1      -7.036  14.851  68.486  1.00  0.00    -0.108 C  
ENDBRANCH  27  29
ENDBRANCH  25  27
ENDBRANCH  23  25
ENDBRANCH  20  23
ENDBRANCH  17  20
ENDBRANCH  13  14
ENDBRANCH  12  13
ENDBRANCH  10  12
ENDBRANCH   5   8
TORSDOF 9
ENDMDL
MODEL      171
REMARK 921   NORMALIZED FREE ENERGY PREDICTED BY IDOCK:   -4.90 KCAL/MOL
REMARK 922        TOTAL FREE ENERGY PREDICTED BY IDOCK:   -8.98 KCAL/MOL
REMARK 923 INTER-LIGAND FREE ENERGY PREDICTED BY IDOCK:   -8.07 KCAL/MOL
REMARK 924 INTRA-LIGAND FREE ENERGY PREDICTED BY IDOCK:   -0.91 KCAL/MOL
REMARK 927      BINDING AFFINITY PREDICTED BY RF-SCORE:    0.00 PKD
ROOT
HETATM    1  C   UNL     1      -9.214   3.461  66.345  1.00  0.00    -0.174 C  
HETATM    2  C   UNL     1      -9.532   4.675  67.160  1.00  0.00    -0.153 A  
HETATM    3  N   UNL     1      -8.669   5.009  68.152  1.00  0.00    -0.102 NA 
HETATM    4  C   UNL     1      -9.010   6.096  68.890  1.00  0.00    -0.124 A  
HETATM    5  C   UNL     1     -10.163   6.827  68.648  1.00  0.00    -0.175 A  
HETATM    6  C   UNL     1     -10.682   5.425  66.914  1.00  0.00    -0.184 A  
HETATM    7  N   UNL     1     -11.032   6.516  67.644  1.00  0.00    -0.331 NA 
ENDROOT
BRANCH   5   8
HETATM    8  C   UNL     1     -10.498   7.976  69.534  1.00  0.00    -0.226 C  
HETATM    9  O   UNL     1      -9.908   9.045  69.426  1.00  0.00    -0.175 OA 
HETATM   10  N   UNL     1     -11.483   7.738  70.474  1.00  0.00    -0.390 N  
HETATM   11  H   UNL     1     -11.989   6.853  70.454  1.00  0.00     0.000 HD 
BRANCH  10  12
HETATM   12  C   UNL     1     -11.815   8.720  71.488  1.00  0.00    -0.311 C  
BRANCH  12  13
HETATM   13  C   UNL     1     -13.003   9.613  71.095  1.00  0.00    -0.389 C  
BRANCH  13  14
HETATM   14  C   UNL     1     -12.653  11.075  70.881  1.00  0.00    -0.488 A  
HETATM   15  C   UNL     1     -11.863  11.493  69.799  1.00  0.00    -0.429 A  
HETATM   16  C   UNL     1     -11.511  12.834  69.640  1.00  0.00    -0.255 A  
HETATM   17  C   UNL     1     -11.995  13.791  70.529  1.00  0.00    -0.296 A  
HETATM   18  C   UNL     1     -12.824  13.407  71.587  1.00  0.00    -0.414 A  
HETATM   19  C   UNL     1     -13.155  12.057  71.755  1.00  0.00    -0.460 A  
BRANCH  17  20
HETATM   20  S   UNL     1     -11.427  15.470  70.388  1.00  0.00    -0.382 S  
HETATM   21  O   UNL     1     -11.635  16.146  71.650  1.00  0.00    -0.453 OA 
HETATM   22  O   UNL     1     -11.991  16.014  69.168  1.00  0.00    -0.340 OA 
BRANCH  20  23
HETATM   23  N   UNL     1      -9.796  15.339  70.080  1.00  0.00    -0.480 N  
HETATM   24  H   UNL     1      -9.183  15.104  70.861  1.00  0.00     0.000 HD 
BRANCH  23  25
HETATM   25  C   UNL     1      -9.214  15.527  68.839  1.00  0.00    -0.218 C  
HETATM   26  O   UNL     1      -9.027  16.627  68.347  1.00  0.00    -0.208 OA 
BRANCH  25  27
HETATM   27  N   UNL     1      -8.848  14.360  68.229  1.00  0.00    -0.176 N  
HETATM   28  H   UNL     1      -9.549  13.640  68.056  1.00  0.00     0.000 HD 
BRANCH  27  29
HETATM   29  C   UNL     1      -7.465  14.134  67.821  1.00  0.00    -0.165 C  
HETATM   30  C   UNL     1      -6.478  14.705  68.845  1.00  0.00    -0.090 C  
HETATM   31  C   UNL     1      -6.371  13.857  70.112  1.00  0.00    -0.083 C  
HETATM   32  C   UNL     1      -6.071  12.397  69.790  1.00  0.00    -0.137 C  
HETATM   33  C   UNL     1      -7.089  11.815  68.817  1.00  0.00    -0.111 C  
HETATM   34  C   UNL     1      -7.190  12.650  67.541  1.00  0.00    -0.155 C  
ENDBRANCH  27  29
ENDBRANCH  25  27
ENDBRANCH  23  25
ENDBRANCH  20  23
ENDBRANCH  17  20
ENDBRANCH  13  14
ENDBRANCH  12  13
ENDBRANCH  10  12
ENDBRANCH   5   8
TORSDOF 9
ENDMDL
MODEL      172
REMARK 921   NORMALIZED FREE ENERGY PREDICTED BY IDOCK:   -4.90 KCAL/MOL
REMARK 922        TOTAL FREE ENERGY PREDICTED BY IDOCK:   -8.98 KCAL/MOL
REMARK 923 INTER-LIGAND FREE ENERGY PREDICTED BY IDOCK:   -7.08 KCAL/MOL
REMARK 924 INTRA-LIGAND FREE ENERGY PREDICTED BY IDOCK:   -1.90 KCAL/MOL
REMARK 927      BINDING AFFINITY PREDICTED BY RF-SCORE:    0.00 PKD
ROOT
HETATM    1  C   UNL     1     -10.806  17.119  67.849  1.00  0.00    -0.294 C  
HETATM    2  C   UNL     1     -11.260  15.916  68.613  1.00  0.00    -0.360 A  
HETATM    3  N   UNL     1     -11.490  14.777  67.913  1.00  0.00    -0.330 NA 
HETATM    4  C   UNL     1     -11.935  13.718  68.636  1.00  0.00    -0.366 A  
HETATM    5  C   UNL     1     -12.137  13.787  70.006  1.00  0.00    -0.349 A  
HETATM    6  C   UNL     1     -11.453  15.971  69.994  1.00  0.00    -0.331 A  
HETATM    7  N   UNL     1     -11.895  14.918  70.729  1.00  0.00    -0.293 NA 
ENDROOT
BRANCH   5   8
HETATM    8  C   UNL     1     -12.678  12.599  70.724  1.00  0.00    -0.130 C  
HETATM    9  O   UNL     1     -13.204  12.717  71.825  1.00  0.00    -0.432 OA 
HETATM   10  N   UNL     1     -12.521  11.388  70.078  1.00  0.00    -0.199 N  
HETATM   11  H   UNL     1     -12.148  11.373  69.129  1.00  0.00     0.000 HD 
BRANCH  10  12
HETATM   12  C   UNL     1     -12.876  10.136  70.718  1.00  0.00    -0.308 C  
BRANCH  12  13
HETATM   13  C   UNL     1     -11.800   9.633  71.694  1.00  0.00    -0.457 C  
BRANCH  13  14
HETATM   14  C   UNL     1     -11.005   8.438  71.199  1.00  0.00    -0.292 A  
HETATM   15  C   UNL     1      -9.623   8.331  71.419  1.00  0.00    -0.231 A  
HETATM   16  C   UNL     1      -8.896   7.249  70.919  1.00  0.00    -0.149 A  
HETATM   17  C   UNL     1      -9.551   6.222  70.242  1.00  0.00    -0.164 A  
HETATM   18  C   UNL     1     -10.936   6.282  70.054  1.00  0.00    -0.422 A  
HETATM   19  C   UNL     1     -11.655   7.381  70.537  1.00  0.00    -0.256 A  
BRANCH  17  20
HETATM   20  S   UNL     1      -8.592   4.924  69.499  1.00  0.00    -0.087 S  
HETATM   21  O   UNL     1      -7.680   5.503  68.537  1.00  0.00    -0.083 OA 
HETATM   22  O   UNL     1      -9.518   3.884  69.092  1.00  0.00    -0.162 OA 
BRANCH  20  23
HETATM   23  N   UNL     1      -7.734   4.258  70.760  1.00  0.00    -0.055 N  
HETATM   24  H   UNL     1      -6.869   4.719  71.042  1.00  0.00     0.000 HD 
BRANCH  23  25
HETATM   25  C   UNL     1      -8.111   3.122  71.453  1.00  0.00    -0.059 C  
HETATM   26  O   UNL     1      -7.347   2.204  71.703  1.00  0.00    -0.034 OA 
BRANCH  25  27
HETATM   27  N   UNL     1      -9.419   3.137  71.851  1.00  0.00    -0.128 N  
HETATM   28  H   UNL     1     -10.159   3.152  71.149  1.00  0.00     0.000 HD 
BRANCH  27  29
HETATM   29  C   UNL     1      -9.768   3.132  73.268  1.00  0.00    -0.107 C  
HETATM   30  C   UNL     1      -8.841   4.048  74.076  1.00  0.00    -0.092 C  
HETATM   31  C   UNL     1      -9.145   5.532  73.881  1.00  0.00    -0.122 C  
HETATM   32  C   UNL     1     -10.615   5.846  74.139  1.00  0.00    -0.168 C  
HETATM   33  C   UNL     1     -11.533   4.974  73.290  1.00  0.00    -0.339 C  
HETATM   34  C   UNL     1     -11.244   3.488  73.492  1.00  0.00    -0.279 C  
ENDBRANCH  27  29
ENDBRANCH  25  27
ENDBRANCH  23  25
ENDBRANCH  20  23
ENDBRANCH  17  20
ENDBRANCH  13  14
ENDBRANCH  12  13
ENDBRANCH  10  12
ENDBRANCH   5   8
TORSDOF 9
ENDMDL
MODEL      173
REMARK 921   NORMALIZED FREE ENERGY PREDICTED BY IDOCK:   -4.90 KCAL/MOL
REMARK 922        TOTAL FREE ENERGY PREDICTED BY IDOCK:   -8.97 KCAL/MOL
REMARK 923 INTER-LIGAND FREE ENERGY PREDICTED BY IDOCK:   -7.73 KCAL/MOL
REMARK 924 INTRA-LIGAND FREE ENERGY PREDICTED BY IDOCK:   -1.24 KCAL/MOL
REMARK 927      BINDING AFFINITY PREDICTED BY RF-SCORE:    0.00 PKD
ROOT
HETATM    1  C   UNL     1     -12.827  15.620  71.396  1.00  0.00    -0.546 C  
HETATM    2  C   UNL     1     -12.294  15.272  70.043  1.00  0.00    -0.328 A  
HETATM    3  N   UNL     1     -12.351  13.972  69.659  1.00  0.00    -0.316 NA 
HETATM    4  C   UNL     1     -11.827  13.691  68.440  1.00  0.00    -0.372 A  
HETATM    5  C   UNL     1     -11.270  14.668  67.628  1.00  0.00    -0.321 A  
HETATM    6  C   UNL     1     -11.745  16.250  69.212  1.00  0.00    -0.127 A  
HETATM    7  N   UNL     1     -11.220  15.982  67.989  1.00  0.00    -0.333 NA 
ENDROOT
BRANCH   5   8
HETATM    8  C   UNL     1     -10.665  14.275  66.325  1.00  0.00    -0.297 C  
HETATM    9  O   UNL     1      -9.960  15.059  65.699  1.00  0.00    -0.316 OA 
HETATM   10  N   UNL     1     -10.973  13.003  65.882  1.00  0.00    -0.269 N  
HETATM   11  H   UNL     1     -11.498  12.377  66.491  1.00  0.00     0.000 HD 
BRANCH  10  12
HETATM   12  C   UNL     1     -10.566  12.539  64.570  1.00  0.00    -0.336 C  
BRANCH  12  13
HETATM   13  C   UNL     1      -9.954  11.128  64.595  1.00  0.00    -0.345 C  
BRANCH  13  14
HETATM   14  C   UNL     1      -9.598  10.617  65.979  1.00  0.00    -0.244 A  
HETATM   15  C   UNL     1     -10.432   9.726  66.672  1.00  0.00    -0.233 A  
HETATM   16  C   UNL     1     -10.115   9.299  67.963  1.00  0.00    -0.234 A  
HETATM   17  C   UNL     1      -8.925   9.708  68.559  1.00  0.00    -0.124 A  
HETATM   18  C   UNL     1      -8.053  10.556  67.870  1.00  0.00    -0.107 A  
HETATM   19  C   UNL     1      -8.388  11.000  66.585  1.00  0.00    -0.155 A  
BRANCH  17  20
HETATM   20  S   UNL     1      -8.605   9.262  70.251  1.00  0.00    -0.226 S  
HETATM   21  O   UNL     1      -9.822   9.415  71.017  1.00  0.00    -0.283 OA 
HETATM   22  O   UNL     1      -7.396   9.954  70.656  1.00  0.00    -0.278 OA 
BRANCH  20  23
HETATM   23  N   UNL     1      -8.174   7.656  70.189  1.00  0.00    -0.122 N  
HETATM   24  H   UNL     1      -7.184   7.427  70.277  1.00  0.00     0.000 HD 
BRANCH  23  25
HETATM   25  C   UNL     1      -9.064   6.609  70.028  1.00  0.00    -0.151 C  
HETATM   26  O   UNL     1      -9.107   5.915  69.025  1.00  0.00    -0.121 OA 
BRANCH  25  27
HETATM   27  N   UNL     1      -9.877   6.415  71.109  1.00  0.00    -0.179 N  
HETATM   28  H   UNL     1     -10.864   6.662  71.049  1.00  0.00     0.000 HD 
BRANCH  27  29
HETATM   29  C   UNL     1      -9.346   5.859  72.350  1.00  0.00    -0.143 C  
HETATM   30  C   UNL     1     -10.398   5.872  73.465  1.00  0.00    -0.256 C  
HETATM   31  C   UNL     1     -11.466   4.793  73.295  1.00  0.00    -0.361 C  
HETATM   32  C   UNL     1     -10.848   3.410  73.117  1.00  0.00    -0.246 C  
HETATM   33  C   UNL     1      -9.846   3.386  71.969  1.00  0.00    -0.239 C  
HETATM   34  C   UNL     1      -8.766   4.453  72.141  1.00  0.00    -0.124 C  
ENDBRANCH  27  29
ENDBRANCH  25  27
ENDBRANCH  23  25
ENDBRANCH  20  23
ENDBRANCH  17  20
ENDBRANCH  13  14
ENDBRANCH  12  13
ENDBRANCH  10  12
ENDBRANCH   5   8
TORSDOF 9
ENDMDL
MODEL      174
REMARK 921   NORMALIZED FREE ENERGY PREDICTED BY IDOCK:   -4.90 KCAL/MOL
REMARK 922        TOTAL FREE ENERGY PREDICTED BY IDOCK:   -8.97 KCAL/MOL
REMARK 923 INTER-LIGAND FREE ENERGY PREDICTED BY IDOCK:   -7.57 KCAL/MOL
REMARK 924 INTRA-LIGAND FREE ENERGY PREDICTED BY IDOCK:   -1.39 KCAL/MOL
REMARK 927      BINDING AFFINITY PREDICTED BY RF-SCORE:    0.00 PKD
ROOT
HETATM    1  C   UNL     1      -9.433   2.641  68.268  1.00  0.00    -0.219 C  
HETATM    2  C   UNL     1      -8.944   3.828  67.499  1.00  0.00    -0.135 A  
HETATM    3  N   UNL     1      -7.703   4.293  67.785  1.00  0.00    -0.079 NA 
HETATM    4  C   UNL     1      -7.309   5.391  67.091  1.00  0.00    -0.083 A  
HETATM    5  C   UNL     1      -8.117   6.001  66.144  1.00  0.00    -0.110 A  
HETATM    6  C   UNL     1      -9.745   4.439  66.534  1.00  0.00    -0.215 A  
HETATM    7  N   UNL     1      -9.361   5.536  65.831  1.00  0.00    -0.152 NA 
ENDROOT
BRANCH   5   8
HETATM    8  C   UNL     1      -7.637   7.234  65.462  1.00  0.00    -0.097 C  
HETATM    9  O   UNL     1      -6.660   7.845  65.881  1.00  0.00    -0.048 OA 
HETATM   10  N   UNL     1      -8.375   7.635  64.364  1.00  0.00    -0.364 N  
HETATM   11  H   UNL     1      -9.125   7.036  64.022  1.00  0.00     0.000 HD 
BRANCH  10  12
HETATM   12  C   UNL     1      -8.105   8.888  63.687  1.00  0.00    -0.167 C  
BRANCH  12  13
HETATM   13  C   UNL     1      -9.361   9.756  63.504  1.00  0.00    -0.139 C  
BRANCH  13  14
HETATM   14  C   UNL     1      -9.670  10.678  64.670  1.00  0.00    -0.360 A  
HETATM   15  C   UNL     1      -8.777  10.833  65.742  1.00  0.00    -0.194 A  
HETATM   16  C   UNL     1      -9.093  11.648  66.831  1.00  0.00    -0.188 A  
HETATM   17  C   UNL     1     -10.284  12.372  66.836  1.00  0.00    -0.225 A  
HETATM   18  C   UNL     1     -11.167  12.272  65.757  1.00  0.00    -0.378 A  
HETATM   19  C   UNL     1     -10.855  11.435  64.679  1.00  0.00    -0.359 A  
BRANCH  17  20
HETATM   20  S   UNL     1     -10.729  13.297  68.288  1.00  0.00    -0.259 S  
HETATM   21  O   UNL     1     -12.080  13.788  68.138  1.00  0.00    -0.364 OA 
HETATM   22  O   UNL     1      -9.643  14.219  68.559  1.00  0.00    -0.216 OA 
BRANCH  20  23
HETATM   23  N   UNL     1     -10.664  12.189  69.529  1.00  0.00    -0.434 N  
HETATM   24  H   UNL     1      -9.955  12.326  70.250  1.00  0.00     0.000 HD 
BRANCH  23  25
HETATM   25  C   UNL     1     -11.504  11.098  69.652  1.00  0.00    -0.310 C  
HETATM   26  O   UNL     1     -12.395  10.844  68.858  1.00  0.00    -0.486 OA 
BRANCH  25  27
HETATM   27  N   UNL     1     -11.225  10.318  70.740  1.00  0.00    -0.345 N  
HETATM   28  H   UNL     1     -11.841  10.346  71.552  1.00  0.00     0.000 HD 
BRANCH  27  29
HETATM   29  C   UNL     1     -10.056   9.444  70.751  1.00  0.00    -0.298 C  
HETATM   30  C   UNL     1      -9.897   8.737  72.101  1.00  0.00    -0.347 C  
HETATM   31  C   UNL     1     -10.898   7.601  72.305  1.00  0.00    -0.318 C  
HETATM   32  C   UNL     1     -10.875   6.614  71.143  1.00  0.00    -0.284 C  
HETATM   33  C   UNL     1     -11.093   7.313  69.806  1.00  0.00    -0.203 C  
HETATM   34  C   UNL     1     -10.085   8.440  69.590  1.00  0.00    -0.199 C  
ENDBRANCH  27  29
ENDBRANCH  25  27
ENDBRANCH  23  25
ENDBRANCH  20  23
ENDBRANCH  17  20
ENDBRANCH  13  14
ENDBRANCH  12  13
ENDBRANCH  10  12
ENDBRANCH   5   8
TORSDOF 9
ENDMDL
MODEL      175
REMARK 921   NORMALIZED FREE ENERGY PREDICTED BY IDOCK:   -4.89 KCAL/MOL
REMARK 922        TOTAL FREE ENERGY PREDICTED BY IDOCK:   -8.96 KCAL/MOL
REMARK 923 INTER-LIGAND FREE ENERGY PREDICTED BY IDOCK:   -7.70 KCAL/MOL
REMARK 924 INTRA-LIGAND FREE ENERGY PREDICTED BY IDOCK:   -1.26 KCAL/MOL
REMARK 927      BINDING AFFINITY PREDICTED BY RF-SCORE:    0.00 PKD
ROOT
HETATM    1  C   UNL     1     -10.615  19.586  65.790  1.00  0.00    -0.522 C  
HETATM    2  C   UNL     1      -9.537  18.986  66.636  1.00  0.00    -0.340 A  
HETATM    3  N   UNL     1      -8.630  18.185  66.024  1.00  0.00    -0.511 NA 
HETATM    4  C   UNL     1      -7.689  17.632  66.831  1.00  0.00    -0.216 A  
HETATM    5  C   UNL     1      -7.648  17.872  68.196  1.00  0.00    -0.260 A  
HETATM    6  C   UNL     1      -9.479  19.233  68.008  1.00  0.00    -0.335 A  
HETATM    7  N   UNL     1      -8.541  18.689  68.826  1.00  0.00    -0.301 NA 
ENDROOT
BRANCH   5   8
HETATM    8  C   UNL     1      -6.618  17.188  69.026  1.00  0.00    -0.218 C  
HETATM    9  O   UNL     1      -5.880  17.830  69.765  1.00  0.00    -0.228 OA 
HETATM   10  N   UNL     1      -6.550  15.816  68.883  1.00  0.00    -0.114 N  
HETATM   11  H   UNL     1      -7.248  15.339  68.314  1.00  0.00     0.000 HD 
BRANCH  10  12
HETATM   12  C   UNL     1      -5.508  15.038  69.525  1.00  0.00    -0.093 C  
BRANCH  12  13
HETATM   13  C   UNL     1      -6.037  13.756  70.189  1.00  0.00    -0.139 C  
BRANCH  13  14
HETATM   14  C   UNL     1      -6.539  12.701  69.219  1.00  0.00    -0.092 A  
HETATM   15  C   UNL     1      -6.698  12.974  67.852  1.00  0.00    -0.129 A  
HETATM   16  C   UNL     1      -7.204  12.010  66.978  1.00  0.00    -0.096 A  
HETATM   17  C   UNL     1      -7.501  10.732  67.448  1.00  0.00    -0.098 A  
HETATM   18  C   UNL     1      -7.304  10.420  68.797  1.00  0.00    -0.089 A  
HETATM   19  C   UNL     1      -6.819  11.399  69.672  1.00  0.00    -0.068 A  
BRANCH  17  20
HETATM   20  S   UNL     1      -8.268   9.562  66.351  1.00  0.00    -0.115 S  
HETATM   21  O   UNL     1      -8.728   8.426  67.120  1.00  0.00    -0.124 OA 
HETATM   22  O   UNL     1      -7.367   9.368  65.231  1.00  0.00    -0.092 OA 
BRANCH  20  23
HETATM   23  N   UNL     1      -9.571  10.376  65.711  1.00  0.00    -0.201 N  
HETATM   24  H   UNL     1      -9.616  10.475  64.696  1.00  0.00     0.000 HD 
BRANCH  23  25
HETATM   25  C   UNL     1     -10.596  10.929  66.457  1.00  0.00    -0.237 C  
HETATM   26  O   UNL     1     -10.848  10.592  67.602  1.00  0.00    -0.248 OA 
BRANCH  25  27
HETATM   27  N   UNL     1     -11.286  11.904  65.793  1.00  0.00    -0.324 N  
HETATM   28  H   UNL     1     -11.507  11.782  64.805  1.00  0.00     0.000 HD 
BRANCH  27  29
HETATM   29  C   UNL     1     -11.710  13.119  66.483  1.00  0.00    -0.382 C  
HETATM   30  C   UNL     1     -10.514  14.013  66.828  1.00  0.00    -0.277 C  
HETATM   31  C   UNL     1      -9.949  14.753  65.618  1.00  0.00    -0.390 C  
HETATM   32  C   UNL     1     -11.032  15.522  64.870  1.00  0.00    -0.452 C  
HETATM   33  C   UNL     1     -12.193  14.616  64.475  1.00  0.00    -0.473 C  
HETATM   34  C   UNL     1     -12.773  13.885  65.684  1.00  0.00    -0.534 C  
ENDBRANCH  27  29
ENDBRANCH  25  27
ENDBRANCH  23  25
ENDBRANCH  20  23
ENDBRANCH  17  20
ENDBRANCH  13  14
ENDBRANCH  12  13
ENDBRANCH  10  12
ENDBRANCH   5   8
TORSDOF 9
ENDMDL
MODEL      176
REMARK 921   NORMALIZED FREE ENERGY PREDICTED BY IDOCK:   -4.89 KCAL/MOL
REMARK 922        TOTAL FREE ENERGY PREDICTED BY IDOCK:   -8.95 KCAL/MOL
REMARK 923 INTER-LIGAND FREE ENERGY PREDICTED BY IDOCK:   -7.19 KCAL/MOL
REMARK 924 INTRA-LIGAND FREE ENERGY PREDICTED BY IDOCK:   -1.76 KCAL/MOL
REMARK 927      BINDING AFFINITY PREDICTED BY RF-SCORE:    0.00 PKD
ROOT
HETATM    1  C   UNL     1      -6.516   9.102  66.372  1.00  0.00    -0.066 C  
HETATM    2  C   UNL     1      -7.310   8.146  67.204  1.00  0.00    -0.088 A  
HETATM    3  N   UNL     1      -6.798   7.785  68.408  1.00  0.00    -0.065 NA 
HETATM    4  C   UNL     1      -7.531   6.890  69.117  1.00  0.00    -0.095 A  
HETATM    5  C   UNL     1      -8.731   6.376  68.651  1.00  0.00    -0.122 A  
HETATM    6  C   UNL     1      -8.526   7.635  66.750  1.00  0.00    -0.127 A  
HETATM    7  N   UNL     1      -9.270   6.741  67.451  1.00  0.00    -0.126 NA 
ENDROOT
BRANCH   5   8
HETATM    8  C   UNL     1      -9.453   5.357  69.462  1.00  0.00    -0.133 C  
HETATM    9  O   UNL     1     -10.380   4.714  68.982  1.00  0.00    -0.061 OA 
HETATM   10  N   UNL     1      -9.020   5.215  70.767  1.00  0.00    -0.132 N  
HETATM   11  H   UNL     1      -8.191   5.723  71.075  1.00  0.00     0.000 HD 
BRANCH  10  12
HETATM   12  C   UNL     1      -9.717   4.360  71.707  1.00  0.00    -0.170 C  
BRANCH  12  13
HETATM   13  C   UNL     1     -10.415   5.146  72.830  1.00  0.00    -0.255 C  
BRANCH  13  14
HETATM   14  C   UNL     1     -10.973   6.493  72.409  1.00  0.00    -0.279 A  
HETATM   15  C   UNL     1     -12.230   6.611  71.798  1.00  0.00    -0.400 A  
HETATM   16  C   UNL     1     -12.711   7.851  71.373  1.00  0.00    -0.312 A  
HETATM   17  C   UNL     1     -11.967   9.005  71.610  1.00  0.00    -0.356 A  
HETATM   18  C   UNL     1     -10.733   8.919  72.261  1.00  0.00    -0.219 A  
HETATM   19  C   UNL     1     -10.245   7.670  72.663  1.00  0.00    -0.321 A  
BRANCH  17  20
HETATM   20  S   UNL     1     -12.534  10.553  70.943  1.00  0.00    -0.425 S  
HETATM   21  O   UNL     1     -13.043  11.372  72.021  1.00  0.00    -0.487 OA 
HETATM   22  O   UNL     1     -13.372  10.248  69.800  1.00  0.00     0.184 OA 
BRANCH  20  23
HETATM   23  N   UNL     1     -11.172  11.256  70.294  1.00  0.00    -0.479 N  
HETATM   24  H   UNL     1     -10.732  12.012  70.820  1.00  0.00     0.000 HD 
BRANCH  23  25
HETATM   25  C   UNL     1     -10.595  10.889  69.092  1.00  0.00    -0.220 C  
HETATM   26  O   UNL     1      -9.585  10.208  69.014  1.00  0.00    -0.176 OA 
BRANCH  25  27
HETATM   27  N   UNL     1     -11.279  11.344  68.000  1.00  0.00    -0.257 N  
HETATM   28  H   UNL     1     -12.297  11.294  67.986  1.00  0.00     0.000 HD 
BRANCH  27  29
HETATM   29  C   UNL     1     -10.567  11.901  66.853  1.00  0.00    -0.230 C  
HETATM   30  C   UNL     1     -11.471  11.981  65.618  1.00  0.00    -0.372 C  
HETATM   31  C   UNL     1     -12.489  13.118  65.692  1.00  0.00    -0.485 C  
HETATM   32  C   UNL     1     -11.821  14.455  65.992  1.00  0.00    -0.379 C  
HETATM   33  C   UNL     1     -10.970  14.388  67.255  1.00  0.00    -0.301 C  
HETATM   34  C   UNL     1      -9.939  13.263  67.180  1.00  0.00    -0.238 C  
ENDBRANCH  27  29
ENDBRANCH  25  27
ENDBRANCH  23  25
ENDBRANCH  20  23
ENDBRANCH  17  20
ENDBRANCH  13  14
ENDBRANCH  12  13
ENDBRANCH  10  12
ENDBRANCH   5   8
TORSDOF 9
ENDMDL
MODEL      177
REMARK 921   NORMALIZED FREE ENERGY PREDICTED BY IDOCK:   -4.88 KCAL/MOL
REMARK 922        TOTAL FREE ENERGY PREDICTED BY IDOCK:   -8.95 KCAL/MOL
REMARK 923 INTER-LIGAND FREE ENERGY PREDICTED BY IDOCK:   -7.15 KCAL/MOL
REMARK 924 INTRA-LIGAND FREE ENERGY PREDICTED BY IDOCK:   -1.79 KCAL/MOL
REMARK 927      BINDING AFFINITY PREDICTED BY RF-SCORE:    0.00 PKD
ROOT
HETATM    1  C   UNL     1     -12.876  13.999  65.489  1.00  0.00    -0.453 C  
HETATM    2  C   UNL     1     -11.586  13.503  66.061  1.00  0.00    -0.338 A  
HETATM    3  N   UNL     1     -10.477  14.257  65.859  1.00  0.00    -0.296 NA 
HETATM    4  C   UNL     1      -9.321  13.757  66.363  1.00  0.00    -0.196 A  
HETATM    5  C   UNL     1      -9.270  12.552  67.049  1.00  0.00    -0.214 A  
HETATM    6  C   UNL     1     -11.527  12.300  66.765  1.00  0.00    -0.361 A  
HETATM    7  N   UNL     1     -10.377  11.789  67.277  1.00  0.00    -0.203 NA 
ENDROOT
BRANCH   5   8
HETATM    8  C   UNL     1      -7.956  12.041  67.527  1.00  0.00    -0.159 C  
HETATM    9  O   UNL     1      -7.036  11.840  66.741  1.00  0.00    -0.126 OA 
HETATM   10  N   UNL     1      -7.867  11.797  68.884  1.00  0.00    -0.310 N  
HETATM   11  H   UNL     1      -8.642  12.064  69.490  1.00  0.00     0.000 HD 
BRANCH  10  12
HETATM   12  C   UNL     1      -6.696  11.172  69.467  1.00  0.00    -0.132 C  
BRANCH  12  13
HETATM   13  C   UNL     1      -6.833   9.646  69.599  1.00  0.00    -0.067 C  
BRANCH  13  14
HETATM   14  C   UNL     1      -8.161   9.175  70.165  1.00  0.00    -0.145 A  
HETATM   15  C   UNL     1      -8.338   8.953  71.538  1.00  0.00    -0.163 A  
HETATM   16  C   UNL     1      -9.551   8.476  72.040  1.00  0.00    -0.371 A  
HETATM   17  C   UNL     1     -10.628   8.273  71.181  1.00  0.00    -0.214 A  
HETATM   18  C   UNL     1     -10.491   8.535  69.814  1.00  0.00    -0.220 A  
HETATM   19  C   UNL     1      -9.265   8.989  69.314  1.00  0.00    -0.145 A  
BRANCH  17  20
HETATM   20  S   UNL     1     -12.118   7.540  71.817  1.00  0.00    -0.321 S  
HETATM   21  O   UNL     1     -12.726   6.733  70.783  1.00  0.00    -0.261 OA 
HETATM   22  O   UNL     1     -12.876   8.597  72.459  1.00  0.00    -0.379 OA 
BRANCH  20  23
HETATM   23  N   UNL     1     -11.608   6.566  73.067  1.00  0.00    -0.473 N  
HETATM   24  H   UNL     1     -11.600   6.964  74.006  1.00  0.00     0.000 HD 
BRANCH  23  25
HETATM   25  C   UNL     1     -11.193   5.254  72.922  1.00  0.00    -0.312 C  
HETATM   26  O   UNL     1     -11.388   4.393  73.764  1.00  0.00    -0.246 OA 
BRANCH  25  27
HETATM   27  N   UNL     1     -10.564   5.012  71.733  1.00  0.00    -0.175 N  
HETATM   28  H   UNL     1     -10.946   5.401  70.872  1.00  0.00     0.000 HD 
BRANCH  27  29
HETATM   29  C   UNL     1      -9.350   4.202  71.684  1.00  0.00    -0.141 C  
HETATM   30  C   UNL     1      -9.483   3.055  70.677  1.00  0.00    -0.224 C  
HETATM   31  C   UNL     1      -9.380   3.516  69.224  1.00  0.00    -0.242 C  
HETATM   32  C   UNL     1      -8.119   4.338  68.982  1.00  0.00    -0.073 C  
HETATM   33  C   UNL     1      -8.020   5.514  69.947  1.00  0.00    -0.083 C  
HETATM   34  C   UNL     1      -8.107   5.057  71.402  1.00  0.00    -0.112 C  
ENDBRANCH  27  29
ENDBRANCH  25  27
ENDBRANCH  23  25
ENDBRANCH  20  23
ENDBRANCH  17  20
ENDBRANCH  13  14
ENDBRANCH  12  13
ENDBRANCH  10  12
ENDBRANCH   5   8
TORSDOF 9
ENDMDL
MODEL      178
REMARK 921   NORMALIZED FREE ENERGY PREDICTED BY IDOCK:   -4.87 KCAL/MOL
REMARK 922        TOTAL FREE ENERGY PREDICTED BY IDOCK:   -8.93 KCAL/MOL
REMARK 923 INTER-LIGAND FREE ENERGY PREDICTED BY IDOCK:   -7.95 KCAL/MOL
REMARK 924 INTRA-LIGAND FREE ENERGY PREDICTED BY IDOCK:   -0.97 KCAL/MOL
REMARK 927      BINDING AFFINITY PREDICTED BY RF-SCORE:    0.00 PKD
ROOT
HETATM    1  C   UNL     1      -9.287   2.629  67.490  1.00  0.00    -0.188 C  
HETATM    2  C   UNL     1      -9.048   4.032  67.030  1.00  0.00    -0.149 A  
HETATM    3  N   UNL     1      -7.947   4.267  66.273  1.00  0.00    -0.098 NA 
HETATM    4  C   UNL     1      -7.746   5.558  65.905  1.00  0.00    -0.091 A  
HETATM    5  C   UNL     1      -8.612   6.577  66.270  1.00  0.00    -0.141 A  
HETATM    6  C   UNL     1      -9.921   5.063  67.380  1.00  0.00    -0.177 A  
HETATM    7  N   UNL     1      -9.733   6.357  67.015  1.00  0.00    -0.142 NA 
ENDROOT
BRANCH   5   8
HETATM    8  C   UNL     1      -8.298   7.978  65.873  1.00  0.00    -0.134 C  
HETATM    9  O   UNL     1      -7.272   8.525  66.262  1.00  0.00    -0.076 OA 
HETATM   10  N   UNL     1      -9.239   8.598  65.074  1.00  0.00    -0.417 N  
HETATM   11  H   UNL     1     -10.028   8.057  64.722  1.00  0.00     0.000 HD 
BRANCH  10  12
HETATM   12  C   UNL     1      -9.130  10.001  64.725  1.00  0.00    -0.224 C  
BRANCH  12  13
HETATM   13  C   UNL     1     -10.484  10.730  64.735  1.00  0.00    -0.335 C  
BRANCH  13  14
HETATM   14  C   UNL     1     -10.553  11.927  65.666  1.00  0.00    -0.311 A  
HETATM   15  C   UNL     1     -11.725  12.685  65.805  1.00  0.00    -0.466 A  
HETATM   16  C   UNL     1     -11.762  13.811  66.630  1.00  0.00    -0.421 A  
HETATM   17  C   UNL     1     -10.642  14.161  67.380  1.00  0.00    -0.279 A  
HETATM   18  C   UNL     1      -9.477  13.392  67.297  1.00  0.00    -0.234 A  
HETATM   19  C   UNL     1      -9.439  12.279  66.449  1.00  0.00    -0.240 A  
BRANCH  17  20
HETATM   20  S   UNL     1     -10.665  15.671  68.319  1.00  0.00    -0.295 S  
HETATM   21  O   UNL     1      -9.421  15.793  69.046  1.00  0.00    -0.214 OA 
HETATM   22  O   UNL     1     -11.931  15.718  69.025  1.00  0.00    -0.385 OA 
BRANCH  20  23
HETATM   23  N   UNL     1     -10.772  16.876  67.176  1.00  0.00    -0.238 N  
HETATM   24  H   UNL     1     -11.237  16.655  66.295  1.00  0.00     0.000 HD 
BRANCH  23  25
HETATM   25  C   UNL     1     -10.276  18.157  67.337  1.00  0.00    -0.372 C  
HETATM   26  O   UNL     1     -10.983  19.151  67.368  1.00  0.00    -0.475 OA 
BRANCH  25  27
HETATM   27  N   UNL     1      -8.917  18.199  67.478  1.00  0.00    -0.255 N  
HETATM   28  H   UNL     1      -8.356  17.394  67.202  1.00  0.00     0.000 HD 
BRANCH  27  29
HETATM   29  C   UNL     1      -8.260  19.385  68.020  1.00  0.00    -0.318 C  
HETATM   30  C   UNL     1      -7.130  19.008  68.984  1.00  0.00    -0.361 C  
HETATM   31  C   UNL     1      -5.881  18.492  68.272  1.00  0.00    -0.193 C  
HETATM   32  C   UNL     1      -5.405  19.460  67.195  1.00  0.00    -0.161 C  
HETATM   33  C   UNL     1      -6.515  19.787  66.202  1.00  0.00    -0.210 C  
HETATM   34  C   UNL     1      -7.762  20.318  66.907  1.00  0.00    -0.353 C  
ENDBRANCH  27  29
ENDBRANCH  25  27
ENDBRANCH  23  25
ENDBRANCH  20  23
ENDBRANCH  17  20
ENDBRANCH  13  14
ENDBRANCH  12  13
ENDBRANCH  10  12
ENDBRANCH   5   8
TORSDOF 9
ENDMDL
MODEL      179
REMARK 921   NORMALIZED FREE ENERGY PREDICTED BY IDOCK:   -4.87 KCAL/MOL
REMARK 922        TOTAL FREE ENERGY PREDICTED BY IDOCK:   -8.93 KCAL/MOL
REMARK 923 INTER-LIGAND FREE ENERGY PREDICTED BY IDOCK:   -6.98 KCAL/MOL
REMARK 924 INTRA-LIGAND FREE ENERGY PREDICTED BY IDOCK:   -1.95 KCAL/MOL
REMARK 927      BINDING AFFINITY PREDICTED BY RF-SCORE:    0.00 PKD
ROOT
HETATM    1  C   UNL     1     -10.566   7.075  73.824  1.00  0.00    -0.325 C  
HETATM    2  C   UNL     1     -10.810   8.017  72.688  1.00  0.00    -0.368 A  
HETATM    3  N   UNL     1      -9.727   8.522  72.047  1.00  0.00    -0.280 NA 
HETATM    4  C   UNL     1      -9.988   9.400  71.046  1.00  0.00    -0.264 A  
HETATM    5  C   UNL     1     -11.280   9.758  70.690  1.00  0.00    -0.334 A  
HETATM    6  C   UNL     1     -12.107   8.372  72.314  1.00  0.00    -0.392 A  
HETATM    7  N   UNL     1     -12.381   9.247  71.312  1.00  0.00    -0.320 NA 
ENDROOT
BRANCH   5   8
HETATM    8  C   UNL     1     -11.487  10.768  69.616  1.00  0.00    -0.305 C  
HETATM    9  O   UNL     1     -12.567  10.863  69.043  1.00  0.00    -0.350 OA 
HETATM   10  N   UNL     1     -10.391  11.552  69.312  1.00  0.00    -0.426 N  
HETATM   11  H   UNL     1      -9.550  11.476  69.884  1.00  0.00     0.000 HD 
BRANCH  10  12
HETATM   12  C   UNL     1     -10.408  12.481  68.199  1.00  0.00    -0.232 C  
BRANCH  12  13
HETATM   13  C   UNL     1      -9.003  12.801  67.662  1.00  0.00    -0.191 C  
BRANCH  13  14
HETATM   14  C   UNL     1      -8.450  11.779  66.685  1.00  0.00    -0.153 A  
HETATM   15  C   UNL     1      -9.263  11.171  65.716  1.00  0.00    -0.234 A  
HETATM   16  C   UNL     1      -8.752  10.199  64.854  1.00  0.00    -0.198 A  
HETATM   17  C   UNL     1      -7.401   9.862  64.907  1.00  0.00    -0.136 A  
HETATM   18  C   UNL     1      -6.560  10.489  65.831  1.00  0.00    -0.129 A  
HETATM   19  C   UNL     1      -7.083  11.446  66.708  1.00  0.00    -0.132 A  
BRANCH  17  20
HETATM   20  S   UNL     1      -6.801   8.528  63.895  1.00  0.00    -0.080 S  
HETATM   21  O   UNL     1      -5.741   7.842  64.600  1.00  0.00    -0.043 OA 
HETATM   22  O   UNL     1      -6.567   9.067  62.569  1.00  0.00    -0.095 OA 
BRANCH  20  23
HETATM   23  N   UNL     1      -8.109   7.514  63.715  1.00  0.00    -0.312 N  
HETATM   24  H   UNL     1      -8.937   7.886  63.250  1.00  0.00     0.000 HD 
BRANCH  23  25
HETATM   25  C   UNL     1      -8.152   6.202  64.153  1.00  0.00    -0.081 C  
HETATM   26  O   UNL     1      -7.418   5.328  63.721  1.00  0.00    -0.053 OA 
BRANCH  25  27
HETATM   27  N   UNL     1      -9.081   5.987  65.131  1.00  0.00    -0.363 N  
HETATM   28  H   UNL     1     -10.074   6.031  64.902  1.00  0.00     0.000 HD 
BRANCH  27  29
HETATM   29  C   UNL     1      -8.668   5.694  66.501  1.00  0.00    -0.121 C  
HETATM   30  C   UNL     1      -8.135   6.946  67.205  1.00  0.00    -0.118 C  
HETATM   31  C   UNL     1      -9.239   7.918  67.617  1.00  0.00    -0.147 C  
HETATM   32  C   UNL     1     -10.323   7.226  68.437  1.00  0.00    -0.213 C  
HETATM   33  C   UNL     1     -10.893   6.015  67.707  1.00  0.00    -0.380 C  
HETATM   34  C   UNL     1      -9.795   5.032  67.306  1.00  0.00    -0.205 C  
ENDBRANCH  27  29
ENDBRANCH  25  27
ENDBRANCH  23  25
ENDBRANCH  20  23
ENDBRANCH  17  20
ENDBRANCH  13  14
ENDBRANCH  12  13
ENDBRANCH  10  12
ENDBRANCH   5   8
TORSDOF 9
ENDMDL
MODEL      180
REMARK 921   NORMALIZED FREE ENERGY PREDICTED BY IDOCK:   -4.87 KCAL/MOL
REMARK 922        TOTAL FREE ENERGY PREDICTED BY IDOCK:   -8.92 KCAL/MOL
REMARK 923 INTER-LIGAND FREE ENERGY PREDICTED BY IDOCK:   -8.02 KCAL/MOL
REMARK 924 INTRA-LIGAND FREE ENERGY PREDICTED BY IDOCK:   -0.90 KCAL/MOL
REMARK 927      BINDING AFFINITY PREDICTED BY RF-SCORE:    0.00 PKD
ROOT
HETATM    1  C   UNL     1      -8.476  20.013  66.576  1.00  0.00    -0.359 C  
HETATM    2  C   UNL     1      -9.134  18.679  66.735  1.00  0.00    -0.301 A  
HETATM    3  N   UNL     1      -8.828  17.715  65.831  1.00  0.00    -0.520 NA 
HETATM    4  C   UNL     1      -9.471  16.530  65.989  1.00  0.00    -0.282 A  
HETATM    5  C   UNL     1     -10.381  16.309  67.012  1.00  0.00    -0.292 A  
HETATM    6  C   UNL     1     -10.040  18.442  67.770  1.00  0.00    -0.356 A  
HETATM    7  N   UNL     1     -10.687  17.261  67.940  1.00  0.00    -0.375 NA 
ENDROOT
BRANCH   5   8
HETATM    8  C   UNL     1     -11.087  15.001  67.090  1.00  0.00    -0.332 C  
HETATM    9  O   UNL     1     -11.422  14.406  66.071  1.00  0.00    -0.337 OA 
HETATM   10  N   UNL     1     -11.346  14.536  68.365  1.00  0.00    -0.275 N  
HETATM   11  H   UNL     1     -10.967  15.041  69.166  1.00  0.00     0.000 HD 
BRANCH  10  12
HETATM   12  C   UNL     1     -12.144  13.347  68.591  1.00  0.00    -0.246 C  
BRANCH  12  13
HETATM   13  C   UNL     1     -12.263  12.976  70.079  1.00  0.00    -0.306 C  
BRANCH  13  14
HETATM   14  C   UNL     1     -11.973  11.520  70.394  1.00  0.00    -0.459 A  
HETATM   15  C   UNL     1     -10.919  10.829  69.776  1.00  0.00    -0.314 A  
HETATM   16  C   UNL     1     -10.692   9.477  70.040  1.00  0.00    -0.278 A  
HETATM   17  C   UNL     1     -11.477   8.808  70.976  1.00  0.00    -0.285 A  
HETATM   18  C   UNL     1     -12.502   9.488  71.641  1.00  0.00    -0.476 A  
HETATM   19  C   UNL     1     -12.741  10.837  71.354  1.00  0.00    -0.544 A  
BRANCH  17  20
HETATM   20  S   UNL     1     -11.259   7.058  71.199  1.00  0.00    -0.284 S  
HETATM   21  O   UNL     1     -12.088   6.354  70.245  1.00  0.00    -0.294 OA 
HETATM   22  O   UNL     1     -11.387   6.786  72.618  1.00  0.00    -0.259 OA 
BRANCH  20  23
HETATM   23  N   UNL     1      -9.652   6.787  70.859  1.00  0.00    -0.168 N  
HETATM   24  H   UNL     1      -8.964   7.397  71.301  1.00  0.00     0.000 HD 
BRANCH  23  25
HETATM   25  C   UNL     1      -9.183   5.793  70.019  1.00  0.00    -0.146 C  
HETATM   26  O   UNL     1      -9.366   4.604  70.222  1.00  0.00    -0.124 OA 
BRANCH  25  27
HETATM   27  N   UNL     1      -8.514   6.274  68.929  1.00  0.00    -0.119 N  
HETATM   28  H   UNL     1      -8.997   6.883  68.269  1.00  0.00     0.000 HD 
BRANCH  27  29
HETATM   29  C   UNL     1      -7.115   5.924  68.699  1.00  0.00    -0.081 C  
HETATM   30  C   UNL     1      -6.602   6.507  67.378  1.00  0.00    -0.061 C  
HETATM   31  C   UNL     1      -6.342   8.010  67.446  1.00  0.00    -0.056 C  
HETATM   32  C   UNL     1      -5.432   8.373  68.615  1.00  0.00    -0.036 C  
HETATM   33  C   UNL     1      -5.976   7.843  69.936  1.00  0.00    -0.023 C  
HETATM   34  C   UNL     1      -6.224   6.336  69.879  1.00  0.00    -0.031 C  
ENDBRANCH  27  29
ENDBRANCH  25  27
ENDBRANCH  23  25
ENDBRANCH  20  23
ENDBRANCH  17  20
ENDBRANCH  13  14
ENDBRANCH  12  13
ENDBRANCH  10  12
ENDBRANCH   5   8
TORSDOF 9
ENDMDL
MODEL      181
REMARK 921   NORMALIZED FREE ENERGY PREDICTED BY IDOCK:   -4.86 KCAL/MOL
REMARK 922        TOTAL FREE ENERGY PREDICTED BY IDOCK:   -8.91 KCAL/MOL
REMARK 923 INTER-LIGAND FREE ENERGY PREDICTED BY IDOCK:   -7.95 KCAL/MOL
REMARK 924 INTRA-LIGAND FREE ENERGY PREDICTED BY IDOCK:   -0.96 KCAL/MOL
REMARK 927      BINDING AFFINITY PREDICTED BY RF-SCORE:    0.00 PKD
ROOT
HETATM    1  C   UNL     1      -9.878  20.050  67.216  1.00  0.00    -0.563 C  
HETATM    2  C   UNL     1     -10.216  18.654  66.797  1.00  0.00    -0.393 A  
HETATM    3  N   UNL     1     -10.194  17.689  67.751  1.00  0.00    -0.337 NA 
HETATM    4  C   UNL     1     -10.472  16.431  67.325  1.00  0.00    -0.303 A  
HETATM    5  C   UNL     1     -10.766  16.143  66.001  1.00  0.00    -0.241 A  
HETATM    6  C   UNL     1     -10.528  18.356  65.470  1.00  0.00     0.071 A  
HETATM    7  N   UNL     1     -10.810  17.102  65.033  1.00  0.00    -0.665 NA 
ENDROOT
BRANCH   5   8
HETATM    8  C   UNL     1     -11.009  14.729  65.599  1.00  0.00    -0.344 C  
HETATM    9  O   UNL     1     -12.148  14.315  65.416  1.00  0.00    -0.374 OA 
HETATM   10  N   UNL     1      -9.881  13.941  65.475  1.00  0.00    -0.515 N  
HETATM   11  H   UNL     1      -8.960  14.371  65.562  1.00  0.00     0.000 HD 
BRANCH  10  12
HETATM   12  C   UNL     1      -9.976  12.517  65.223  1.00  0.00    -0.207 C  
BRANCH  12  13
HETATM   13  C   UNL     1     -10.197  11.693  66.502  1.00  0.00    -0.249 C  
BRANCH  13  14
HETATM   14  C   UNL     1      -9.699  10.261  66.428  1.00  0.00    -0.252 A  
HETATM   15  C   UNL     1     -10.534   9.175  66.732  1.00  0.00    -0.266 A  
HETATM   16  C   UNL     1     -10.051   7.865  66.705  1.00  0.00    -0.310 A  
HETATM   17  C   UNL     1      -8.738   7.615  66.311  1.00  0.00    -0.152 A  
HETATM   18  C   UNL     1      -7.901   8.677  65.955  1.00  0.00    -0.102 A  
HETATM   19  C   UNL     1      -8.384   9.990  66.008  1.00  0.00    -0.126 A  
BRANCH  17  20
HETATM   20  S   UNL     1      -8.105   5.957  66.411  1.00  0.00    -0.105 S  
HETATM   21  O   UNL     1      -6.700   5.967  66.067  1.00  0.00    -0.052 OA 
HETATM   22  O   UNL     1      -9.026   5.100  65.689  1.00  0.00    -0.147 OA 
BRANCH  20  23
HETATM   23  N   UNL     1      -8.292   5.530  68.009  1.00  0.00    -0.100 N  
HETATM   24  H   UNL     1      -8.730   4.631  68.211  1.00  0.00     0.000 HD 
BRANCH  23  25
HETATM   25  C   UNL     1      -7.897   6.308  69.082  1.00  0.00    -0.105 C  
HETATM   26  O   UNL     1      -6.877   6.977  69.085  1.00  0.00    -0.057 OA 
BRANCH  25  27
HETATM   27  N   UNL     1      -8.773   6.272  70.131  1.00  0.00    -0.137 N  
HETATM   28  H   UNL     1      -8.567   6.800  70.978  1.00  0.00     0.000 HD 
BRANCH  27  29
HETATM   29  C   UNL     1     -10.001   5.486  70.050  1.00  0.00    -0.218 C  
HETATM   30  C   UNL     1     -10.211   4.645  71.314  1.00  0.00    -0.205 C  
HETATM   31  C   UNL     1     -10.674   5.470  72.514  1.00  0.00    -0.289 C  
HETATM   32  C   UNL     1     -11.903   6.308  72.182  1.00  0.00    -0.365 C  
HETATM   33  C   UNL     1     -11.670   7.189  70.959  1.00  0.00    -0.358 C  
HETATM   34  C   UNL     1     -11.222   6.367  69.752  1.00  0.00    -0.484 C  
ENDBRANCH  27  29
ENDBRANCH  25  27
ENDBRANCH  23  25
ENDBRANCH  20  23
ENDBRANCH  17  20
ENDBRANCH  13  14
ENDBRANCH  12  13
ENDBRANCH  10  12
ENDBRANCH   5   8
TORSDOF 9
ENDMDL
MODEL      182
REMARK 921   NORMALIZED FREE ENERGY PREDICTED BY IDOCK:   -4.85 KCAL/MOL
REMARK 922        TOTAL FREE ENERGY PREDICTED BY IDOCK:   -8.90 KCAL/MOL
REMARK 923 INTER-LIGAND FREE ENERGY PREDICTED BY IDOCK:   -7.77 KCAL/MOL
REMARK 924 INTRA-LIGAND FREE ENERGY PREDICTED BY IDOCK:   -1.12 KCAL/MOL
REMARK 927      BINDING AFFINITY PREDICTED BY RF-SCORE:    0.00 PKD
ROOT
HETATM    1  C   UNL     1      -8.504   7.775  74.338  1.00  0.00    -0.251 C  
HETATM    2  C   UNL     1      -8.797   6.801  73.242  1.00  0.00    -0.123 A  
HETATM    3  N   UNL     1      -8.663   5.481  73.521  1.00  0.00    -0.118 NA 
HETATM    4  C   UNL     1      -8.904   4.631  72.491  1.00  0.00    -0.118 A  
HETATM    5  C   UNL     1      -9.272   5.077  71.231  1.00  0.00    -0.145 A  
HETATM    6  C   UNL     1      -9.183   7.240  71.974  1.00  0.00    -0.132 A  
HETATM    7  N   UNL     1      -9.430   6.400  70.936  1.00  0.00    -0.174 NA 
ENDROOT
BRANCH   5   8
HETATM    8  C   UNL     1      -9.469   4.087  70.135  1.00  0.00    -0.188 C  
HETATM    9  O   UNL     1      -9.651   2.901  70.386  1.00  0.00    -0.153 OA 
HETATM   10  N   UNL     1      -9.409   4.596  68.852  1.00  0.00    -0.130 N  
HETATM   11  H   UNL     1      -9.336   5.604  68.718  1.00  0.00     0.000 HD 
BRANCH  10  12
HETATM   12  C   UNL     1      -9.448   3.729  67.691  1.00  0.00    -0.185 C  
BRANCH  12  13
HETATM   13  C   UNL     1      -9.972   4.435  66.430  1.00  0.00    -0.252 C  
BRANCH  13  14
HETATM   14  C   UNL     1      -9.878   5.950  66.467  1.00  0.00    -0.189 A  
HETATM   15  C   UNL     1     -10.833   6.730  67.136  1.00  0.00    -0.462 A  
HETATM   16  C   UNL     1     -10.761   8.124  67.124  1.00  0.00    -0.264 A  
HETATM   17  C   UNL     1      -9.695   8.761  66.493  1.00  0.00    -0.259 A  
HETATM   18  C   UNL     1      -8.704   8.004  65.861  1.00  0.00    -0.184 A  
HETATM   19  C   UNL     1      -8.795   6.607  65.856  1.00  0.00    -0.126 A  
BRANCH  17  20
HETATM   20  S   UNL     1      -9.693  10.535  66.373  1.00  0.00    -0.207 S  
HETATM   21  O   UNL     1      -8.413  11.036  66.823  1.00  0.00    -0.137 OA 
HETATM   22  O   UNL     1     -10.919  11.008  66.987  1.00  0.00    -0.277 OA 
BRANCH  20  23
HETATM   23  N   UNL     1      -9.883  10.849  64.750  1.00  0.00    -0.262 N  
HETATM   24  H   UNL     1      -9.747  10.075  64.098  1.00  0.00     0.000 HD 
BRANCH  23  25
HETATM   25  C   UNL     1     -10.213  12.084  64.221  1.00  0.00    -0.318 C  
HETATM   26  O   UNL     1     -10.779  12.225  63.150  1.00  0.00    -0.371 OA 
BRANCH  25  27
HETATM   27  N   UNL     1      -9.860  13.130  65.027  1.00  0.00    -0.545 N  
HETATM   28  H   UNL     1      -9.072  13.031  65.667  1.00  0.00     0.000 HD 
BRANCH  27  29
HETATM   29  C   UNL     1     -10.599  14.388  64.981  1.00  0.00    -0.432 C  
HETATM   30  C   UNL     1     -11.979  14.251  65.634  1.00  0.00    -0.390 C  
HETATM   31  C   UNL     1     -11.920  14.201  67.159  1.00  0.00    -0.460 C  
HETATM   32  C   UNL     1     -11.138  15.379  67.732  1.00  0.00    -0.320 C  
HETATM   33  C   UNL     1      -9.743  15.476  67.124  1.00  0.00    -0.226 C  
HETATM   34  C   UNL     1      -9.797  15.542  65.599  1.00  0.00    -0.377 C  
ENDBRANCH  27  29
ENDBRANCH  25  27
ENDBRANCH  23  25
ENDBRANCH  20  23
ENDBRANCH  17  20
ENDBRANCH  13  14
ENDBRANCH  12  13
ENDBRANCH  10  12
ENDBRANCH   5   8
TORSDOF 9
ENDMDL
MODEL      183
REMARK 921   NORMALIZED FREE ENERGY PREDICTED BY IDOCK:   -4.85 KCAL/MOL
REMARK 922        TOTAL FREE ENERGY PREDICTED BY IDOCK:   -8.89 KCAL/MOL
REMARK 923 INTER-LIGAND FREE ENERGY PREDICTED BY IDOCK:   -7.93 KCAL/MOL
REMARK 924 INTRA-LIGAND FREE ENERGY PREDICTED BY IDOCK:   -0.96 KCAL/MOL
REMARK 927      BINDING AFFINITY PREDICTED BY RF-SCORE:    0.00 PKD
ROOT
HETATM    1  C   UNL     1      -9.318   1.904  63.435  1.00  0.00    -0.096 C  
HETATM    2  C   UNL     1      -8.713   3.200  63.873  1.00  0.00    -0.089 A  
HETATM    3  N   UNL     1      -7.868   3.173  64.934  1.00  0.00    -0.081 NA 
HETATM    4  C   UNL     1      -7.367   4.373  65.322  1.00  0.00    -0.073 A  
HETATM    5  C   UNL     1      -7.691   5.556  64.676  1.00  0.00    -0.093 A  
HETATM    6  C   UNL     1      -9.022   4.394  63.221  1.00  0.00    -0.132 A  
HETATM    7  N   UNL     1      -8.525   5.601  63.598  1.00  0.00    -0.045 NA 
ENDROOT
BRANCH   5   8
HETATM    8  C   UNL     1      -7.145   6.842  65.193  1.00  0.00    -0.067 C  
HETATM    9  O   UNL     1      -6.038   7.239  64.844  1.00  0.00    -0.037 OA 
HETATM   10  N   UNL     1      -7.952   7.519  66.087  1.00  0.00    -0.106 N  
HETATM   11  H   UNL     1      -8.894   7.172  66.269  1.00  0.00     0.000 HD 
BRANCH  10  12
HETATM   12  C   UNL     1      -7.492   8.711  66.771  1.00  0.00    -0.086 C  
BRANCH  12  13
HETATM   13  C   UNL     1      -8.421   9.143  67.918  1.00  0.00    -0.117 C  
BRANCH  13  14
HETATM   14  C   UNL     1      -9.281  10.357  67.613  1.00  0.00    -0.157 A  
HETATM   15  C   UNL     1     -10.653  10.239  67.347  1.00  0.00    -0.324 A  
HETATM   16  C   UNL     1     -11.423  11.358  67.023  1.00  0.00    -0.234 A  
HETATM   17  C   UNL     1     -10.843  12.625  67.021  1.00  0.00    -0.253 A  
HETATM   18  C   UNL     1      -9.488  12.774  67.331  1.00  0.00    -0.190 A  
HETATM   19  C   UNL     1      -8.716  11.645  67.632  1.00  0.00    -0.156 A  
BRANCH  17  20
HETATM   20  S   UNL     1     -11.805  14.017  66.477  1.00  0.00    -0.436 S  
HETATM   21  O   UNL     1     -12.133  14.841  67.620  1.00  0.00    -0.299 OA 
HETATM   22  O   UNL     1     -12.858  13.504  65.622  1.00  0.00    -0.463 OA 
BRANCH  20  23
HETATM   23  N   UNL     1     -10.796  14.852  65.450  1.00  0.00    -0.344 N  
HETATM   24  H   UNL     1     -10.098  14.317  64.932  1.00  0.00     0.000 HD 
BRANCH  23  25
HETATM   25  C   UNL     1     -10.836  16.220  65.249  1.00  0.00    -0.297 C  
HETATM   26  O   UNL     1     -11.278  16.736  64.235  1.00  0.00    -1.163 OA 
BRANCH  25  27
HETATM   27  N   UNL     1     -10.351  16.939  66.306  1.00  0.00    -0.320 N  
HETATM   28  H   UNL     1     -10.538  16.624  67.257  1.00  0.00     0.000 HD 
BRANCH  27  29
HETATM   29  C   UNL     1      -9.570  18.152  66.087  1.00  0.00    -0.170 C  
HETATM   30  C   UNL     1     -10.308  19.394  66.599  1.00  0.00    -0.555 C  
HETATM   31  C   UNL     1     -10.295  19.514  68.122  1.00  0.00    -0.550 C  
HETATM   32  C   UNL     1      -8.880  19.427  68.683  1.00  0.00    -0.417 C  
HETATM   33  C   UNL     1      -8.169  18.160  68.219  1.00  0.00    -0.300 C  
HETATM   34  C   UNL     1      -8.165  18.042  66.696  1.00  0.00    -0.285 C  
ENDBRANCH  27  29
ENDBRANCH  25  27
ENDBRANCH  23  25
ENDBRANCH  20  23
ENDBRANCH  17  20
ENDBRANCH  13  14
ENDBRANCH  12  13
ENDBRANCH  10  12
ENDBRANCH   5   8
TORSDOF 9
ENDMDL
MODEL      184
REMARK 921   NORMALIZED FREE ENERGY PREDICTED BY IDOCK:   -4.83 KCAL/MOL
REMARK 922        TOTAL FREE ENERGY PREDICTED BY IDOCK:   -8.87 KCAL/MOL
REMARK 923 INTER-LIGAND FREE ENERGY PREDICTED BY IDOCK:   -7.48 KCAL/MOL
REMARK 924 INTRA-LIGAND FREE ENERGY PREDICTED BY IDOCK:   -1.38 KCAL/MOL
REMARK 927      BINDING AFFINITY PREDICTED BY RF-SCORE:    0.00 PKD
ROOT
HETATM    1  C   UNL     1      -9.963   4.541  65.958  1.00  0.00    -0.265 C  
HETATM    2  C   UNL     1      -9.038   5.687  66.222  1.00  0.00    -0.148 A  
HETATM    3  N   UNL     1      -7.830   5.674  65.607  1.00  0.00    -0.096 NA 
HETATM    4  C   UNL     1      -7.006   6.712  65.899  1.00  0.00    -0.061 A  
HETATM    5  C   UNL     1      -7.372   7.729  66.766  1.00  0.00    -0.089 A  
HETATM    6  C   UNL     1      -9.404   6.723  67.082  1.00  0.00    -0.136 A  
HETATM    7  N   UNL     1      -8.590   7.768  67.380  1.00  0.00    -0.124 NA 
ENDROOT
BRANCH   5   8
HETATM    8  C   UNL     1      -6.394   8.808  67.080  1.00  0.00    -0.060 C  
HETATM    9  O   UNL     1      -5.324   8.548  67.619  1.00  0.00    -0.033 OA 
HETATM   10  N   UNL     1      -6.788  10.089  66.743  1.00  0.00    -0.079 N  
HETATM   11  H   UNL     1      -7.655  10.223  66.223  1.00  0.00     0.000 HD 
BRANCH  10  12
HETATM   12  C   UNL     1      -5.998  11.246  67.112  1.00  0.00    -0.083 C  
BRANCH  12  13
HETATM   13  C   UNL     1      -6.523  11.957  68.370  1.00  0.00    -0.054 C  
BRANCH  13  14
HETATM   14  C   UNL     1      -7.273  13.249  68.101  1.00  0.00    -0.112 A  
HETATM   15  C   UNL     1      -8.653  13.362  68.331  1.00  0.00    -0.134 A  
HETATM   16  C   UNL     1      -9.339  14.541  68.036  1.00  0.00    -0.201 A  
HETATM   17  C   UNL     1      -8.644  15.651  67.563  1.00  0.00    -0.172 A  
HETATM   18  C   UNL     1      -7.261  15.580  67.371  1.00  0.00    -0.241 A  
HETATM   19  C   UNL     1      -6.582  14.387  67.646  1.00  0.00    -0.172 A  
BRANCH  17  20
HETATM   20  S   UNL     1      -9.554  17.096  67.067  1.00  0.00    -0.269 S  
HETATM   21  O   UNL     1      -8.749  17.867  66.144  1.00  0.00    -0.453 OA 
HETATM   22  O   UNL     1     -10.072  17.712  68.273  1.00  0.00    -0.319 OA 
BRANCH  20  23
HETATM   23  N   UNL     1     -10.897  16.501  66.284  1.00  0.00    -0.120 N  
HETATM   24  H   UNL     1     -11.735  16.333  66.842  1.00  0.00     0.000 HD 
BRANCH  23  25
HETATM   25  C   UNL     1     -10.957  16.218  64.932  1.00  0.00    -0.307 C  
HETATM   26  O   UNL     1     -11.308  17.031  64.092  1.00  0.00    -1.164 OA 
BRANCH  25  27
HETATM   27  N   UNL     1     -10.565  14.946  64.625  1.00  0.00    -0.585 N  
HETATM   28  H   UNL     1      -9.848  14.796  63.915  1.00  0.00     0.000 HD 
BRANCH  27  29
HETATM   29  C   UNL     1     -11.161  13.798  65.302  1.00  0.00    -0.313 C  
HETATM   30  C   UNL     1     -12.580  13.523  64.794  1.00  0.00    -0.351 C  
HETATM   31  C   UNL     1     -12.607  12.874  63.411  1.00  0.00    -0.268 C  
HETATM   32  C   UNL     1     -11.735  11.625  63.356  1.00  0.00    -0.325 C  
HETATM   33  C   UNL     1     -10.308  11.916  63.806  1.00  0.00    -0.451 C  
HETATM   34  C   UNL     1     -10.273  12.550  65.195  1.00  0.00    -0.299 C  
ENDBRANCH  27  29
ENDBRANCH  25  27
ENDBRANCH  23  25
ENDBRANCH  20  23
ENDBRANCH  17  20
ENDBRANCH  13  14
ENDBRANCH  12  13
ENDBRANCH  10  12
ENDBRANCH   5   8
TORSDOF 9
ENDMDL
MODEL      185
REMARK 921   NORMALIZED FREE ENERGY PREDICTED BY IDOCK:   -4.83 KCAL/MOL
REMARK 922        TOTAL FREE ENERGY PREDICTED BY IDOCK:   -8.87 KCAL/MOL
REMARK 923 INTER-LIGAND FREE ENERGY PREDICTED BY IDOCK:   -7.04 KCAL/MOL
REMARK 924 INTRA-LIGAND FREE ENERGY PREDICTED BY IDOCK:   -1.82 KCAL/MOL
REMARK 927      BINDING AFFINITY PREDICTED BY RF-SCORE:    0.00 PKD
ROOT
HETATM    1  C   UNL     1     -10.343   7.315  73.661  1.00  0.00    -0.399 C  
HETATM    2  C   UNL     1     -10.564   8.266  72.528  1.00  0.00    -0.337 A  
HETATM    3  N   UNL     1      -9.487   8.614  71.780  1.00  0.00    -0.260 NA 
HETATM    4  C   UNL     1      -9.722   9.505  70.784  1.00  0.00    -0.219 A  
HETATM    5  C   UNL     1     -10.983  10.028  70.537  1.00  0.00    -0.326 A  
HETATM    6  C   UNL     1     -11.831   8.786  72.263  1.00  0.00    -0.333 A  
HETATM    7  N   UNL     1     -12.080   9.677  71.268  1.00  0.00    -0.345 NA 
ENDROOT
BRANCH   5   8
HETATM    8  C   UNL     1     -11.153  11.042  69.460  1.00  0.00    -0.263 C  
HETATM    9  O   UNL     1     -12.168  11.064  68.773  1.00  0.00    -0.546 OA 
HETATM   10  N   UNL     1     -10.097  11.917  69.290  1.00  0.00    -0.394 N  
HETATM   11  H   UNL     1      -9.320  11.894  69.950  1.00  0.00     0.000 HD 
BRANCH  10  12
HETATM   12  C   UNL     1     -10.068  12.865  68.194  1.00  0.00    -0.240 C  
BRANCH  12  13
HETATM   13  C   UNL     1      -8.834  12.705  67.292  1.00  0.00    -0.196 C  
BRANCH  13  14
HETATM   14  C   UNL     1      -8.650  11.314  66.711  1.00  0.00    -0.159 A  
HETATM   15  C   UNL     1      -9.527  10.797  65.746  1.00  0.00    -0.244 A  
HETATM   16  C   UNL     1      -9.373   9.499  65.255  1.00  0.00    -0.317 A  
HETATM   17  C   UNL     1      -8.300   8.718  65.676  1.00  0.00    -0.138 A  
HETATM   18  C   UNL     1      -7.384   9.228  66.600  1.00  0.00    -0.086 A  
HETATM   19  C   UNL     1      -7.557  10.522  67.107  1.00  0.00    -0.097 A  
BRANCH  17  20
HETATM   20  S   UNL     1      -8.199   7.025  65.141  1.00  0.00    -0.076 S  
HETATM   21  O   UNL     1      -7.099   6.380  65.825  1.00  0.00    -0.059 OA 
HETATM   22  O   UNL     1      -8.256   7.028  63.692  1.00  0.00    -0.038 OA 
BRANCH  20  23
HETATM   23  N   UNL     1      -9.640   6.344  65.621  1.00  0.00    -0.299 N  
HETATM   24  H   UNL     1     -10.482   6.915  65.546  1.00  0.00     0.000 HD 
BRANCH  23  25
HETATM   25  C   UNL     1      -9.776   5.059  66.114  1.00  0.00    -0.183 C  
HETATM   26  O   UNL     1      -9.648   4.060  65.426  1.00  0.00    -0.164 OA 
BRANCH  25  27
HETATM   27  N   UNL     1     -10.048   5.018  67.453  1.00  0.00    -0.179 N  
HETATM   28  H   UNL     1     -11.011   4.908  67.769  1.00  0.00     0.000 HD 
BRANCH  27  29
HETATM   29  C   UNL     1      -8.974   5.129  68.436  1.00  0.00    -0.106 C  
HETATM   30  C   UNL     1      -9.416   5.940  69.659  1.00  0.00    -0.172 C  
HETATM   31  C   UNL     1     -10.349   5.165  70.588  1.00  0.00    -0.305 C  
HETATM   32  C   UNL     1      -9.757   3.818  70.986  1.00  0.00    -0.248 C  
HETATM   33  C   UNL     1      -9.374   2.989  69.765  1.00  0.00    -0.215 C  
HETATM   34  C   UNL     1      -8.428   3.753  68.841  1.00  0.00    -0.101 C  
ENDBRANCH  27  29
ENDBRANCH  25  27
ENDBRANCH  23  25
ENDBRANCH  20  23
ENDBRANCH  17  20
ENDBRANCH  13  14
ENDBRANCH  12  13
ENDBRANCH  10  12
ENDBRANCH   5   8
TORSDOF 9
ENDMDL
MODEL      186
REMARK 921   NORMALIZED FREE ENERGY PREDICTED BY IDOCK:   -4.82 KCAL/MOL
REMARK 922        TOTAL FREE ENERGY PREDICTED BY IDOCK:   -8.85 KCAL/MOL
REMARK 923 INTER-LIGAND FREE ENERGY PREDICTED BY IDOCK:   -7.81 KCAL/MOL
REMARK 924 INTRA-LIGAND FREE ENERGY PREDICTED BY IDOCK:   -1.04 KCAL/MOL
REMARK 927      BINDING AFFINITY PREDICTED BY RF-SCORE:    0.00 PKD
ROOT
HETATM    1  C   UNL     1     -10.388   5.667  74.283  1.00  0.00    -0.289 C  
HETATM    2  C   UNL     1     -10.298   6.163  72.875  1.00  0.00    -0.198 A  
HETATM    3  N   UNL     1     -10.860   5.401  71.903  1.00  0.00    -0.217 NA 
HETATM    4  C   UNL     1     -10.728   5.867  70.635  1.00  0.00    -0.285 A  
HETATM    5  C   UNL     1     -10.065   7.050  70.344  1.00  0.00    -0.187 A  
HETATM    6  C   UNL     1      -9.646   7.359  72.573  1.00  0.00    -0.157 A  
HETATM    7  N   UNL     1      -9.509   7.837  71.309  1.00  0.00    -0.152 NA 
ENDROOT
BRANCH   5   8
HETATM    8  C   UNL     1      -9.914   7.470  68.924  1.00  0.00    -0.168 C  
HETATM    9  O   UNL     1     -10.846   7.365  68.135  1.00  0.00    -0.146 OA 
HETATM   10  N   UNL     1      -8.667   7.952  68.573  1.00  0.00    -0.131 N  
HETATM   11  H   UNL     1      -7.963   8.089  69.298  1.00  0.00     0.000 HD 
BRANCH  10  12
HETATM   12  C   UNL     1      -8.337   8.269  67.197  1.00  0.00    -0.123 C  
BRANCH  12  13
HETATM   13  C   UNL     1      -7.807   9.702  67.020  1.00  0.00    -0.098 C  
BRANCH  13  14
HETATM   14  C   UNL     1      -8.870  10.735  66.690  1.00  0.00    -0.151 A  
HETATM   15  C   UNL     1     -10.231  10.398  66.632  1.00  0.00    -0.292 A  
HETATM   16  C   UNL     1     -11.194  11.347  66.282  1.00  0.00    -0.228 A  
HETATM   17  C   UNL     1     -10.817  12.666  66.044  1.00  0.00    -0.277 A  
HETATM   18  C   UNL     1      -9.472  13.038  66.144  1.00  0.00    -0.159 A  
HETATM   19  C   UNL     1      -8.509  12.076  66.472  1.00  0.00    -0.065 A  
BRANCH  17  20
HETATM   20  S   UNL     1     -12.036  13.826  65.470  1.00  0.00    -0.410 S  
HETATM   21  O   UNL     1     -13.257  13.114  65.166  1.00  0.00    -0.683 OA 
HETATM   22  O   UNL     1     -11.402  14.651  64.460  1.00  0.00    -0.367 OA 
BRANCH  20  23
HETATM   23  N   UNL     1     -12.284  14.850  66.759  1.00  0.00    -0.230 N  
HETATM   24  H   UNL     1     -12.956  15.608  66.639  1.00  0.00     0.000 HD 
BRANCH  23  25
HETATM   25  C   UNL     1     -11.644  14.745  67.980  1.00  0.00    -0.343 C  
HETATM   26  O   UNL     1     -11.927  13.901  68.815  1.00  0.00    -0.341 OA 
BRANCH  25  27
HETATM   27  N   UNL     1     -10.648  15.665  68.152  1.00  0.00    -0.266 N  
HETATM   28  H   UNL     1     -10.060  15.622  68.985  1.00  0.00     0.000 HD 
BRANCH  27  29
HETATM   29  C   UNL     1     -10.416  16.707  67.157  1.00  0.00    -0.300 C  
HETATM   30  C   UNL     1     -10.701  18.101  67.729  1.00  0.00    -0.355 C  
HETATM   31  C   UNL     1      -9.610  18.594  68.677  1.00  0.00    -0.407 C  
HETATM   32  C   UNL     1      -8.228  18.517  68.037  1.00  0.00    -0.286 C  
HETATM   33  C   UNL     1      -7.924  17.115  67.523  1.00  0.00    -0.190 C  
HETATM   34  C   UNL     1      -9.004  16.622  66.562  1.00  0.00    -0.310 C  
ENDBRANCH  27  29
ENDBRANCH  25  27
ENDBRANCH  23  25
ENDBRANCH  20  23
ENDBRANCH  17  20
ENDBRANCH  13  14
ENDBRANCH  12  13
ENDBRANCH  10  12
ENDBRANCH   5   8
TORSDOF 9
ENDMDL
MODEL      187
REMARK 921   NORMALIZED FREE ENERGY PREDICTED BY IDOCK:   -4.80 KCAL/MOL
REMARK 922        TOTAL FREE ENERGY PREDICTED BY IDOCK:   -8.82 KCAL/MOL
REMARK 923 INTER-LIGAND FREE ENERGY PREDICTED BY IDOCK:   -7.51 KCAL/MOL
REMARK 924 INTRA-LIGAND FREE ENERGY PREDICTED BY IDOCK:   -1.31 KCAL/MOL
REMARK 927      BINDING AFFINITY PREDICTED BY RF-SCORE:    0.00 PKD
ROOT
HETATM    1  C   UNL     1      -8.210   8.125  74.523  1.00  0.00    -0.210 C  
HETATM    2  C   UNL     1      -8.301   7.719  73.086  1.00  0.00    -0.157 A  
HETATM    3  N   UNL     1      -7.242   7.061  72.551  1.00  0.00    -0.079 NA 
HETATM    4  C   UNL     1      -7.348   6.740  71.237  1.00  0.00    -0.082 A  
HETATM    5  C   UNL     1      -8.468   7.057  70.483  1.00  0.00    -0.133 A  
HETATM    6  C   UNL     1      -9.430   8.020  72.323  1.00  0.00    -0.209 A  
HETATM    7  N   UNL     1      -9.549   7.703  71.008  1.00  0.00    -0.163 NA 
ENDROOT
BRANCH   5   8
HETATM    8  C   UNL     1      -8.490   6.720  69.032  1.00  0.00    -0.128 C  
HETATM    9  O   UNL     1      -8.081   5.635  68.634  1.00  0.00    -0.099 OA 
HETATM   10  N   UNL     1      -8.973   7.708  68.196  1.00  0.00    -0.127 N  
HETATM   11  H   UNL     1      -9.373   8.554  68.603  1.00  0.00     0.000 HD 
BRANCH  10  12
HETATM   12  C   UNL     1      -8.926   7.570  66.754  1.00  0.00    -0.144 C  
BRANCH  12  13
HETATM   13  C   UNL     1      -9.977   8.430  66.033  1.00  0.00     0.023 C  
BRANCH  13  14
HETATM   14  C   UNL     1      -9.893   9.916  66.332  1.00  0.00    -0.288 A  
HETATM   15  C   UNL     1     -10.876  10.572  67.089  1.00  0.00    -0.319 A  
HETATM   16  C   UNL     1     -10.811  11.948  67.318  1.00  0.00    -0.294 A  
HETATM   17  C   UNL     1      -9.726  12.682  66.844  1.00  0.00    -0.234 A  
HETATM   18  C   UNL     1      -8.709  12.043  66.129  1.00  0.00     0.042 A  
HETATM   19  C   UNL     1      -8.792  10.667  65.882  1.00  0.00    -0.187 A  
BRANCH  17  20
HETATM   20  S   UNL     1      -9.729  14.450  67.029  1.00  0.00    -0.263 S  
HETATM   21  O   UNL     1      -8.381  14.898  67.305  1.00  0.00    -0.182 OA 
HETATM   22  O   UNL     1     -10.809  14.785  67.938  1.00  0.00    -0.258 OA 
BRANCH  20  23
HETATM   23  N   UNL     1     -10.225  15.028  65.549  1.00  0.00    -0.351 N  
HETATM   24  H   UNL     1     -10.264  14.369  64.771  1.00  0.00     0.000 HD 
BRANCH  23  25
HETATM   25  C   UNL     1     -10.589  16.339  65.300  1.00  0.00    -0.336 C  
HETATM   26  O   UNL     1     -11.387  16.660  64.435  1.00  0.00    -1.023 OA 
BRANCH  25  27
HETATM   27  N   UNL     1      -9.982  17.239  66.132  1.00  0.00    -0.293 N  
HETATM   28  H   UNL     1      -8.964  17.268  66.186  1.00  0.00     0.000 HD 
BRANCH  27  29
HETATM   29  C   UNL     1     -10.775  18.158  66.942  1.00  0.00    -0.224 C  
HETATM   30  C   UNL     1     -10.142  18.378  68.321  1.00  0.00    -0.410 C  
HETATM   31  C   UNL     1      -8.913  19.283  68.279  1.00  0.00    -0.381 C  
HETATM   32  C   UNL     1      -9.208  20.603  67.575  1.00  0.00    -0.394 C  
HETATM   33  C   UNL     1      -9.782  20.381  66.180  1.00  0.00    -0.309 C  
HETATM   34  C   UNL     1     -11.021  19.488  66.218  1.00  0.00    -0.297 C  
ENDBRANCH  27  29
ENDBRANCH  25  27
ENDBRANCH  23  25
ENDBRANCH  20  23
ENDBRANCH  17  20
ENDBRANCH  13  14
ENDBRANCH  12  13
ENDBRANCH  10  12
ENDBRANCH   5   8
TORSDOF 9
ENDMDL
MODEL      188
REMARK 921   NORMALIZED FREE ENERGY PREDICTED BY IDOCK:   -4.79 KCAL/MOL
REMARK 922        TOTAL FREE ENERGY PREDICTED BY IDOCK:   -8.81 KCAL/MOL
REMARK 923 INTER-LIGAND FREE ENERGY PREDICTED BY IDOCK:   -7.58 KCAL/MOL
REMARK 924 INTRA-LIGAND FREE ENERGY PREDICTED BY IDOCK:   -1.23 KCAL/MOL
REMARK 927      BINDING AFFINITY PREDICTED BY RF-SCORE:    0.00 PKD
ROOT
HETATM    1  C   UNL     1     -10.479  20.209  68.226  1.00  0.00    -0.357 C  
HETATM    2  C   UNL     1     -10.447  18.877  67.547  1.00  0.00    -0.450 A  
HETATM    3  N   UNL     1     -10.536  18.859  66.193  1.00  0.00    -0.458 NA 
HETATM    4  C   UNL     1     -10.538  17.631  65.617  1.00  0.00    -0.135 A  
HETATM    5  C   UNL     1     -10.450  16.462  66.358  1.00  0.00    -0.286 A  
HETATM    6  C   UNL     1     -10.344  17.696  68.283  1.00  0.00    -0.384 A  
HETATM    7  N   UNL     1     -10.342  16.461  67.718  1.00  0.00    -0.279 NA 
ENDROOT
BRANCH   5   8
HETATM    8  C   UNL     1     -10.513  15.149  65.659  1.00  0.00    -0.359 C  
HETATM    9  O   UNL     1      -9.604  14.334  65.771  1.00  0.00    -0.256 OA 
HETATM   10  N   UNL     1     -11.634  14.939  64.879  1.00  0.00    -0.395 N  
HETATM   11  H   UNL     1     -12.389  15.625  64.896  1.00  0.00     0.000 HD 
BRANCH  10  12
HETATM   12  C   UNL     1     -11.764  13.766  64.037  1.00  0.00    -0.328 C  
BRANCH  12  13
HETATM   13  C   UNL     1     -12.448  12.588  64.750  1.00  0.00    -0.532 C  
BRANCH  13  14
HETATM   14  C   UNL     1     -11.515  11.717  65.573  1.00  0.00    -0.241 A  
HETATM   15  C   UNL     1     -10.471  10.991  64.980  1.00  0.00    -0.344 A  
HETATM   16  C   UNL     1      -9.649  10.158  65.742  1.00  0.00    -0.288 A  
HETATM   17  C   UNL     1      -9.820  10.086  67.122  1.00  0.00    -0.185 A  
HETATM   18  C   UNL     1     -10.822  10.837  67.743  1.00  0.00    -0.320 A  
HETATM   19  C   UNL     1     -11.658  11.652  66.971  1.00  0.00    -0.268 A  
BRANCH  17  20
HETATM   20  S   UNL     1      -8.854   8.920  68.055  1.00  0.00    -0.133 S  
HETATM   21  O   UNL     1      -8.411   9.548  69.280  1.00  0.00    -0.123 OA 
HETATM   22  O   UNL     1      -7.888   8.336  67.143  1.00  0.00    -0.095 OA 
BRANCH  20  23
HETATM   23  N   UNL     1      -9.910   7.681  68.404  1.00  0.00    -0.162 N  
HETATM   24  H   UNL     1     -10.354   7.682  69.322  1.00  0.00     0.000 HD 
BRANCH  23  25
HETATM   25  C   UNL     1     -10.226   6.651  67.537  1.00  0.00    -0.181 C  
HETATM   26  O   UNL     1     -11.182   6.681  66.780  1.00  0.00    -0.333 OA 
BRANCH  25  27
HETATM   27  N   UNL     1      -9.349   5.603  67.596  1.00  0.00    -0.109 N  
HETATM   28  H   UNL     1      -9.075   5.225  68.503  1.00  0.00     0.000 HD 
BRANCH  27  29
HETATM   29  C   UNL     1      -8.801   5.020  66.375  1.00  0.00    -0.115 C  
HETATM   30  C   UNL     1      -7.271   5.107  66.351  1.00  0.00    -0.077 C  
HETATM   31  C   UNL     1      -6.598   4.098  67.280  1.00  0.00    -0.046 C  
HETATM   32  C   UNL     1      -7.088   2.677  67.020  1.00  0.00    -0.049 C  
HETATM   33  C   UNL     1      -8.607   2.583  67.104  1.00  0.00    -0.121 C  
HETATM   34  C   UNL     1      -9.286   3.579  66.165  1.00  0.00    -0.173 C  
ENDBRANCH  27  29
ENDBRANCH  25  27
ENDBRANCH  23  25
ENDBRANCH  20  23
ENDBRANCH  17  20
ENDBRANCH  13  14
ENDBRANCH  12  13
ENDBRANCH  10  12
ENDBRANCH   5   8
TORSDOF 9
ENDMDL
MODEL      189
REMARK 921   NORMALIZED FREE ENERGY PREDICTED BY IDOCK:   -4.79 KCAL/MOL
REMARK 922        TOTAL FREE ENERGY PREDICTED BY IDOCK:   -8.81 KCAL/MOL
REMARK 923 INTER-LIGAND FREE ENERGY PREDICTED BY IDOCK:   -7.89 KCAL/MOL
REMARK 924 INTRA-LIGAND FREE ENERGY PREDICTED BY IDOCK:   -0.92 KCAL/MOL
REMARK 927      BINDING AFFINITY PREDICTED BY RF-SCORE:    0.00 PKD
ROOT
HETATM    1  C   UNL     1      -5.502   9.560  66.469  1.00  0.00    -0.045 C  
HETATM    2  C   UNL     1      -6.627   9.272  67.412  1.00  0.00    -0.064 A  
HETATM    3  N   UNL     1      -6.308   8.825  68.652  1.00  0.00    -0.053 NA 
HETATM    4  C   UNL     1      -7.356   8.542  69.466  1.00  0.00    -0.065 A  
HETATM    5  C   UNL     1      -8.673   8.702  69.064  1.00  0.00    -0.134 A  
HETATM    6  C   UNL     1      -7.955   9.444  67.021  1.00  0.00    -0.102 A  
HETATM    7  N   UNL     1      -9.012   9.167  67.827  1.00  0.00    -0.127 NA 
ENDROOT
BRANCH   5   8
HETATM    8  C   UNL     1      -9.772   8.320  69.995  1.00  0.00    -0.176 C  
HETATM    9  O   UNL     1     -10.274   7.203  69.947  1.00  0.00    -0.198 OA 
HETATM   10  N   UNL     1     -10.180   9.305  70.874  1.00  0.00    -0.278 N  
HETATM   11  H   UNL     1      -9.664  10.183  70.914  1.00  0.00     0.000 HD 
BRANCH  10  12
HETATM   12  C   UNL     1     -11.327   9.118  71.741  1.00  0.00    -0.381 C  
BRANCH  12  13
HETATM   13  C   UNL     1     -12.560   9.918  71.289  1.00  0.00    -0.480 C  
BRANCH  13  14
HETATM   14  C   UNL     1     -12.252  11.102  70.390  1.00  0.00    -0.457 A  
HETATM   15  C   UNL     1     -12.191  12.411  70.892  1.00  0.00    -0.290 A  
HETATM   16  C   UNL     1     -11.952  13.496  70.047  1.00  0.00    -0.410 A  
HETATM   17  C   UNL     1     -11.708  13.283  68.692  1.00  0.00    -0.341 A  
HETATM   18  C   UNL     1     -11.714  11.984  68.177  1.00  0.00    -0.398 A  
HETATM   19  C   UNL     1     -11.978  10.902  69.025  1.00  0.00    -0.322 A  
BRANCH  17  20
HETATM   20  S   UNL     1     -11.540  14.685  67.611  1.00  0.00    -0.362 S  
HETATM   21  O   UNL     1     -11.765  15.895  68.370  1.00  0.00    -0.358 OA 
HETATM   22  O   UNL     1     -12.329  14.410  66.425  1.00  0.00    -0.409 OA 
BRANCH  20  23
HETATM   23  N   UNL     1      -9.960  14.629  67.091  1.00  0.00    -0.238 N  
HETATM   24  H   UNL     1      -9.757  14.097  66.244  1.00  0.00     0.000 HD 
BRANCH  23  25
HETATM   25  C   UNL     1      -8.901  15.254  67.726  1.00  0.00    -0.173 C  
HETATM   26  O   UNL     1      -8.442  14.876  68.792  1.00  0.00    -0.158 OA 
BRANCH  25  27
HETATM   27  N   UNL     1      -8.406  16.323  67.033  1.00  0.00    -0.186 N  
HETATM   28  H   UNL     1      -8.603  16.412  66.037  1.00  0.00     0.000 HD 
BRANCH  27  29
HETATM   29  C   UNL     1      -7.599  17.337  67.705  1.00  0.00    -0.179 C  
HETATM   30  C   UNL     1      -6.392  17.746  66.853  1.00  0.00    -0.196 C  
HETATM   31  C   UNL     1      -6.765  18.647  65.677  1.00  0.00    -0.309 C  
HETATM   32  C   UNL     1      -7.575  19.857  66.128  1.00  0.00    -0.338 C  
HETATM   33  C   UNL     1      -8.808  19.444  66.924  1.00  0.00    -0.345 C  
HETATM   34  C   UNL     1      -8.439  18.555  68.111  1.00  0.00    -0.317 C  
ENDBRANCH  27  29
ENDBRANCH  25  27
ENDBRANCH  23  25
ENDBRANCH  20  23
ENDBRANCH  17  20
ENDBRANCH  13  14
ENDBRANCH  12  13
ENDBRANCH  10  12
ENDBRANCH   5   8
TORSDOF 9
ENDMDL
MODEL      190
REMARK 921   NORMALIZED FREE ENERGY PREDICTED BY IDOCK:   -4.78 KCAL/MOL
REMARK 922        TOTAL FREE ENERGY PREDICTED BY IDOCK:   -8.79 KCAL/MOL
REMARK 923 INTER-LIGAND FREE ENERGY PREDICTED BY IDOCK:   -7.39 KCAL/MOL
REMARK 924 INTRA-LIGAND FREE ENERGY PREDICTED BY IDOCK:   -1.41 KCAL/MOL
REMARK 927      BINDING AFFINITY PREDICTED BY RF-SCORE:    0.00 PKD
ROOT
HETATM    1  C   UNL     1      -8.273   3.307  67.426  1.00  0.00    -0.084 C  
HETATM    2  C   UNL     1      -8.139   4.738  67.014  1.00  0.00    -0.106 A  
HETATM    3  N   UNL     1      -7.106   5.447  67.533  1.00  0.00    -0.066 NA 
HETATM    4  C   UNL     1      -7.038   6.751  67.163  1.00  0.00    -0.079 A  
HETATM    5  C   UNL     1      -7.960   7.328  66.302  1.00  0.00    -0.110 A  
HETATM    6  C   UNL     1      -9.053   5.323  66.137  1.00  0.00    -0.148 A  
HETATM    7  N   UNL     1      -8.994   6.626  65.757  1.00  0.00    -0.085 NA 
ENDROOT
BRANCH   5   8
HETATM    8  C   UNL     1      -7.852   8.778  65.983  1.00  0.00    -0.105 C  
HETATM    9  O   UNL     1      -8.407   9.247  64.996  1.00  0.00    -0.136 OA 
HETATM   10  N   UNL     1      -7.079   9.526  66.851  1.00  0.00    -0.085 N  
HETATM   11  H   UNL     1      -6.714   9.087  67.697  1.00  0.00     0.000 HD 
BRANCH  10  12
HETATM   12  C   UNL     1      -6.776  10.919  66.588  1.00  0.00    -0.127 C  
BRANCH  12  13
HETATM   13  C   UNL     1      -7.131  11.844  67.764  1.00  0.00    -0.103 C  
BRANCH  13  14
HETATM   14  C   UNL     1      -7.845  13.124  67.370  1.00  0.00    -0.169 A  
HETATM   15  C   UNL     1      -9.169  13.116  66.907  1.00  0.00    -0.236 A  
HETATM   16  C   UNL     1      -9.798  14.296  66.504  1.00  0.00    -0.299 A  
HETATM   17  C   UNL     1      -9.132  15.514  66.617  1.00  0.00    -0.279 A  
HETATM   18  C   UNL     1      -7.829  15.554  67.122  1.00  0.00    -0.256 A  
HETATM   19  C   UNL     1      -7.195  14.365  67.502  1.00  0.00    -0.202 A  
BRANCH  17  20
HETATM   20  S   UNL     1      -9.899  16.984  65.974  1.00  0.00    -0.196 S  
HETATM   21  O   UNL     1     -10.702  16.632  64.824  1.00  0.00    -0.721 OA 
HETATM   22  O   UNL     1      -8.865  17.994  65.861  1.00  0.00    -0.504 OA 
BRANCH  20  23
HETATM   23  N   UNL     1     -10.881  17.520  67.207  1.00  0.00    -0.210 N  
HETATM   24  H   UNL     1     -11.814  17.851  66.960  1.00  0.00     0.000 HD 
BRANCH  23  25
HETATM   25  C   UNL     1     -10.522  17.549  68.542  1.00  0.00    -0.361 C  
HETATM   26  O   UNL     1      -9.520  18.111  68.954  1.00  0.00    -0.283 OA 
BRANCH  25  27
HETATM   27  N   UNL     1     -11.409  16.905  69.358  1.00  0.00    -0.178 N  
HETATM   28  H   UNL     1     -12.411  17.020  69.203  1.00  0.00     0.000 HD 
BRANCH  27  29
HETATM   29  C   UNL     1     -10.939  16.054  70.447  1.00  0.00    -0.336 C  
HETATM   30  C   UNL     1     -11.874  16.129  71.659  1.00  0.00    -0.557 C  
HETATM   31  C   UNL     1     -13.179  15.361  71.460  1.00  0.00    -0.572 C  
HETATM   32  C   UNL     1     -12.925  13.920  71.030  1.00  0.00    -0.357 C  
HETATM   33  C   UNL     1     -12.044  13.851  69.788  1.00  0.00    -0.404 C  
HETATM   34  C   UNL     1     -10.730  14.605  69.987  1.00  0.00    -0.031 C  
ENDBRANCH  27  29
ENDBRANCH  25  27
ENDBRANCH  23  25
ENDBRANCH  20  23
ENDBRANCH  17  20
ENDBRANCH  13  14
ENDBRANCH  12  13
ENDBRANCH  10  12
ENDBRANCH   5   8
TORSDOF 9
ENDMDL
MODEL      191
REMARK 921   NORMALIZED FREE ENERGY PREDICTED BY IDOCK:   -4.77 KCAL/MOL
REMARK 922        TOTAL FREE ENERGY PREDICTED BY IDOCK:   -8.77 KCAL/MOL
REMARK 923 INTER-LIGAND FREE ENERGY PREDICTED BY IDOCK:   -7.62 KCAL/MOL
REMARK 924 INTRA-LIGAND FREE ENERGY PREDICTED BY IDOCK:   -1.15 KCAL/MOL
REMARK 927      BINDING AFFINITY PREDICTED BY RF-SCORE:    0.00 PKD
ROOT
HETATM    1  C   UNL     1     -13.844   9.011  72.291  1.00  0.00    -0.547 C  
HETATM    2  C   UNL     1     -12.616   8.334  71.771  1.00  0.00    -0.333 A  
HETATM    3  N   UNL     1     -11.551   9.115  71.462  1.00  0.00    -0.341 NA 
HETATM    4  C   UNL     1     -10.468   8.468  70.962  1.00  0.00    -0.212 A  
HETATM    5  C   UNL     1     -10.443   7.093  70.780  1.00  0.00    -0.212 A  
HETATM    6  C   UNL     1     -12.576   6.950  71.599  1.00  0.00    -0.367 A  
HETATM    7  N   UNL     1     -11.498   6.290  71.102  1.00  0.00    -0.314 NA 
ENDROOT
BRANCH   5   8
HETATM    8  C   UNL     1      -9.239   6.459  70.175  1.00  0.00    -0.158 C  
HETATM    9  O   UNL     1      -8.217   6.298  70.834  1.00  0.00    -0.122 OA 
HETATM   10  N   UNL     1      -9.356   6.100  68.846  1.00  0.00    -0.124 N  
HETATM   11  H   UNL     1     -10.260   6.188  68.384  1.00  0.00     0.000 HD 
BRANCH  10  12
HETATM   12  C   UNL     1      -8.222   5.599  68.094  1.00  0.00    -0.096 C  
BRANCH  12  13
HETATM   13  C   UNL     1      -7.878   6.469  66.875  1.00  0.00    -0.107 C  
BRANCH  13  14
HETATM   14  C   UNL     1      -8.571   7.819  66.843  1.00  0.00    -0.130 A  
HETATM   15  C   UNL     1      -9.527   8.134  65.865  1.00  0.00    -0.082 A  
HETATM   16  C   UNL     1     -10.123   9.395  65.820  1.00  0.00    -0.166 A  
HETATM   17  C   UNL     1      -9.819  10.345  66.793  1.00  0.00    -0.195 A  
HETATM   18  C   UNL     1      -8.907  10.038  67.807  1.00  0.00    -0.125 A  
HETATM   19  C   UNL     1      -8.294   8.780  67.833  1.00  0.00    -0.118 A  
BRANCH  17  20
HETATM   20  S   UNL     1     -10.486  11.985  66.641  1.00  0.00    -0.221 S  
HETATM   21  O   UNL     1     -11.891  11.895  66.309  1.00  0.00    -0.546 OA 
HETATM   22  O   UNL     1      -9.584  12.739  65.791  1.00  0.00    -0.207 OA 
BRANCH  20  23
HETATM   23  N   UNL     1     -10.304  12.657  68.153  1.00  0.00    -0.227 N  
HETATM   24  H   UNL     1      -9.649  12.209  68.795  1.00  0.00     0.000 HD 
BRANCH  23  25
HETATM   25  C   UNL     1     -10.978  13.778  68.601  1.00  0.00    -0.266 C  
HETATM   26  O   UNL     1     -11.588  13.816  69.657  1.00  0.00    -0.271 OA 
BRANCH  25  27
HETATM   27  N   UNL     1     -10.877  14.847  67.755  1.00  0.00    -0.279 N  
HETATM   28  H   UNL     1     -11.682  15.123  67.193  1.00  0.00     0.000 HD 
BRANCH  27  29
HETATM   29  C   UNL     1      -9.630  15.597  67.647  1.00  0.00    -0.220 C  
HETATM   30  C   UNL     1      -9.546  16.356  66.317  1.00  0.00    -0.338 C  
HETATM   31  C   UNL     1     -10.437  17.595  66.276  1.00  0.00    -0.292 C  
HETATM   32  C   UNL     1     -10.183  18.513  67.467  1.00  0.00    -0.414 C  
HETATM   33  C   UNL     1     -10.327  17.769  68.790  1.00  0.00    -0.332 C  
HETATM   34  C   UNL     1      -9.426  16.537  68.843  1.00  0.00    -0.260 C  
ENDBRANCH  27  29
ENDBRANCH  25  27
ENDBRANCH  23  25
ENDBRANCH  20  23
ENDBRANCH  17  20
ENDBRANCH  13  14
ENDBRANCH  12  13
ENDBRANCH  10  12
ENDBRANCH   5   8
TORSDOF 9
ENDMDL
MODEL      192
REMARK 921   NORMALIZED FREE ENERGY PREDICTED BY IDOCK:   -4.77 KCAL/MOL
REMARK 922        TOTAL FREE ENERGY PREDICTED BY IDOCK:   -8.77 KCAL/MOL
REMARK 923 INTER-LIGAND FREE ENERGY PREDICTED BY IDOCK:   -7.26 KCAL/MOL
REMARK 924 INTRA-LIGAND FREE ENERGY PREDICTED BY IDOCK:   -1.50 KCAL/MOL
REMARK 927      BINDING AFFINITY PREDICTED BY RF-SCORE:    0.00 PKD
ROOT
HETATM    1  C   UNL     1     -10.246  18.038  66.499  1.00  0.00    -0.383 C  
HETATM    2  C   UNL     1     -10.531  16.590  66.740  1.00  0.00    -0.269 A  
HETATM    3  N   UNL     1     -10.642  16.177  68.028  1.00  0.00    -0.293 NA 
HETATM    4  C   UNL     1     -10.866  14.850  68.206  1.00  0.00    -0.257 A  
HETATM    5  C   UNL     1     -10.981  13.967  67.143  1.00  0.00    -0.291 A  
HETATM    6  C   UNL     1     -10.664  15.696  65.677  1.00  0.00    -0.364 A  
HETATM    7  N   UNL     1     -10.890  14.367  65.842  1.00  0.00    -0.297 NA 
ENDROOT
BRANCH   5   8
HETATM    8  C   UNL     1     -11.174  12.516  67.418  1.00  0.00    -0.293 C  
HETATM    9  O   UNL     1     -12.152  11.919  66.982  1.00  0.00    -0.600 OA 
HETATM   10  N   UNL     1     -10.201  11.922  68.200  1.00  0.00    -0.193 N  
HETATM   11  H   UNL     1      -9.374  12.458  68.460  1.00  0.00     0.000 HD 
BRANCH  10  12
HETATM   12  C   UNL     1     -10.331  10.552  68.658  1.00  0.00    -0.185 C  
BRANCH  12  13
HETATM   13  C   UNL     1     -11.235  10.415  69.894  1.00  0.00    -0.371 C  
BRANCH  13  14
HETATM   14  C   UNL     1     -10.949   9.200  70.757  1.00  0.00    -0.332 A  
HETATM   15  C   UNL     1      -9.650   8.897  71.194  1.00  0.00    -0.342 A  
HETATM   16  C   UNL     1      -9.393   7.751  71.949  1.00  0.00    -0.195 A  
HETATM   17  C   UNL     1     -10.443   6.920  72.333  1.00  0.00    -0.208 A  
HETATM   18  C   UNL     1     -11.753   7.227  71.953  1.00  0.00    -0.323 A  
HETATM   19  C   UNL     1     -12.001   8.365  71.175  1.00  0.00    -0.301 A  
BRANCH  17  20
HETATM   20  S   UNL     1     -10.079   5.398  73.178  1.00  0.00    -0.191 S  
HETATM   21  O   UNL     1     -11.146   4.454  72.929  1.00  0.00    -0.178 OA 
HETATM   22  O   UNL     1      -9.710   5.740  74.538  1.00  0.00    -0.173 OA 
BRANCH  20  23
HETATM   23  N   UNL     1      -8.669   4.855  72.480  1.00  0.00    -0.119 N  
HETATM   24  H   UNL     1      -7.789   5.236  72.829  1.00  0.00     0.000 HD 
BRANCH  23  25
HETATM   25  C   UNL     1      -8.606   3.924  71.459  1.00  0.00    -0.096 C  
HETATM   26  O   UNL     1      -8.083   2.828  71.583  1.00  0.00    -0.055 OA 
BRANCH  25  27
HETATM   27  N   UNL     1      -9.206   4.342  70.305  1.00  0.00    -0.118 N  
HETATM   28  H   UNL     1     -10.224   4.375  70.249  1.00  0.00     0.000 HD 
BRANCH  27  29
HETATM   29  C   UNL     1      -8.406   4.740  69.150  1.00  0.00    -0.081 C  
HETATM   30  C   UNL     1      -8.381   3.643  68.080  1.00  0.00    -0.095 C  
HETATM   31  C   UNL     1      -9.686   3.542  67.294  1.00  0.00    -0.058 C  
HETATM   32  C   UNL     1     -10.101   4.889  66.712  1.00  0.00    -0.269 C  
HETATM   33  C   UNL     1     -10.184   5.965  67.789  1.00  0.00    -0.223 C  
HETATM   34  C   UNL     1      -8.875   6.082  68.569  1.00  0.00    -0.112 C  
ENDBRANCH  27  29
ENDBRANCH  25  27
ENDBRANCH  23  25
ENDBRANCH  20  23
ENDBRANCH  17  20
ENDBRANCH  13  14
ENDBRANCH  12  13
ENDBRANCH  10  12
ENDBRANCH   5   8
TORSDOF 9
ENDMDL
MODEL      193
REMARK 921   NORMALIZED FREE ENERGY PREDICTED BY IDOCK:   -4.76 KCAL/MOL
REMARK 922        TOTAL FREE ENERGY PREDICTED BY IDOCK:   -8.75 KCAL/MOL
REMARK 923 INTER-LIGAND FREE ENERGY PREDICTED BY IDOCK:   -7.54 KCAL/MOL
REMARK 924 INTRA-LIGAND FREE ENERGY PREDICTED BY IDOCK:   -1.22 KCAL/MOL
REMARK 927      BINDING AFFINITY PREDICTED BY RF-SCORE:    0.00 PKD
ROOT
HETATM    1  C   UNL     1      -8.821   4.100  69.349  1.00  0.00    -0.142 C  
HETATM    2  C   UNL     1      -8.608   4.629  67.966  1.00  0.00    -0.102 A  
HETATM    3  N   UNL     1      -7.365   4.519  67.435  1.00  0.00    -0.073 NA 
HETATM    4  C   UNL     1      -7.204   5.042  66.193  1.00  0.00    -0.077 A  
HETATM    5  C   UNL     1      -8.242   5.647  65.502  1.00  0.00    -0.129 A  
HETATM    6  C   UNL     1      -9.650   5.227  67.256  1.00  0.00    -0.137 A  
HETATM    7  N   UNL     1      -9.503   5.751  66.012  1.00  0.00    -0.128 NA 
ENDROOT
BRANCH   5   8
HETATM    8  C   UNL     1      -7.976   6.246  64.164  1.00  0.00    -0.103 C  
HETATM    9  O   UNL     1      -7.481   5.576  63.264  1.00  0.00    -0.052 OA 
HETATM   10  N   UNL     1      -8.303   7.582  64.031  1.00  0.00    -0.366 N  
HETATM   11  H   UNL     1      -8.787   8.054  64.794  1.00  0.00     0.000 HD 
BRANCH  10  12
HETATM   12  C   UNL     1      -7.974   8.326  62.832  1.00  0.00    -0.163 C  
BRANCH  12  13
HETATM   13  C   UNL     1      -7.951   9.847  63.056  1.00  0.00    -0.142 C  
BRANCH  13  14
HETATM   14  C   UNL     1      -8.688  10.316  64.298  1.00  0.00    -0.217 A  
HETATM   15  C   UNL     1     -10.060  10.605  64.274  1.00  0.00    -0.411 A  
HETATM   16  C   UNL     1     -10.717  11.079  65.411  1.00  0.00    -0.222 A  
HETATM   17  C   UNL     1     -10.022  11.214  66.611  1.00  0.00    -0.207 A  
HETATM   18  C   UNL     1      -8.664  10.886  66.673  1.00  0.00    -0.156 A  
HETATM   19  C   UNL     1      -8.006  10.434  65.523  1.00  0.00    -0.153 A  
BRANCH  17  20
HETATM   20  S   UNL     1     -10.841  11.946  68.009  1.00  0.00    -0.230 S  
HETATM   21  O   UNL     1     -12.245  11.602  67.966  1.00  0.00    -0.551 OA 
HETATM   22  O   UNL     1     -10.432  13.336  68.068  1.00  0.00    -0.230 OA 
BRANCH  20  23
HETATM   23  N   UNL     1     -10.126  11.237  69.335  1.00  0.00    -0.434 N  
HETATM   24  H   UNL     1      -9.553  11.828  69.938  1.00  0.00     0.000 HD 
BRANCH  23  25
HETATM   25  C   UNL     1     -10.253   9.903  69.677  1.00  0.00    -0.237 C  
HETATM   26  O   UNL     1      -9.330   9.107  69.625  1.00  0.00    -0.159 OA 
BRANCH  25  27
HETATM   27  N   UNL     1     -11.509   9.568  70.099  1.00  0.00    -0.386 N  
HETATM   28  H   UNL     1     -12.282   9.573  69.434  1.00  0.00     0.000 HD 
BRANCH  27  29
HETATM   29  C   UNL     1     -11.755   9.203  71.491  1.00  0.00    -0.363 C  
HETATM   30  C   UNL     1     -13.131   9.689  71.962  1.00  0.00    -0.537 C  
HETATM   31  C   UNL     1     -14.284   8.852  71.412  1.00  0.00    -0.241 C  
HETATM   32  C   UNL     1     -14.084   7.366  71.688  1.00  0.00    -0.552 C  
HETATM   33  C   UNL     1     -12.740   6.872  71.164  1.00  0.00    -0.331 C  
HETATM   34  C   UNL     1     -11.582   7.696  71.724  1.00  0.00    -0.307 C  
ENDBRANCH  27  29
ENDBRANCH  25  27
ENDBRANCH  23  25
ENDBRANCH  20  23
ENDBRANCH  17  20
ENDBRANCH  13  14
ENDBRANCH  12  13
ENDBRANCH  10  12
ENDBRANCH   5   8
TORSDOF 9
ENDMDL
MODEL      194
REMARK 921   NORMALIZED FREE ENERGY PREDICTED BY IDOCK:   -4.76 KCAL/MOL
REMARK 922        TOTAL FREE ENERGY PREDICTED BY IDOCK:   -8.75 KCAL/MOL
REMARK 923 INTER-LIGAND FREE ENERGY PREDICTED BY IDOCK:   -6.88 KCAL/MOL
REMARK 924 INTRA-LIGAND FREE ENERGY PREDICTED BY IDOCK:   -1.87 KCAL/MOL
REMARK 927      BINDING AFFINITY PREDICTED BY RF-SCORE:    0.00 PKD
ROOT
HETATM    1  C   UNL     1      -5.704   9.047  66.521  1.00  0.00    -0.050 C  
HETATM    2  C   UNL     1      -5.827  10.439  67.054  1.00  0.00    -0.051 A  
HETATM    3  N   UNL     1      -6.607  10.628  68.147  1.00  0.00    -0.062 NA 
HETATM    4  C   UNL     1      -6.721  11.909  68.579  1.00  0.00    -0.068 A  
HETATM    5  C   UNL     1      -6.079  12.965  67.950  1.00  0.00    -0.125 A  
HETATM    6  C   UNL     1      -5.172  11.506  66.437  1.00  0.00    -0.077 A  
HETATM    7  N   UNL     1      -5.276  12.792  66.861  1.00  0.00    -0.266 NA 
ENDROOT
BRANCH   5   8
HETATM    8  C   UNL     1      -6.294  14.351  68.449  1.00  0.00    -0.101 C  
HETATM    9  O   UNL     1      -6.269  14.597  69.650  1.00  0.00    -0.113 OA 
HETATM   10  N   UNL     1      -6.538  15.304  67.479  1.00  0.00    -0.171 N  
HETATM   11  H   UNL     1      -6.463  15.046  66.496  1.00  0.00     0.000 HD 
BRANCH  10  12
HETATM   12  C   UNL     1      -6.899  16.665  67.828  1.00  0.00    -0.141 C  
BRANCH  12  13
HETATM   13  C   UNL     1      -8.223  17.118  67.190  1.00  0.00    -0.214 C  
BRANCH  13  14
HETATM   14  C   UNL     1      -9.191  15.993  66.873  1.00  0.00    -0.244 A  
HETATM   15  C   UNL     1      -9.928  15.351  67.880  1.00  0.00    -0.221 A  
HETATM   16  C   UNL     1     -10.781  14.287  67.581  1.00  0.00    -0.259 A  
HETATM   17  C   UNL     1     -10.958  13.887  66.258  1.00  0.00    -0.298 A  
HETATM   18  C   UNL     1     -10.273  14.544  65.232  1.00  0.00    -0.431 A  
HETATM   19  C   UNL     1      -9.401  15.594  65.541  1.00  0.00    -0.072 A  
BRANCH  17  20
HETATM   20  S   UNL     1     -11.942  12.447  65.912  1.00  0.00    -0.271 S  
HETATM   21  O   UNL     1     -13.095  12.840  65.132  1.00  0.00    -0.750 OA 
HETATM   22  O   UNL     1     -12.117  11.735  67.164  1.00  0.00    -0.592 OA 
BRANCH  20  23
HETATM   23  N   UNL     1     -10.951  11.467  65.002  1.00  0.00    -0.272 N  
HETATM   24  H   UNL     1     -11.105  11.443  63.994  1.00  0.00     0.000 HD 
BRANCH  23  25
HETATM   25  C   UNL     1      -9.934  10.684  65.517  1.00  0.00    -0.272 C  
HETATM   26  O   UNL     1      -8.756  10.857  65.252  1.00  0.00    -0.189 OA 
BRANCH  25  27
HETATM   27  N   UNL     1     -10.376   9.710  66.368  1.00  0.00    -0.214 N  
HETATM   28  H   UNL     1     -11.359   9.684  66.637  1.00  0.00     0.000 HD 
BRANCH  27  29
HETATM   29  C   UNL     1      -9.456   8.708  66.896  1.00  0.00    -0.180 C  
HETATM   30  C   UNL     1      -9.431   8.722  68.428  1.00  0.00    -0.148 C  
HETATM   31  C   UNL     1     -10.672   8.089  69.055  1.00  0.00    -0.107 C  
HETATM   32  C   UNL     1     -10.929   6.690  68.507  1.00  0.00    -0.314 C  
HETATM   33  C   UNL     1     -11.013   6.689  66.984  1.00  0.00    -0.463 C  
HETATM   34  C   UNL     1      -9.767   7.307  66.352  1.00  0.00    -0.148 C  
ENDBRANCH  27  29
ENDBRANCH  25  27
ENDBRANCH  23  25
ENDBRANCH  20  23
ENDBRANCH  17  20
ENDBRANCH  13  14
ENDBRANCH  12  13
ENDBRANCH  10  12
ENDBRANCH   5   8
TORSDOF 9
ENDMDL
MODEL      195
REMARK 921   NORMALIZED FREE ENERGY PREDICTED BY IDOCK:   -4.75 KCAL/MOL
REMARK 922        TOTAL FREE ENERGY PREDICTED BY IDOCK:   -8.74 KCAL/MOL
REMARK 923 INTER-LIGAND FREE ENERGY PREDICTED BY IDOCK:   -7.05 KCAL/MOL
REMARK 924 INTRA-LIGAND FREE ENERGY PREDICTED BY IDOCK:   -1.70 KCAL/MOL
REMARK 927      BINDING AFFINITY PREDICTED BY RF-SCORE:    0.00 PKD
ROOT
HETATM    1  C   UNL     1     -10.357  17.824  68.302  1.00  0.00    -0.387 C  
HETATM    2  C   UNL     1     -10.779  16.702  67.408  1.00  0.00    -0.253 A  
HETATM    3  N   UNL     1     -11.490  15.689  67.964  1.00  0.00    -0.328 NA 
HETATM    4  C   UNL     1     -11.824  14.673  67.129  1.00  0.00    -0.345 A  
HETATM    5  C   UNL     1     -11.470  14.666  65.789  1.00  0.00    -0.338 A  
HETATM    6  C   UNL     1     -10.440  16.693  66.054  1.00  0.00    -0.298 A  
HETATM    7  N   UNL     1     -10.771  15.684  65.208  1.00  0.00    -0.402 NA 
ENDROOT
BRANCH   5   8
HETATM    8  C   UNL     1     -11.826  13.491  64.946  1.00  0.00    -0.374 C  
HETATM    9  O   UNL     1     -12.834  12.833  65.180  1.00  0.00    -0.726 OA 
HETATM   10  N   UNL     1     -10.943  13.198  63.924  1.00  0.00    -0.541 N  
HETATM   11  H   UNL     1     -10.169  13.835  63.736  1.00  0.00     0.000 HD 
BRANCH  10  12
HETATM   12  C   UNL     1     -11.091  12.006  63.113  1.00  0.00    -0.184 C  
BRANCH  12  13
HETATM   13  C   UNL     1      -9.809  11.160  63.046  1.00  0.00    -0.368 C  
BRANCH  13  14
HETATM   14  C   UNL     1      -9.394  10.533  64.365  1.00  0.00    -0.307 A  
HETATM   15  C   UNL     1     -10.340  10.152  65.329  1.00  0.00    -0.154 A  
HETATM   16  C   UNL     1      -9.943   9.619  66.557  1.00  0.00    -0.313 A  
HETATM   17  C   UNL     1      -8.592   9.400  66.817  1.00  0.00    -0.127 A  
HETATM   18  C   UNL     1      -7.633   9.726  65.852  1.00  0.00    -0.103 A  
HETATM   19  C   UNL     1      -8.036  10.283  64.633  1.00  0.00    -0.131 A  
BRANCH  17  20
HETATM   20  S   UNL     1      -8.099   8.848  68.433  1.00  0.00    -0.109 S  
HETATM   21  O   UNL     1      -8.541   9.812  69.416  1.00  0.00    -0.138 OA 
HETATM   22  O   UNL     1      -6.698   8.478  68.352  1.00  0.00    -0.062 OA 
BRANCH  20  23
HETATM   23  N   UNL     1      -8.905   7.408  68.651  1.00  0.00    -0.127 N  
HETATM   24  H   UNL     1      -9.887   7.451  68.923  1.00  0.00     0.000 HD 
BRANCH  23  25
HETATM   25  C   UNL     1      -8.337   6.157  68.488  1.00  0.00    -0.114 C  
HETATM   26  O   UNL     1      -8.264   5.333  69.385  1.00  0.00    -0.093 OA 
BRANCH  25  27
HETATM   27  N   UNL     1      -7.885   5.927  67.219  1.00  0.00    -0.101 N  
HETATM   28  H   UNL     1      -6.885   5.974  67.024  1.00  0.00     0.000 HD 
BRANCH  27  29
HETATM   29  C   UNL     1      -8.817   5.614  66.140  1.00  0.00    -0.142 C  
HETATM   30  C   UNL     1      -8.286   6.093  64.785  1.00  0.00    -0.112 C  
HETATM   31  C   UNL     1      -7.165   5.214  64.234  1.00  0.00    -0.054 C  
HETATM   32  C   UNL     1      -7.568   3.744  64.196  1.00  0.00    -0.075 C  
HETATM   33  C   UNL     1      -8.038   3.254  65.561  1.00  0.00    -0.090 C  
HETATM   34  C   UNL     1      -9.171   4.121  66.109  1.00  0.00    -0.150 C  
ENDBRANCH  27  29
ENDBRANCH  25  27
ENDBRANCH  23  25
ENDBRANCH  20  23
ENDBRANCH  17  20
ENDBRANCH  13  14
ENDBRANCH  12  13
ENDBRANCH  10  12
ENDBRANCH   5   8
TORSDOF 9
ENDMDL
MODEL      196
REMARK 921   NORMALIZED FREE ENERGY PREDICTED BY IDOCK:   -4.73 KCAL/MOL
REMARK 922        TOTAL FREE ENERGY PREDICTED BY IDOCK:   -8.71 KCAL/MOL
REMARK 923 INTER-LIGAND FREE ENERGY PREDICTED BY IDOCK:   -6.37 KCAL/MOL
REMARK 924 INTRA-LIGAND FREE ENERGY PREDICTED BY IDOCK:   -2.34 KCAL/MOL
REMARK 927      BINDING AFFINITY PREDICTED BY RF-SCORE:    0.00 PKD
ROOT
HETATM    1  C   UNL     1      -6.448  17.636  69.498  1.00  0.00    -0.193 C  
HETATM    2  C   UNL     1      -6.423  16.245  68.949  1.00  0.00    -0.141 A  
HETATM    3  N   UNL     1      -5.884  15.272  69.725  1.00  0.00    -0.121 NA 
HETATM    4  C   UNL     1      -5.848  14.030  69.178  1.00  0.00    -0.087 A  
HETATM    5  C   UNL     1      -6.335  13.764  67.908  1.00  0.00    -0.157 A  
HETATM    6  C   UNL     1      -6.924  15.964  67.677  1.00  0.00    -0.162 A  
HETATM    7  N   UNL     1      -6.896  14.726  67.120  1.00  0.00    -0.181 NA 
ENDROOT
BRANCH   5   8
HETATM    8  C   UNL     1      -6.213  12.388  67.353  1.00  0.00    -0.158 C  
HETATM    9  O   UNL     1      -5.191  11.731  67.521  1.00  0.00    -0.056 OA 
HETATM   10  N   UNL     1      -7.303  11.933  66.637  1.00  0.00    -0.372 N  
HETATM   11  H   UNL     1      -8.151  12.499  66.606  1.00  0.00     0.000 HD 
BRANCH  10  12
HETATM   12  C   UNL     1      -7.270  10.668  65.928  1.00  0.00    -0.119 C  
BRANCH  12  13
HETATM   13  C   UNL     1      -7.564   9.462  66.835  1.00  0.00    -0.091 C  
BRANCH  13  14
HETATM   14  C   UNL     1      -8.734   9.654  67.784  1.00  0.00    -0.122 A  
HETATM   15  C   UNL     1     -10.033   9.891  67.313  1.00  0.00    -0.245 A  
HETATM   16  C   UNL     1     -11.092  10.112  68.196  1.00  0.00    -0.290 A  
HETATM   17  C   UNL     1     -10.878  10.036  69.571  1.00  0.00    -0.253 A  
HETATM   18  C   UNL     1      -9.601   9.752  70.065  1.00  0.00    -0.282 A  
HETATM   19  C   UNL     1      -8.540   9.556  69.174  1.00  0.00    -0.140 A  
BRANCH  17  20
HETATM   20  S   UNL     1     -12.206  10.452  70.678  1.00  0.00    -0.368 S  
HETATM   21  O   UNL     1     -12.187   9.539  71.800  1.00  0.00    -0.363 OA 
HETATM   22  O   UNL     1     -13.405  10.597  69.876  1.00  0.00     0.042 OA 
BRANCH  20  23
HETATM   23  N   UNL     1     -11.855  11.994  71.198  1.00  0.00    -0.007 N  
HETATM   24  H   UNL     1     -11.176  12.097  71.952  1.00  0.00     0.000 HD 
BRANCH  23  25
HETATM   25  C   UNL     1     -12.419  13.145  70.679  1.00  0.00    -0.286 C  
HETATM   26  O   UNL     1     -13.214  13.837  71.294  1.00  0.00    -0.319 OA 
BRANCH  25  27
HETATM   27  N   UNL     1     -11.983  13.443  69.418  1.00  0.00    -0.321 N  
HETATM   28  H   UNL     1     -12.617  13.334  68.627  1.00  0.00     0.000 HD 
BRANCH  27  29
HETATM   29  C   UNL     1     -10.621  13.916  69.193  1.00  0.00    -0.100 C  
HETATM   30  C   UNL     1     -10.138  13.578  67.778  1.00  0.00    -0.236 C  
HETATM   31  C   UNL     1     -10.755  14.472  66.704  1.00  0.00    -0.305 C  
HETATM   32  C   UNL     1     -10.571  15.951  67.026  1.00  0.00    -0.306 C  
HETATM   33  C   UNL     1     -11.107  16.295  68.411  1.00  0.00    -0.362 C  
HETATM   34  C   UNL     1     -10.482  15.415  69.492  1.00  0.00    -0.264 C  
ENDBRANCH  27  29
ENDBRANCH  25  27
ENDBRANCH  23  25
ENDBRANCH  20  23
ENDBRANCH  17  20
ENDBRANCH  13  14
ENDBRANCH  12  13
ENDBRANCH  10  12
ENDBRANCH   5   8
TORSDOF 9
ENDMDL
MODEL      197
REMARK 921   NORMALIZED FREE ENERGY PREDICTED BY IDOCK:   -4.72 KCAL/MOL
REMARK 922        TOTAL FREE ENERGY PREDICTED BY IDOCK:   -8.71 KCAL/MOL
REMARK 923 INTER-LIGAND FREE ENERGY PREDICTED BY IDOCK:   -7.44 KCAL/MOL
REMARK 924 INTRA-LIGAND FREE ENERGY PREDICTED BY IDOCK:   -1.26 KCAL/MOL
REMARK 927      BINDING AFFINITY PREDICTED BY RF-SCORE:    0.00 PKD
ROOT
HETATM    1  C   UNL     1      -5.687  13.447  70.189  1.00  0.00    -0.136 C  
HETATM    2  C   UNL     1      -6.935  13.808  69.448  1.00  0.00     0.002 A  
HETATM    3  N   UNL     1      -7.481  12.866  68.640  1.00  0.00    -0.113 NA 
HETATM    4  C   UNL     1      -8.592  13.243  67.959  1.00  0.00    -0.178 A  
HETATM    5  C   UNL     1      -9.144  14.509  68.080  1.00  0.00    -0.185 A  
HETATM    6  C   UNL     1      -7.506  15.075  69.575  1.00  0.00    -0.194 A  
HETATM    7  N   UNL     1      -8.618  15.464  68.901  1.00  0.00    -0.190 NA 
ENDROOT
BRANCH   5   8
HETATM    8  C   UNL     1     -10.334  14.868  67.259  1.00  0.00    -0.251 C  
HETATM    9  O   UNL     1     -11.298  15.431  67.765  1.00  0.00    -0.328 OA 
HETATM   10  N   UNL     1     -10.273  14.505  65.927  1.00  0.00    -0.306 N  
HETATM   11  H   UNL     1      -9.407  14.114  65.557  1.00  0.00     0.000 HD 
BRANCH  10  12
HETATM   12  C   UNL     1     -11.411  14.670  65.045  1.00  0.00    -0.386 C  
BRANCH  12  13
HETATM   13  C   UNL     1     -12.116  13.342  64.719  1.00  0.00    -0.448 C  
BRANCH  13  14
HETATM   14  C   UNL     1     -11.230  12.114  64.818  1.00  0.00    -0.373 A  
HETATM   15  C   UNL     1     -11.119  11.379  66.008  1.00  0.00    -0.235 A  
HETATM   16  C   UNL     1     -10.266  10.278  66.099  1.00  0.00    -0.285 A  
HETATM   17  C   UNL     1      -9.553   9.855  64.979  1.00  0.00    -0.297 A  
HETATM   18  C   UNL     1      -9.683  10.541  63.768  1.00  0.00    -0.385 A  
HETATM   19  C   UNL     1     -10.523  11.659  63.690  1.00  0.00    -0.483 A  
BRANCH  17  20
HETATM   20  S   UNL     1      -8.372   8.537  65.151  1.00  0.00    -0.165 S  
HETATM   21  O   UNL     1      -7.373   8.923  66.122  1.00  0.00    -0.088 OA 
HETATM   22  O   UNL     1      -7.975   8.140  63.814  1.00  0.00    -0.142 OA 
BRANCH  20  23
HETATM   23  N   UNL     1      -9.256   7.251  65.730  1.00  0.00    -0.388 N  
HETATM   24  H   UNL     1     -10.108   6.998  65.229  1.00  0.00     0.000 HD 
BRANCH  23  25
HETATM   25  C   UNL     1      -8.918   6.503  66.842  1.00  0.00    -0.126 C  
HETATM   26  O   UNL     1      -7.843   5.940  66.970  1.00  0.00    -0.100 OA 
BRANCH  25  27
HETATM   27  N   UNL     1      -9.898   6.472  67.795  1.00  0.00    -0.121 N  
HETATM   28  H   UNL     1     -10.874   6.576  67.518  1.00  0.00     0.000 HD 
BRANCH  27  29
HETATM   29  C   UNL     1      -9.563   6.290  69.204  1.00  0.00    -0.135 C  
HETATM   30  C   UNL     1      -9.108   7.606  69.845  1.00  0.00    -0.147 C  
HETATM   31  C   UNL     1     -10.260   8.571  70.118  1.00  0.00    -0.202 C  
HETATM   32  C   UNL     1     -11.374   7.907  70.920  1.00  0.00    -0.290 C  
HETATM   33  C   UNL     1     -11.866   6.630  70.248  1.00  0.00    -0.378 C  
HETATM   34  C   UNL     1     -10.720   5.655  69.987  1.00  0.00    -0.390 C  
ENDBRANCH  27  29
ENDBRANCH  25  27
ENDBRANCH  23  25
ENDBRANCH  20  23
ENDBRANCH  17  20
ENDBRANCH  13  14
ENDBRANCH  12  13
ENDBRANCH  10  12
ENDBRANCH   5   8
TORSDOF 9
ENDMDL
MODEL      198
REMARK 921   NORMALIZED FREE ENERGY PREDICTED BY IDOCK:   -4.72 KCAL/MOL
REMARK 922        TOTAL FREE ENERGY PREDICTED BY IDOCK:   -8.71 KCAL/MOL
REMARK 923 INTER-LIGAND FREE ENERGY PREDICTED BY IDOCK:   -7.90 KCAL/MOL
REMARK 924 INTRA-LIGAND FREE ENERGY PREDICTED BY IDOCK:   -0.80 KCAL/MOL
REMARK 927      BINDING AFFINITY PREDICTED BY RF-SCORE:    0.00 PKD
ROOT
HETATM    1  C   UNL     1      -6.326  19.891  68.992  1.00  0.00    -0.345 C  
HETATM    2  C   UNL     1      -7.428  18.900  68.789  1.00  0.00    -0.325 A  
HETATM    3  N   UNL     1      -8.700  19.372  68.756  1.00  0.00    -0.366 NA 
HETATM    4  C   UNL     1      -9.673  18.439  68.605  1.00  0.00    -0.361 A  
HETATM    5  C   UNL     1      -9.393  17.086  68.484  1.00  0.00    -0.265 A  
HETATM    6  C   UNL     1      -7.155  17.539  68.651  1.00  0.00    -0.243 A  
HETATM    7  N   UNL     1      -8.120  16.596  68.496  1.00  0.00    -0.214 NA 
ENDROOT
BRANCH   5   8
HETATM    8  C   UNL     1     -10.516  16.115  68.374  1.00  0.00    -0.274 C  
HETATM    9  O   UNL     1     -11.227  16.087  67.375  1.00  0.00    -0.226 OA 
HETATM   10  N   UNL     1     -10.702  15.289  69.466  1.00  0.00    -0.251 N  
HETATM   11  H   UNL     1     -10.024  15.310  70.228  1.00  0.00     0.000 HD 
BRANCH  10  12
HETATM   12  C   UNL     1     -11.837  14.392  69.553  1.00  0.00    -0.329 C  
BRANCH  12  13
HETATM   13  C   UNL     1     -12.006  13.512  68.303  1.00  0.00    -0.377 C  
BRANCH  13  14
HETATM   14  C   UNL     1     -11.118  12.281  68.270  1.00  0.00    -0.282 A  
HETATM   15  C   UNL     1     -11.012  11.421  69.373  1.00  0.00    -0.260 A  
HETATM   16  C   UNL     1     -10.156  10.317  69.346  1.00  0.00    -0.255 A  
HETATM   17  C   UNL     1      -9.438  10.021  68.189  1.00  0.00    -0.138 A  
HETATM   18  C   UNL     1      -9.565  10.836  67.060  1.00  0.00    -0.195 A  
HETATM   19  C   UNL     1     -10.406  11.954  67.102  1.00  0.00    -0.235 A  
BRANCH  17  20
HETATM   20  S   UNL     1      -8.256   8.693  68.220  1.00  0.00    -0.123 S  
HETATM   21  O   UNL     1      -7.837   8.466  69.585  1.00  0.00    -0.096 OA 
HETATM   22  O   UNL     1      -7.272   8.971  67.191  1.00  0.00    -0.081 OA 
BRANCH  20  23
HETATM   23  N   UNL     1      -9.094   7.369  67.658  1.00  0.00    -0.125 N  
HETATM   24  H   UNL     1      -8.751   6.914  66.812  1.00  0.00     0.000 HD 
BRANCH  23  25
HETATM   25  C   UNL     1     -10.224   6.843  68.257  1.00  0.00    -0.180 C  
HETATM   26  O   UNL     1     -11.262   6.624  67.655  1.00  0.00    -0.296 OA 
BRANCH  25  27
HETATM   27  N   UNL     1     -10.057   6.570  69.586  1.00  0.00    -0.177 N  
HETATM   28  H   UNL     1      -9.118   6.563  69.985  1.00  0.00     0.000 HD 
BRANCH  27  29
HETATM   29  C   UNL     1     -11.207   6.290  70.441  1.00  0.00    -0.373 C  
HETATM   30  C   UNL     1     -10.795   5.518  71.699  1.00  0.00    -0.271 C  
HETATM   31  C   UNL     1     -10.086   6.389  72.733  1.00  0.00    -0.195 C  
HETATM   32  C   UNL     1     -10.897   7.634  73.075  1.00  0.00    -0.457 C  
HETATM   33  C   UNL     1     -11.254   8.433  71.826  1.00  0.00    -0.360 C  
HETATM   34  C   UNL     1     -11.978   7.570  70.794  1.00  0.00    -0.224 C  
ENDBRANCH  27  29
ENDBRANCH  25  27
ENDBRANCH  23  25
ENDBRANCH  20  23
ENDBRANCH  17  20
ENDBRANCH  13  14
ENDBRANCH  12  13
ENDBRANCH  10  12
ENDBRANCH   5   8
TORSDOF 9
ENDMDL
MODEL      199
REMARK 921   NORMALIZED FREE ENERGY PREDICTED BY IDOCK:   -4.72 KCAL/MOL
REMARK 922        TOTAL FREE ENERGY PREDICTED BY IDOCK:   -8.70 KCAL/MOL
REMARK 923 INTER-LIGAND FREE ENERGY PREDICTED BY IDOCK:   -6.91 KCAL/MOL
REMARK 924 INTRA-LIGAND FREE ENERGY PREDICTED BY IDOCK:   -1.79 KCAL/MOL
REMARK 927      BINDING AFFINITY PREDICTED BY RF-SCORE:    0.00 PKD
ROOT
HETATM    1  C   UNL     1     -11.494  14.532  64.832  1.00  0.00    -0.396 C  
HETATM    2  C   UNL     1     -11.605  13.861  66.164  1.00  0.00    -0.359 A  
HETATM    3  N   UNL     1     -11.312  14.597  67.265  1.00  0.00    -0.341 NA 
HETATM    4  C   UNL     1     -11.391  13.943  68.452  1.00  0.00    -0.285 A  
HETATM    5  C   UNL     1     -11.754  12.608  68.542  1.00  0.00    -0.330 A  
HETATM    6  C   UNL     1     -11.984  12.522  66.266  1.00  0.00    -0.343 A  
HETATM    7  N   UNL     1     -12.070  11.857  67.447  1.00  0.00    -0.523 NA 
ENDROOT
BRANCH   5   8
HETATM    8  C   UNL     1     -11.767  11.943  69.874  1.00  0.00    -0.308 C  
HETATM    9  O   UNL     1     -12.074  12.568  70.884  1.00  0.00    -0.285 OA 
HETATM   10  N   UNL     1     -11.394  10.613  69.883  1.00  0.00    -0.290 N  
HETATM   11  H   UNL     1     -11.230  10.136  68.997  1.00  0.00     0.000 HD 
BRANCH  10  12
HETATM   12  C   UNL     1     -11.231   9.880  71.123  1.00  0.00    -0.334 C  
BRANCH  12  13
HETATM   13  C   UNL     1      -9.957   9.019  71.149  1.00  0.00    -0.365 C  
BRANCH  13  14
HETATM   14  C   UNL     1      -9.902   7.936  70.086  1.00  0.00    -0.184 A  
HETATM   15  C   UNL     1     -10.790   6.849  70.096  1.00  0.00    -0.300 A  
HETATM   16  C   UNL     1     -10.700   5.836  69.140  1.00  0.00    -0.370 A  
HETATM   17  C   UNL     1      -9.757   5.925  68.118  1.00  0.00    -0.127 A  
HETATM   18  C   UNL     1      -8.893   7.023  68.058  1.00  0.00    -0.124 A  
HETATM   19  C   UNL     1      -8.973   8.024  69.034  1.00  0.00    -0.145 A  
BRANCH  17  20
HETATM   20  S   UNL     1      -9.568   4.563  66.992  1.00  0.00    -0.203 S  
HETATM   21  O   UNL     1      -8.280   4.662  66.343  1.00  0.00    -0.106 OA 
HETATM   22  O   UNL     1     -10.781   4.490  66.199  1.00  0.00    -0.200 OA 
BRANCH  20  23
HETATM   23  N   UNL     1      -9.612   3.208  67.958  1.00  0.00    -0.165 N  
HETATM   24  H   UNL     1     -10.522   2.784  68.139  1.00  0.00     0.000 HD 
BRANCH  23  25
HETATM   25  C   UNL     1      -8.502   2.616  68.532  1.00  0.00    -0.068 C  
HETATM   26  O   UNL     1      -8.082   1.519  68.205  1.00  0.00    -0.056 OA 
BRANCH  25  27
HETATM   27  N   UNL     1      -7.907   3.391  69.488  1.00  0.00    -0.050 N  
HETATM   28  H   UNL     1      -7.577   4.325  69.247  1.00  0.00     0.000 HD 
BRANCH  27  29
HETATM   29  C   UNL     1      -7.740   2.897  70.851  1.00  0.00    -0.039 C  
HETATM   30  C   UNL     1      -7.236   3.999  71.789  1.00  0.00    -0.057 C  
HETATM   31  C   UNL     1      -8.316   5.012  72.160  1.00  0.00    -0.124 C  
HETATM   32  C   UNL     1      -9.565   4.330  72.709  1.00  0.00    -0.167 C  
HETATM   33  C   UNL     1     -10.099   3.276  71.746  1.00  0.00    -0.125 C  
HETATM   34  C   UNL     1      -9.026   2.250  71.384  1.00  0.00    -0.138 C  
ENDBRANCH  27  29
ENDBRANCH  25  27
ENDBRANCH  23  25
ENDBRANCH  20  23
ENDBRANCH  17  20
ENDBRANCH  13  14
ENDBRANCH  12  13
ENDBRANCH  10  12
ENDBRANCH   5   8
TORSDOF 9
ENDMDL
MODEL      200
REMARK 921   NORMALIZED FREE ENERGY PREDICTED BY IDOCK:   -4.71 KCAL/MOL
REMARK 922        TOTAL FREE ENERGY PREDICTED BY IDOCK:   -8.69 KCAL/MOL
REMARK 923 INTER-LIGAND FREE ENERGY PREDICTED BY IDOCK:   -7.57 KCAL/MOL
REMARK 924 INTRA-LIGAND FREE ENERGY PREDICTED BY IDOCK:   -1.12 KCAL/MOL
REMARK 927      BINDING AFFINITY PREDICTED BY RF-SCORE:    0.00 PKD
ROOT
HETATM    1  C   UNL     1      -9.042  20.507  67.271  1.00  0.00    -0.473 C  
HETATM    2  C   UNL     1      -9.554  19.103  67.205  1.00  0.00    -0.314 A  
HETATM    3  N   UNL     1     -10.483  18.729  68.120  1.00  0.00    -0.352 NA 
HETATM    4  C   UNL     1     -10.896  17.438  68.049  1.00  0.00    -0.281 A  
HETATM    5  C   UNL     1     -10.408  16.553  67.100  1.00  0.00    -0.298 A  
HETATM    6  C   UNL     1      -9.080  18.209  66.245  1.00  0.00    -0.182 A  
HETATM    7  N   UNL     1      -9.487  16.916  66.162  1.00  0.00    -0.413 NA 
ENDROOT
BRANCH   5   8
HETATM    8  C   UNL     1     -10.870  15.137  67.118  1.00  0.00    -0.320 C  
HETATM    9  O   UNL     1     -10.558  14.387  68.037  1.00  0.00    -0.236 OA 
HETATM   10  N   UNL     1     -11.635  14.744  66.037  1.00  0.00    -0.326 N  
HETATM   11  H   UNL     1     -11.925  15.441  65.352  1.00  0.00     0.000 HD 
BRANCH  10  12
HETATM   12  C   UNL     1     -12.038  13.363  65.856  1.00  0.00    -0.439 C  
BRANCH  12  13
HETATM   13  C   UNL     1     -10.958  12.507  65.175  1.00  0.00    -0.332 C  
BRANCH  13  14
HETATM   14  C   UNL     1     -10.446  11.349  66.013  1.00  0.00    -0.305 A  
HETATM   15  C   UNL     1     -10.988  11.055  67.273  1.00  0.00    -0.356 A  
HETATM   16  C   UNL     1     -10.477  10.017  68.053  1.00  0.00    -0.260 A  
HETATM   17  C   UNL     1      -9.453   9.212  67.558  1.00  0.00    -0.139 A  
HETATM   18  C   UNL     1      -8.929   9.454  66.284  1.00  0.00    -0.189 A  
HETATM   19  C   UNL     1      -9.430  10.512  65.516  1.00  0.00    -0.265 A  
BRANCH  17  20
HETATM   20  S   UNL     1      -8.727   7.983  68.617  1.00  0.00    -0.130 S  
HETATM   21  O   UNL     1      -7.288   8.122  68.583  1.00  0.00    -0.085 OA 
HETATM   22  O   UNL     1      -9.346   6.713  68.289  1.00  0.00    -0.122 OA 
BRANCH  20  23
HETATM   23  N   UNL     1      -9.294   8.350  70.139  1.00  0.00    -0.162 N  
HETATM   24  H   UNL     1     -10.222   8.768  70.211  1.00  0.00     0.000 HD 
BRANCH  23  25
HETATM   25  C   UNL     1      -8.596   8.127  71.312  1.00  0.00    -0.137 C  
HETATM   26  O   UNL     1      -8.630   8.887  72.266  1.00  0.00    -0.397 OA 
BRANCH  25  27
HETATM   27  N   UNL     1      -7.881   6.962  71.306  1.00  0.00    -0.096 N  
HETATM   28  H   UNL     1      -7.043   6.888  70.731  1.00  0.00     0.000 HD 
BRANCH  27  29
HETATM   29  C   UNL     1      -8.305   5.823  72.115  1.00  0.00    -0.115 C  
HETATM   30  C   UNL     1      -9.823   5.622  72.046  1.00  0.00    -0.197 C  
HETATM   31  C   UNL     1     -10.289   5.013  70.725  1.00  0.00    -0.265 C  
HETATM   32  C   UNL     1      -9.534   3.730  70.398  1.00  0.00    -0.254 C  
HETATM   33  C   UNL     1      -8.025   3.948  70.408  1.00  0.00    -0.051 C  
HETATM   34  C   UNL     1      -7.551   4.542  71.733  1.00  0.00    -0.075 C  
ENDBRANCH  27  29
ENDBRANCH  25  27
ENDBRANCH  23  25
ENDBRANCH  20  23
ENDBRANCH  17  20
ENDBRANCH  13  14
ENDBRANCH  12  13
ENDBRANCH  10  12
ENDBRANCH   5   8
TORSDOF 9
ENDMDL
MODEL      201
REMARK 921   NORMALIZED FREE ENERGY PREDICTED BY IDOCK:   -4.71 KCAL/MOL
REMARK 922        TOTAL FREE ENERGY PREDICTED BY IDOCK:   -8.68 KCAL/MOL
REMARK 923 INTER-LIGAND FREE ENERGY PREDICTED BY IDOCK:   -6.97 KCAL/MOL
REMARK 924 INTRA-LIGAND FREE ENERGY PREDICTED BY IDOCK:   -1.71 KCAL/MOL
REMARK 927      BINDING AFFINITY PREDICTED BY RF-SCORE:    0.00 PKD
ROOT
HETATM    1  C   UNL     1     -12.570  13.823  65.031  1.00  0.00    -0.427 C  
HETATM    2  C   UNL     1     -11.606  12.733  64.686  1.00  0.00    -0.338 A  
HETATM    3  N   UNL     1     -10.912  12.852  63.526  1.00  0.00    -0.295 NA 
HETATM    4  C   UNL     1     -10.074  11.826  63.231  1.00  0.00    -0.420 A  
HETATM    5  C   UNL     1      -9.925  10.726  64.061  1.00  0.00    -0.342 A  
HETATM    6  C   UNL     1     -11.438  11.628  65.522  1.00  0.00    -0.102 A  
HETATM    7  N   UNL     1     -10.601  10.598  65.239  1.00  0.00    -0.185 NA 
ENDROOT
BRANCH   5   8
HETATM    8  C   UNL     1      -9.026   9.614  63.644  1.00  0.00    -0.216 C  
HETATM    9  O   UNL     1      -9.028   9.204  62.489  1.00  0.00    -0.224 OA 
HETATM   10  N   UNL     1      -8.229   9.085  64.641  1.00  0.00    -0.151 N  
HETATM   11  H   UNL     1      -8.218   9.528  65.559  1.00  0.00     0.000 HD 
BRANCH  10  12
HETATM   12  C   UNL     1      -7.406   7.913  64.411  1.00  0.00    -0.087 C  
BRANCH  12  13
HETATM   13  C   UNL     1      -7.593   6.828  65.484  1.00  0.00    -0.088 C  
BRANCH  13  14
HETATM   14  C   UNL     1      -8.420   7.257  66.682  1.00  0.00    -0.124 A  
HETATM   15  C   UNL     1      -9.806   7.457  66.587  1.00  0.00    -0.263 A  
HETATM   16  C   UNL     1     -10.548   7.896  67.685  1.00  0.00    -0.276 A  
HETATM   17  C   UNL     1      -9.925   8.083  68.916  1.00  0.00    -0.195 A  
HETATM   18  C   UNL     1      -8.554   7.843  69.049  1.00  0.00    -0.135 A  
HETATM   19  C   UNL     1      -7.811   7.426  67.939  1.00  0.00    -0.118 A  
BRANCH  17  20
HETATM   20  S   UNL     1     -10.858   8.770  70.265  1.00  0.00    -0.229 S  
HETATM   21  O   UNL     1      -9.944   9.346  71.226  1.00  0.00    -0.287 OA 
HETATM   22  O   UNL     1     -11.816   7.763  70.681  1.00  0.00    -0.239 OA 
BRANCH  20  23
HETATM   23  N   UNL     1     -11.780   9.970  69.571  1.00  0.00    -0.467 N  
HETATM   24  H   UNL     1     -12.651   9.697  69.116  1.00  0.00     0.000 HD 
BRANCH  23  25
HETATM   25  C   UNL     1     -11.447  11.313  69.568  1.00  0.00    -0.307 C  
HETATM   26  O   UNL     1     -12.267  12.206  69.704  1.00  0.00    -0.223 OA 
BRANCH  25  27
HETATM   27  N   UNL     1     -10.108  11.540  69.417  1.00  0.00    -0.408 N  
HETATM   28  H   UNL     1      -9.483  11.415  70.213  1.00  0.00     0.000 HD 
BRANCH  27  29
HETATM   29  C   UNL     1      -9.563  11.960  68.130  1.00  0.00    -0.195 C  
HETATM   30  C   UNL     1      -9.578  13.486  67.986  1.00  0.00    -0.221 C  
HETATM   31  C   UNL     1      -8.492  14.177  68.808  1.00  0.00    -0.069 C  
HETATM   32  C   UNL     1      -7.112  13.596  68.522  1.00  0.00    -0.107 C  
HETATM   33  C   UNL     1      -7.085  12.085  68.725  1.00  0.00    -0.111 C  
HETATM   34  C   UNL     1      -8.159  11.387  67.893  1.00  0.00    -0.126 C  
ENDBRANCH  27  29
ENDBRANCH  25  27
ENDBRANCH  23  25
ENDBRANCH  20  23
ENDBRANCH  17  20
ENDBRANCH  13  14
ENDBRANCH  12  13
ENDBRANCH  10  12
ENDBRANCH   5   8
TORSDOF 9
ENDMDL
MODEL      202
REMARK 921   NORMALIZED FREE ENERGY PREDICTED BY IDOCK:   -4.71 KCAL/MOL
REMARK 922        TOTAL FREE ENERGY PREDICTED BY IDOCK:   -8.68 KCAL/MOL
REMARK 923 INTER-LIGAND FREE ENERGY PREDICTED BY IDOCK:   -7.60 KCAL/MOL
REMARK 924 INTRA-LIGAND FREE ENERGY PREDICTED BY IDOCK:   -1.08 KCAL/MOL
REMARK 927      BINDING AFFINITY PREDICTED BY RF-SCORE:    0.00 PKD
ROOT
HETATM    1  C   UNL     1      -5.151  19.859  71.597  1.00  0.00    -0.398 C  
HETATM    2  C   UNL     1      -5.804  19.064  70.511  1.00  0.00    -0.126 A  
HETATM    3  N   UNL     1      -6.643  19.718  69.670  1.00  0.00    -0.347 NA 
HETATM    4  C   UNL     1      -7.242  18.955  68.721  1.00  0.00    -0.318 A  
HETATM    5  C   UNL     1      -7.011  17.592  68.608  1.00  0.00    -0.237 A  
HETATM    6  C   UNL     1      -5.567  17.695  70.381  1.00  0.00    -0.219 A  
HETATM    7  N   UNL     1      -6.158  16.921  69.435  1.00  0.00    -0.205 NA 
ENDROOT
BRANCH   5   8
HETATM    8  C   UNL     1      -7.746  16.811  67.575  1.00  0.00    -0.168 C  
HETATM    9  O   UNL     1      -7.140  16.158  66.733  1.00  0.00    -0.205 OA 
HETATM   10  N   UNL     1      -9.124  16.897  67.628  1.00  0.00    -0.222 N  
HETATM   11  H   UNL     1      -9.563  17.392  68.405  1.00  0.00     0.000 HD 
BRANCH  10  12
HETATM   12  C   UNL     1      -9.961  16.300  66.606  1.00  0.00    -0.264 C  
BRANCH  12  13
HETATM   13  C   UNL     1     -11.196  15.587  67.180  1.00  0.00    -0.204 C  
BRANCH  13  14
HETATM   14  C   UNL     1     -10.949  14.159  67.633  1.00  0.00    -0.278 A  
HETATM   15  C   UNL     1     -11.900  13.450  68.383  1.00  0.00    -0.401 A  
HETATM   16  C   UNL     1     -11.642  12.154  68.833  1.00  0.00    -0.377 A  
HETATM   17  C   UNL     1     -10.451  11.520  68.485  1.00  0.00    -0.208 A  
HETATM   18  C   UNL     1      -9.509  12.188  67.697  1.00  0.00    -0.187 A  
HETATM   19  C   UNL     1      -9.763  13.496  67.269  1.00  0.00    -0.236 A  
BRANCH  17  20
HETATM   20  S   UNL     1     -10.084   9.924  69.178  1.00  0.00    -0.214 S  
HETATM   21  O   UNL     1      -9.685   9.029  68.114  1.00  0.00    -0.146 OA 
HETATM   22  O   UNL     1     -11.186   9.572  70.053  1.00  0.00    -0.239 OA 
BRANCH  20  23
HETATM   23  N   UNL     1      -8.799  10.194  70.201  1.00  0.00    -0.341 N  
HETATM   24  H   UNL     1      -8.489  11.157  70.329  1.00  0.00     0.000 HD 
BRANCH  23  25
HETATM   25  C   UNL     1      -8.122   9.203  70.890  1.00  0.00    -0.162 C  
HETATM   26  O   UNL     1      -6.908   9.179  71.008  1.00  0.00    -0.083 OA 
BRANCH  25  27
HETATM   27  N   UNL     1      -8.948   8.266  71.444  1.00  0.00    -0.152 N  
HETATM   28  H   UNL     1      -9.180   7.424  70.918  1.00  0.00     0.000 HD 
BRANCH  27  29
HETATM   29  C   UNL     1      -9.502   8.457  72.781  1.00  0.00    -0.242 C  
HETATM   30  C   UNL     1     -10.914   7.870  72.892  1.00  0.00    -0.452 C  
HETATM   31  C   UNL     1     -10.925   6.345  72.973  1.00  0.00    -0.269 C  
HETATM   32  C   UNL     1     -10.011   5.833  74.081  1.00  0.00    -0.237 C  
HETATM   33  C   UNL     1      -8.592   6.371  73.934  1.00  0.00    -0.131 C  
HETATM   34  C   UNL     1      -8.574   7.897  73.867  1.00  0.00    -0.332 C  
ENDBRANCH  27  29
ENDBRANCH  25  27
ENDBRANCH  23  25
ENDBRANCH  20  23
ENDBRANCH  17  20
ENDBRANCH  13  14
ENDBRANCH  12  13
ENDBRANCH  10  12
ENDBRANCH   5   8
TORSDOF 9
ENDMDL
MODEL      203
REMARK 921   NORMALIZED FREE ENERGY PREDICTED BY IDOCK:   -4.70 KCAL/MOL
REMARK 922        TOTAL FREE ENERGY PREDICTED BY IDOCK:   -8.67 KCAL/MOL
REMARK 923 INTER-LIGAND FREE ENERGY PREDICTED BY IDOCK:   -7.89 KCAL/MOL
REMARK 924 INTRA-LIGAND FREE ENERGY PREDICTED BY IDOCK:   -0.78 KCAL/MOL
REMARK 927      BINDING AFFINITY PREDICTED BY RF-SCORE:    0.00 PKD
ROOT
HETATM    1  C   UNL     1     -10.360   3.536  63.887  1.00  0.00    -0.244 C  
HETATM    2  C   UNL     1      -9.781   4.319  65.022  1.00  0.00    -0.189 A  
HETATM    3  N   UNL     1      -8.437   4.504  65.038  1.00  0.00    -0.123 NA 
HETATM    4  C   UNL     1      -7.947   5.190  66.102  1.00  0.00    -0.104 A  
HETATM    5  C   UNL     1      -8.763   5.680  67.110  1.00  0.00    -0.108 A  
HETATM    6  C   UNL     1     -10.596   4.829  66.034  1.00  0.00    -0.254 A  
HETATM    7  N   UNL     1     -10.118   5.519  67.101  1.00  0.00    -0.167 NA 
ENDROOT
BRANCH   5   8
HETATM    8  C   UNL     1      -8.148   6.377  68.273  1.00  0.00    -0.113 C  
HETATM    9  O   UNL     1      -7.664   7.497  68.150  1.00  0.00    -0.114 OA 
HETATM   10  N   UNL     1      -8.145   5.670  69.461  1.00  0.00    -0.101 N  
HETATM   11  H   UNL     1      -8.637   4.778  69.511  1.00  0.00     0.000 HD 
BRANCH  10  12
HETATM   12  C   UNL     1      -7.460   6.169  70.637  1.00  0.00    -0.087 C  
BRANCH  12  13
HETATM   13  C   UNL     1      -8.371   6.250  71.873  1.00  0.00    -0.117 C  
BRANCH  13  14
HETATM   14  C   UNL     1      -9.517   7.239  71.753  1.00  0.00    -0.162 A  
HETATM   15  C   UNL     1     -10.810   6.924  72.196  1.00  0.00    -0.256 A  
HETATM   16  C   UNL     1     -11.865   7.825  72.038  1.00  0.00    -0.351 A  
HETATM   17  C   UNL     1     -11.630   9.083  71.487  1.00  0.00    -0.343 A  
HETATM   18  C   UNL     1     -10.340   9.439  71.083  1.00  0.00    -0.377 A  
HETATM   19  C   UNL     1      -9.291   8.522  71.223  1.00  0.00    -0.261 A  
BRANCH  17  20
HETATM   20  S   UNL     1     -13.007  10.162  71.171  1.00  0.00    -0.396 S  
HETATM   21  O   UNL     1     -12.916  11.312  72.043  1.00  0.00    -0.445 OA 
HETATM   22  O   UNL     1     -14.203   9.342  71.168  1.00  0.00    -0.149 OA 
BRANCH  20  23
HETATM   23  N   UNL     1     -12.816  10.637  69.587  1.00  0.00    -0.333 N  
HETATM   24  H   UNL     1     -13.223  10.045  68.862  1.00  0.00     0.000 HD 
BRANCH  23  25
HETATM   25  C   UNL     1     -12.143  11.776  69.184  1.00  0.00    -0.228 C  
HETATM   26  O   UNL     1     -11.921  12.720  69.925  1.00  0.00    -0.321 OA 
BRANCH  25  27
HETATM   27  N   UNL     1     -11.733  11.733  67.881  1.00  0.00    -0.301 N  
HETATM   28  H   UNL     1     -11.919  10.901  67.322  1.00  0.00     0.000 HD 
BRANCH  27  29
HETATM   29  C   UNL     1     -11.033  12.865  67.282  1.00  0.00    -0.261 C  
HETATM   30  C   UNL     1      -9.965  12.400  66.286  1.00  0.00    -0.259 C  
HETATM   31  C   UNL     1     -10.551  11.906  64.964  1.00  0.00    -0.335 C  
HETATM   32  C   UNL     1     -11.491  12.934  64.345  1.00  0.00    -0.405 C  
HETATM   33  C   UNL     1     -12.589  13.350  65.318  1.00  0.00    -0.518 C  
HETATM   34  C   UNL     1     -12.008  13.860  66.636  1.00  0.00    -0.474 C  
ENDBRANCH  27  29
ENDBRANCH  25  27
ENDBRANCH  23  25
ENDBRANCH  20  23
ENDBRANCH  17  20
ENDBRANCH  13  14
ENDBRANCH  12  13
ENDBRANCH  10  12
ENDBRANCH   5   8
TORSDOF 9
ENDMDL
MODEL      204
REMARK 921   NORMALIZED FREE ENERGY PREDICTED BY IDOCK:   -4.70 KCAL/MOL
REMARK 922        TOTAL FREE ENERGY PREDICTED BY IDOCK:   -8.66 KCAL/MOL
REMARK 923 INTER-LIGAND FREE ENERGY PREDICTED BY IDOCK:   -6.52 KCAL/MOL
REMARK 924 INTRA-LIGAND FREE ENERGY PREDICTED BY IDOCK:   -2.14 KCAL/MOL
REMARK 927      BINDING AFFINITY PREDICTED BY RF-SCORE:    0.00 PKD
ROOT
HETATM    1  C   UNL     1     -10.596   6.067  73.663  1.00  0.00    -0.281 C  
HETATM    2  C   UNL     1     -10.910   7.283  72.850  1.00  0.00    -0.337 A  
HETATM    3  N   UNL     1     -12.203   7.483  72.492  1.00  0.00    -0.130 NA 
HETATM    4  C   UNL     1     -12.442   8.578  71.727  1.00  0.00    -0.342 A  
HETATM    5  C   UNL     1     -11.433   9.446  71.336  1.00  0.00    -0.379 A  
HETATM    6  C   UNL     1      -9.904   8.170  72.465  1.00  0.00    -0.293 A  
HETATM    7  N   UNL     1     -10.131   9.271  71.702  1.00  0.00    -0.267 NA 
ENDROOT
BRANCH   5   8
HETATM    8  C   UNL     1     -11.764  10.597  70.452  1.00  0.00    -0.353 C  
HETATM    9  O   UNL     1     -12.910  11.028  70.384  1.00  0.00    -0.252 OA 
HETATM   10  N   UNL     1     -10.710  11.111  69.719  1.00  0.00    -0.462 N  
HETATM   11  H   UNL     1      -9.768  10.757  69.887  1.00  0.00     0.000 HD 
BRANCH  10  12
HETATM   12  C   UNL     1     -10.913  12.140  68.719  1.00  0.00    -0.232 C  
BRANCH  12  13
HETATM   13  C   UNL     1     -11.343  11.577  67.355  1.00  0.00    -0.367 C  
BRANCH  13  14
HETATM   14  C   UNL     1     -10.313  10.685  66.685  1.00  0.00    -0.297 A  
HETATM   15  C   UNL     1      -9.231  11.220  65.968  1.00  0.00    -0.224 A  
HETATM   16  C   UNL     1      -8.317  10.390  65.317  1.00  0.00    -0.166 A  
HETATM   17  C   UNL     1      -8.434   9.006  65.425  1.00  0.00    -0.160 A  
HETATM   18  C   UNL     1      -9.474   8.449  66.175  1.00  0.00    -0.263 A  
HETATM   19  C   UNL     1     -10.402   9.287  66.805  1.00  0.00    -0.296 A  
BRANCH  17  20
HETATM   20  S   UNL     1      -7.342   7.967  64.482  1.00  0.00    -0.095 S  
HETATM   21  O   UNL     1      -6.511   8.799  63.639  1.00  0.00    -0.087 OA 
HETATM   22  O   UNL     1      -8.149   6.913  63.898  1.00  0.00    -0.095 OA 
BRANCH  20  23
HETATM   23  N   UNL     1      -6.401   7.200  65.621  1.00  0.00    -0.040 N  
HETATM   24  H   UNL     1      -5.630   7.726  66.032  1.00  0.00     0.000 HD 
BRANCH  23  25
HETATM   25  C   UNL     1      -6.592   5.898  66.049  1.00  0.00    -0.047 C  
HETATM   26  O   UNL     1      -5.703   5.063  66.072  1.00  0.00    -0.017 OA 
BRANCH  25  27
HETATM   27  N   UNL     1      -7.869   5.645  66.466  1.00  0.00    -0.100 N  
HETATM   28  H   UNL     1      -8.656   6.002  65.924  1.00  0.00     0.000 HD 
BRANCH  27  29
HETATM   29  C   UNL     1      -8.118   4.870  67.677  1.00  0.00    -0.094 C  
HETATM   30  C   UNL     1      -7.781   5.676  68.937  1.00  0.00    -0.089 C  
HETATM   31  C   UNL     1      -8.822   6.745  69.261  1.00  0.00    -0.137 C  
HETATM   32  C   UNL     1     -10.230   6.163  69.323  1.00  0.00    -0.251 C  
HETATM   33  C   UNL     1     -10.584   5.413  68.043  1.00  0.00    -0.157 C  
HETATM   34  C   UNL     1      -9.555   4.331  67.722  1.00  0.00    -0.210 C  
ENDBRANCH  27  29
ENDBRANCH  25  27
ENDBRANCH  23  25
ENDBRANCH  20  23
ENDBRANCH  17  20
ENDBRANCH  13  14
ENDBRANCH  12  13
ENDBRANCH  10  12
ENDBRANCH   5   8
TORSDOF 9
ENDMDL
MODEL      205
REMARK 921   NORMALIZED FREE ENERGY PREDICTED BY IDOCK:   -4.69 KCAL/MOL
REMARK 922        TOTAL FREE ENERGY PREDICTED BY IDOCK:   -8.66 KCAL/MOL
REMARK 923 INTER-LIGAND FREE ENERGY PREDICTED BY IDOCK:   -6.57 KCAL/MOL
REMARK 924 INTRA-LIGAND FREE ENERGY PREDICTED BY IDOCK:   -2.09 KCAL/MOL
REMARK 927      BINDING AFFINITY PREDICTED BY RF-SCORE:    0.00 PKD
ROOT
HETATM    1  C   UNL     1      -9.247   2.192  68.214  1.00  0.00    -0.238 C  
HETATM    2  C   UNL     1      -9.026   3.590  67.732  1.00  0.00    -0.140 A  
HETATM    3  N   UNL     1      -8.179   4.375  68.443  1.00  0.00    -0.085 NA 
HETATM    4  C   UNL     1      -8.032   5.647  67.994  1.00  0.00    -0.097 A  
HETATM    5  C   UNL     1      -8.699   6.120  66.874  1.00  0.00    -0.109 A  
HETATM    6  C   UNL     1      -9.681   4.072  66.597  1.00  0.00    -0.192 A  
HETATM    7  N   UNL     1      -9.540   5.341  66.136  1.00  0.00    -0.158 NA 
ENDROOT
BRANCH   5   8
HETATM    8  C   UNL     1      -8.528   7.544  66.472  1.00  0.00    -0.131 C  
HETATM    9  O   UNL     1      -8.474   7.860  65.288  1.00  0.00    -0.147 OA 
HETATM   10  N   UNL     1      -8.418   8.450  67.510  1.00  0.00    -0.128 N  
HETATM   11  H   UNL     1      -8.554   8.128  68.468  1.00  0.00     0.000 HD 
BRANCH  10  12
HETATM   12  C   UNL     1      -8.113   9.846  67.268  1.00  0.00    -0.113 C  
BRANCH  12  13
HETATM   13  C   UNL     1      -8.202  10.710  68.537  1.00  0.00    -0.128 C  
BRANCH  13  14
HETATM   14  C   UNL     1      -8.514  12.174  68.287  1.00  0.00    -0.176 A  
HETATM   15  C   UNL     1      -9.640  12.793  68.849  1.00  0.00     0.220 A  
HETATM   16  C   UNL     1      -9.941  14.129  68.574  1.00  0.00    -0.235 A  
HETATM   17  C   UNL     1      -9.083  14.886  67.779  1.00  0.00    -0.185 A  
HETATM   18  C   UNL     1      -7.928  14.305  67.246  1.00  0.00    -0.191 A  
HETATM   19  C   UNL     1      -7.645  12.959  67.507  1.00  0.00    -0.164 A  
BRANCH  17  20
HETATM   20  S   UNL     1      -9.553  16.541  67.331  1.00  0.00    -0.241 S  
HETATM   21  O   UNL     1      -8.486  17.448  67.694  1.00  0.00    -0.208 OA 
HETATM   22  O   UNL     1     -10.896  16.757  67.833  1.00  0.00    -0.348 OA 
BRANCH  20  23
HETATM   23  N   UNL     1      -9.720  16.499  65.676  1.00  0.00    -0.181 N  
HETATM   24  H   UNL     1      -8.893  16.690  65.110  1.00  0.00     0.000 HD 
BRANCH  23  25
HETATM   25  C   UNL     1     -10.902  16.224  65.013  1.00  0.00    -0.320 C  
HETATM   26  O   UNL     1     -11.298  16.866  64.053  1.00  0.00    -1.109 OA 
BRANCH  25  27
HETATM   27  N   UNL     1     -11.574  15.149  65.524  1.00  0.00    -0.214 N  
HETATM   28  H   UNL     1     -11.785  15.114  66.521  1.00  0.00     0.000 HD 
BRANCH  27  29
HETATM   29  C   UNL     1     -11.993  14.051  64.658  1.00  0.00    -0.430 C  
HETATM   30  C   UNL     1     -10.794  13.402  63.957  1.00  0.00    -0.210 C  
HETATM   31  C   UNL     1      -9.964  12.516  64.884  1.00  0.00    -0.190 C  
HETATM   32  C   UNL     1     -10.828  11.483  65.599  1.00  0.00    -0.310 C  
HETATM   33  C   UNL     1     -11.985  12.137  66.345  1.00  0.00    -0.201 C  
HETATM   34  C   UNL     1     -12.828  13.012  65.419  1.00  0.00    -0.208 C  
ENDBRANCH  27  29
ENDBRANCH  25  27
ENDBRANCH  23  25
ENDBRANCH  20  23
ENDBRANCH  17  20
ENDBRANCH  13  14
ENDBRANCH  12  13
ENDBRANCH  10  12
ENDBRANCH   5   8
TORSDOF 9
ENDMDL
MODEL      206
REMARK 921   NORMALIZED FREE ENERGY PREDICTED BY IDOCK:   -4.69 KCAL/MOL
REMARK 922        TOTAL FREE ENERGY PREDICTED BY IDOCK:   -8.65 KCAL/MOL
REMARK 923 INTER-LIGAND FREE ENERGY PREDICTED BY IDOCK:   -6.72 KCAL/MOL
REMARK 924 INTRA-LIGAND FREE ENERGY PREDICTED BY IDOCK:   -1.93 KCAL/MOL
REMARK 927      BINDING AFFINITY PREDICTED BY RF-SCORE:    0.00 PKD
ROOT
HETATM    1  C   UNL     1      -9.271   3.130  68.806  1.00  0.00    -0.227 C  
HETATM    2  C   UNL     1      -8.435   4.140  68.088  1.00  0.00    -0.093 A  
HETATM    3  N   UNL     1      -7.102   4.149  68.342  1.00  0.00    -0.054 NA 
HETATM    4  C   UNL     1      -6.383   5.102  67.697  1.00  0.00    -0.040 A  
HETATM    5  C   UNL     1      -6.966   6.010  66.827  1.00  0.00    -0.068 A  
HETATM    6  C   UNL     1      -9.010   5.049  67.198  1.00  0.00    -0.112 A  
HETATM    7  N   UNL     1      -8.301   6.005  66.545  1.00  0.00    -0.111 NA 
ENDROOT
BRANCH   5   8
HETATM    8  C   UNL     1      -6.121   7.062  66.197  1.00  0.00    -0.036 C  
HETATM    9  O   UNL     1      -5.501   6.835  65.164  1.00  0.00    -0.025 OA 
HETATM   10  N   UNL     1      -6.076   8.272  66.863  1.00  0.00    -0.053 N  
HETATM   11  H   UNL     1      -6.680   8.418  67.672  1.00  0.00     0.000 HD 
BRANCH  10  12
HETATM   12  C   UNL     1      -5.190   9.338  66.439  1.00  0.00    -0.040 C  
BRANCH  12  13
HETATM   13  C   UNL     1      -5.927  10.486  65.731  1.00  0.00    -0.129 C  
BRANCH  13  14
HETATM   14  C   UNL     1      -7.232  10.901  66.385  1.00  0.00    -0.140 A  
HETATM   15  C   UNL     1      -8.475  10.576  65.820  1.00  0.00    -0.177 A  
HETATM   16  C   UNL     1      -9.667  11.002  66.407  1.00  0.00    -0.235 A  
HETATM   17  C   UNL     1      -9.638  11.711  67.606  1.00  0.00    -0.181 A  
HETATM   18  C   UNL     1      -8.414  12.005  68.215  1.00  0.00    -0.167 A  
HETATM   19  C   UNL     1      -7.221  11.595  67.608  1.00  0.00    -0.107 A  
BRANCH  17  20
HETATM   20  S   UNL     1     -11.156  12.360  68.266  1.00  0.00    -0.264 S  
HETATM   21  O   UNL     1     -12.271  11.705  67.617  1.00  0.00    -0.544 OA 
HETATM   22  O   UNL     1     -11.049  13.806  68.248  1.00  0.00    -0.238 OA 
BRANCH  20  23
HETATM   23  N   UNL     1     -11.123  11.953  69.880  1.00  0.00    -0.466 N  
HETATM   24  H   UNL     1     -10.422  12.402  70.468  1.00  0.00     0.000 HD 
BRANCH  23  25
HETATM   25  C   UNL     1     -11.979  11.047  70.479  1.00  0.00    -0.379 C  
HETATM   26  O   UNL     1     -12.820  11.364  71.304  1.00  0.00    -0.403 OA 
BRANCH  25  27
HETATM   27  N   UNL     1     -11.806   9.764  70.041  1.00  0.00    -0.449 N  
HETATM   28  H   UNL     1     -12.570   9.286  69.564  1.00  0.00     0.000 HD 
BRANCH  27  29
HETATM   29  C   UNL     1     -10.538   9.070  70.249  1.00  0.00    -0.217 C  
HETATM   30  C   UNL     1     -10.244   8.876  71.740  1.00  0.00    -0.414 C  
HETATM   31  C   UNL     1     -11.089   7.776  72.381  1.00  0.00    -0.379 C  
HETATM   32  C   UNL     1     -10.988   6.465  71.609  1.00  0.00    -0.302 C  
HETATM   33  C   UNL     1     -11.340   6.651  70.137  1.00  0.00    -0.440 C  
HETATM   34  C   UNL     1     -10.486   7.738  69.487  1.00  0.00    -0.225 C  
ENDBRANCH  27  29
ENDBRANCH  25  27
ENDBRANCH  23  25
ENDBRANCH  20  23
ENDBRANCH  17  20
ENDBRANCH  13  14
ENDBRANCH  12  13
ENDBRANCH  10  12
ENDBRANCH   5   8
TORSDOF 9
ENDMDL
MODEL      207
REMARK 921   NORMALIZED FREE ENERGY PREDICTED BY IDOCK:   -4.67 KCAL/MOL
REMARK 922        TOTAL FREE ENERGY PREDICTED BY IDOCK:   -8.62 KCAL/MOL
REMARK 923 INTER-LIGAND FREE ENERGY PREDICTED BY IDOCK:   -7.10 KCAL/MOL
REMARK 924 INTRA-LIGAND FREE ENERGY PREDICTED BY IDOCK:   -1.51 KCAL/MOL
REMARK 927      BINDING AFFINITY PREDICTED BY RF-SCORE:    0.00 PKD
ROOT
HETATM    1  C   UNL     1     -10.947  19.628  65.629  1.00  0.00    -0.232 C  
HETATM    2  C   UNL     1     -10.616  18.177  65.777  1.00  0.00    -0.175 A  
HETATM    3  N   UNL     1     -11.211  17.306  64.925  1.00  0.00    -0.694 NA 
HETATM    4  C   UNL     1     -10.913  15.996  65.114  1.00  0.00    -0.348 A  
HETATM    5  C   UNL     1     -10.048  15.568  66.110  1.00  0.00    -0.309 A  
HETATM    6  C   UNL     1      -9.736  17.738  66.767  1.00  0.00    -0.309 A  
HETATM    7  N   UNL     1      -9.427  16.430  66.965  1.00  0.00    -0.225 NA 
ENDROOT
BRANCH   5   8
HETATM    8  C   UNL     1      -9.810  14.109  66.291  1.00  0.00    -0.306 C  
HETATM    9  O   UNL     1      -9.548  13.648  67.397  1.00  0.00    -0.215 OA 
HETATM   10  N   UNL     1      -9.884  13.344  65.143  1.00  0.00    -0.556 N  
HETATM   11  H   UNL     1     -10.187  13.780  64.272  1.00  0.00     0.000 HD 
BRANCH  10  12
HETATM   12  C   UNL     1      -9.542  11.935  65.147  1.00  0.00    -0.114 C  
BRANCH  12  13
HETATM   13  C   UNL     1     -10.742  11.026  65.457  1.00  0.00    -0.218 C  
BRANCH  13  14
HETATM   14  C   UNL     1     -10.709  10.376  66.829  1.00  0.00    -0.235 A  
HETATM   15  C   UNL     1      -9.961   9.215  67.075  1.00  0.00    -0.294 A  
HETATM   16  C   UNL     1      -9.975   8.602  68.329  1.00  0.00    -0.207 A  
HETATM   17  C   UNL     1     -10.690   9.177  69.378  1.00  0.00    -0.198 A  
HETATM   18  C   UNL     1     -11.403  10.361  69.170  1.00  0.00    -0.286 A  
HETATM   19  C   UNL     1     -11.404  10.958  67.904  1.00  0.00    -0.380 A  
BRANCH  17  20
HETATM   20  S   UNL     1     -10.804   8.311  70.926  1.00  0.00    -0.236 S  
HETATM   21  O   UNL     1     -12.125   7.734  71.048  1.00  0.00    -0.302 OA 
HETATM   22  O   UNL     1     -10.298   9.200  71.954  1.00  0.00    -0.335 OA 
BRANCH  20  23
HETATM   23  N   UNL     1      -9.667   7.100  70.817  1.00  0.00    -0.172 N  
HETATM   24  H   UNL     1      -9.887   6.294  70.232  1.00  0.00     0.000 HD 
BRANCH  23  25
HETATM   25  C   UNL     1      -8.445   7.109  71.465  1.00  0.00    -0.115 C  
HETATM   26  O   UNL     1      -8.011   6.155  72.090  1.00  0.00    -0.107 OA 
BRANCH  25  27
HETATM   27  N   UNL     1      -7.761   8.283  71.318  1.00  0.00    -0.090 N  
HETATM   28  H   UNL     1      -8.053   9.106  71.844  1.00  0.00     0.000 HD 
BRANCH  27  29
HETATM   29  C   UNL     1      -6.617   8.372  70.415  1.00  0.00    -0.036 C  
HETATM   30  C   UNL     1      -6.880   9.360  69.273  1.00  0.00    -0.049 C  
HETATM   31  C   UNL     1      -6.801  10.820  69.713  1.00  0.00    -0.151 C  
HETATM   32  C   UNL     1      -5.491  11.123  70.432  1.00  0.00    -0.112 C  
HETATM   33  C   UNL     1      -5.261  10.176  71.605  1.00  0.00    -0.061 C  
HETATM   34  C   UNL     1      -5.324   8.714  71.168  1.00  0.00    -0.033 C  
ENDBRANCH  27  29
ENDBRANCH  25  27
ENDBRANCH  23  25
ENDBRANCH  20  23
ENDBRANCH  17  20
ENDBRANCH  13  14
ENDBRANCH  12  13
ENDBRANCH  10  12
ENDBRANCH   5   8
TORSDOF 9
ENDMDL
MODEL      208
REMARK 921   NORMALIZED FREE ENERGY PREDICTED BY IDOCK:   -4.66 KCAL/MOL
REMARK 922        TOTAL FREE ENERGY PREDICTED BY IDOCK:   -8.61 KCAL/MOL
REMARK 923 INTER-LIGAND FREE ENERGY PREDICTED BY IDOCK:   -6.84 KCAL/MOL
REMARK 924 INTRA-LIGAND FREE ENERGY PREDICTED BY IDOCK:   -1.77 KCAL/MOL
REMARK 927      BINDING AFFINITY PREDICTED BY RF-SCORE:    0.00 PKD
ROOT
HETATM    1  C   UNL     1     -11.870  12.277  63.871  1.00  0.00    -0.553 C  
HETATM    2  C   UNL     1     -10.656  11.407  63.958  1.00  0.00    -0.383 A  
HETATM    3  N   UNL     1     -10.418  10.775  65.134  1.00  0.00    -0.265 NA 
HETATM    4  C   UNL     1      -9.289  10.024  65.184  1.00  0.00    -0.245 A  
HETATM    5  C   UNL     1      -8.430   9.900  64.102  1.00  0.00    -0.175 A  
HETATM    6  C   UNL     1      -9.794  11.265  62.870  1.00  0.00    -0.285 A  
HETATM    7  N   UNL     1      -8.663  10.514  62.906  1.00  0.00    -0.194 NA 
ENDROOT
BRANCH   5   8
HETATM    8  C   UNL     1      -7.183   9.101  64.248  1.00  0.00    -0.099 C  
HETATM    9  O   UNL     1      -6.111   9.528  63.833  1.00  0.00    -0.088 OA 
HETATM   10  N   UNL     1      -7.330   7.867  64.852  1.00  0.00    -0.069 N  
HETATM   11  H   UNL     1      -8.235   7.611  65.247  1.00  0.00     0.000 HD 
BRANCH  10  12
HETATM   12  C   UNL     1      -6.229   6.929  64.938  1.00  0.00    -0.036 C  
BRANCH  12  13
HETATM   13  C   UNL     1      -5.570   6.900  66.327  1.00  0.00    -0.022 C  
BRANCH  13  14
HETATM   14  C   UNL     1      -6.488   6.463  67.455  1.00  0.00    -0.049 A  
HETATM   15  C   UNL     1      -7.142   5.222  67.434  1.00  0.00    -0.067 A  
HETATM   16  C   UNL     1      -8.020   4.852  68.454  1.00  0.00    -0.085 A  
HETATM   17  C   UNL     1      -8.211   5.694  69.548  1.00  0.00    -0.103 A  
HETATM   18  C   UNL     1      -7.533   6.915  69.616  1.00  0.00    -0.099 A  
HETATM   19  C   UNL     1      -6.673   7.291  68.577  1.00  0.00    -0.057 A  
BRANCH  17  20
HETATM   20  S   UNL     1      -9.432   5.267  70.767  1.00  0.00    -0.177 S  
HETATM   21  O   UNL     1      -9.311   6.169  71.892  1.00  0.00    -0.151 OA 
HETATM   22  O   UNL     1      -9.352   3.833  70.971  1.00  0.00    -0.122 OA 
BRANCH  20  23
HETATM   23  N   UNL     1     -10.892   5.507  70.005  1.00  0.00    -0.294 N  
HETATM   24  H   UNL     1     -11.629   4.819  70.165  1.00  0.00     0.000 HD 
BRANCH  23  25
HETATM   25  C   UNL     1     -11.176   6.572  69.170  1.00  0.00    -0.303 C  
HETATM   26  O   UNL     1     -11.105   6.507  67.953  1.00  0.00    -0.303 OA 
BRANCH  25  27
HETATM   27  N   UNL     1     -11.567   7.698  69.839  1.00  0.00    -0.468 N  
HETATM   28  H   UNL     1     -12.540   7.801  70.126  1.00  0.00     0.000 HD 
BRANCH  27  29
HETATM   29  C   UNL     1     -10.606   8.753  70.147  1.00  0.00    -0.221 C  
HETATM   30  C   UNL     1     -10.342   9.643  68.927  1.00  0.00    -0.220 C  
HETATM   31  C   UNL     1     -11.488  10.606  68.627  1.00  0.00    -0.332 C  
HETATM   32  C   UNL     1     -11.871  11.428  69.853  1.00  0.00    -0.435 C  
HETATM   33  C   UNL     1     -12.192  10.537  71.048  1.00  0.00    -0.505 C  
HETATM   34  C   UNL     1     -11.042   9.582  71.363  1.00  0.00    -0.438 C  
ENDBRANCH  27  29
ENDBRANCH  25  27
ENDBRANCH  23  25
ENDBRANCH  20  23
ENDBRANCH  17  20
ENDBRANCH  13  14
ENDBRANCH  12  13
ENDBRANCH  10  12
ENDBRANCH   5   8
TORSDOF 9
ENDMDL
MODEL      209
REMARK 921   NORMALIZED FREE ENERGY PREDICTED BY IDOCK:   -4.64 KCAL/MOL
REMARK 922        TOTAL FREE ENERGY PREDICTED BY IDOCK:   -8.58 KCAL/MOL
REMARK 923 INTER-LIGAND FREE ENERGY PREDICTED BY IDOCK:   -8.23 KCAL/MOL
REMARK 924 INTRA-LIGAND FREE ENERGY PREDICTED BY IDOCK:   -0.35 KCAL/MOL
REMARK 927      BINDING AFFINITY PREDICTED BY RF-SCORE:    0.00 PKD
ROOT
HETATM    1  C   UNL     1      -6.124   2.339  69.802  1.00  0.00    -0.024 C  
HETATM    2  C   UNL     1      -7.151   3.132  70.547  1.00  0.00    -0.034 A  
HETATM    3  N   UNL     1      -8.446   2.996  70.168  1.00  0.00    -0.051 NA 
HETATM    4  C   UNL     1      -9.343   3.757  70.844  1.00  0.00    -0.145 A  
HETATM    5  C   UNL     1      -8.968   4.617  71.864  1.00  0.00    -0.126 A  
HETATM    6  C   UNL     1      -6.784   3.989  71.585  1.00  0.00    -0.026 A  
HETATM    7  N   UNL     1      -7.673   4.754  72.270  1.00  0.00    -0.088 NA 
ENDROOT
BRANCH   5   8
HETATM    8  C   UNL     1     -10.002   5.461  72.524  1.00  0.00    -0.168 C  
HETATM    9  O   UNL     1     -11.008   4.955  73.011  1.00  0.00    -0.245 OA 
HETATM   10  N   UNL     1      -9.755   6.820  72.525  1.00  0.00    -0.154 N  
HETATM   11  H   UNL     1      -8.860   7.164  72.176  1.00  0.00     0.000 HD 
BRANCH  10  12
HETATM   12  C   UNL     1     -10.737   7.769  73.011  1.00  0.00    -0.384 C  
BRANCH  12  13
HETATM   13  C   UNL     1     -11.927   7.946  72.053  1.00  0.00    -0.364 C  
BRANCH  13  14
HETATM   14  C   UNL     1     -11.936   9.258  71.289  1.00  0.00    -0.414 A  
HETATM   15  C   UNL     1     -11.129   9.457  70.159  1.00  0.00    -0.277 A  
HETATM   16  C   UNL     1     -11.112  10.683  69.492  1.00  0.00    -0.328 A  
HETATM   17  C   UNL     1     -11.951  11.714  69.909  1.00  0.00    -0.340 A  
HETATM   18  C   UNL     1     -12.801  11.524  71.003  1.00  0.00    -0.358 A  
HETATM   19  C   UNL     1     -12.796  10.299  71.682  1.00  0.00    -0.568 A  
BRANCH  17  20
HETATM   20  S   UNL     1     -11.817  13.308  69.133  1.00  0.00    -0.317 S  
HETATM   21  O   UNL     1     -12.203  14.329  70.082  1.00  0.00    -0.307 OA 
HETATM   22  O   UNL     1     -12.484  13.217  67.848  1.00  0.00    -0.026 OA 
BRANCH  20  23
HETATM   23  N   UNL     1     -10.202  13.462  68.762  1.00  0.00    -0.396 N  
HETATM   24  H   UNL     1      -9.626  14.033  69.381  1.00  0.00     0.000 HD 
BRANCH  23  25
HETATM   25  C   UNL     1      -9.585  12.872  67.674  1.00  0.00    -0.196 C  
HETATM   26  O   UNL     1      -8.427  12.490  67.686  1.00  0.00    -0.150 OA 
BRANCH  25  27
HETATM   27  N   UNL     1     -10.408  12.740  66.590  1.00  0.00    -0.239 N  
HETATM   28  H   UNL     1     -11.303  12.262  66.692  1.00  0.00     0.000 HD 
BRANCH  27  29
HETATM   29  C   UNL     1     -10.018  13.274  65.289  1.00  0.00    -0.173 C  
HETATM   30  C   UNL     1     -10.070  12.195  64.202  1.00  0.00    -0.335 C  
HETATM   31  C   UNL     1     -11.493  11.847  63.769  1.00  0.00    -0.542 C  
HETATM   32  C   UNL     1     -12.281  13.090  63.370  1.00  0.00    -0.552 C  
HETATM   33  C   UNL     1     -12.278  14.138  64.477  1.00  0.00    -0.468 C  
HETATM   34  C   UNL     1     -10.857  14.501  64.904  1.00  0.00    -0.436 C  
ENDBRANCH  27  29
ENDBRANCH  25  27
ENDBRANCH  23  25
ENDBRANCH  20  23
ENDBRANCH  17  20
ENDBRANCH  13  14
ENDBRANCH  12  13
ENDBRANCH  10  12
ENDBRANCH   5   8
TORSDOF 9
ENDMDL
MODEL      210
REMARK 921   NORMALIZED FREE ENERGY PREDICTED BY IDOCK:   -4.62 KCAL/MOL
REMARK 922        TOTAL FREE ENERGY PREDICTED BY IDOCK:   -8.54 KCAL/MOL
REMARK 923 INTER-LIGAND FREE ENERGY PREDICTED BY IDOCK:   -6.61 KCAL/MOL
REMARK 924 INTRA-LIGAND FREE ENERGY PREDICTED BY IDOCK:   -1.94 KCAL/MOL
REMARK 927      BINDING AFFINITY PREDICTED BY RF-SCORE:    0.00 PKD
ROOT
HETATM    1  C   UNL     1      -7.568   7.091  66.413  1.00  0.00    -0.088 C  
HETATM    2  C   UNL     1      -7.144   8.253  67.254  1.00  0.00    -0.079 A  
HETATM    3  N   UNL     1      -7.502   8.247  68.562  1.00  0.00    -0.093 NA 
HETATM    4  C   UNL     1      -7.129   9.334  69.283  1.00  0.00    -0.057 A  
HETATM    5  C   UNL     1      -6.420  10.387  68.725  1.00  0.00    -0.051 A  
HETATM    6  C   UNL     1      -6.418   9.311  66.705  1.00  0.00    -0.067 A  
HETATM    7  N   UNL     1      -6.036  10.403  67.416  1.00  0.00    -0.052 NA 
ENDROOT
BRANCH   5   8
HETATM    8  C   UNL     1      -6.092  11.572  69.566  1.00  0.00    -0.100 C  
HETATM    9  O   UNL     1      -6.351  11.583  70.764  1.00  0.00    -0.256 OA 
HETATM   10  N   UNL     1      -5.509  12.634  68.901  1.00  0.00    -0.062 N  
HETATM   11  H   UNL     1      -5.247  12.525  67.922  1.00  0.00     0.000 HD 
BRANCH  10  12
HETATM   12  C   UNL     1      -5.261  13.899  69.565  1.00  0.00    -0.083 C  
BRANCH  12  13
HETATM   13  C   UNL     1      -5.995  15.078  68.905  1.00  0.00    -0.089 C  
BRANCH  13  14
HETATM   14  C   UNL     1      -7.433  14.789  68.513  1.00  0.00    -0.117 A  
HETATM   15  C   UNL     1      -8.493  14.979  69.412  1.00  0.00    -0.125 A  
HETATM   16  C   UNL     1      -9.806  14.666  69.054  1.00  0.00    -0.178 A  
HETATM   17  C   UNL     1     -10.088  14.216  67.766  1.00  0.00    -0.239 A  
HETATM   18  C   UNL     1      -9.055  14.066  66.836  1.00  0.00    -0.262 A  
HETATM   19  C   UNL     1      -7.738  14.359  67.209  1.00  0.00    -0.164 A  
BRANCH  17  20
HETATM   20  S   UNL     1     -11.742  13.697  67.373  1.00  0.00    -0.396 S  
HETATM   21  O   UNL     1     -12.203  14.428  66.213  1.00  0.00    -0.412 OA 
HETATM   22  O   UNL     1     -12.507  13.726  68.605  1.00  0.00    -0.132 OA 
BRANCH  20  23
HETATM   23  N   UNL     1     -11.600  12.080  67.001  1.00  0.00    -0.339 N  
HETATM   24  H   UNL     1     -12.005  11.758  66.122  1.00  0.00     0.000 HD 
BRANCH  23  25
HETATM   25  C   UNL     1     -10.971  11.143  67.801  1.00  0.00    -0.262 C  
HETATM   26  O   UNL     1      -9.821  10.776  67.625  1.00  0.00    -0.167 OA 
BRANCH  25  27
HETATM   27  N   UNL     1     -11.757  10.684  68.821  1.00  0.00    -0.488 N  
HETATM   28  H   UNL     1     -12.636  10.214  68.607  1.00  0.00     0.000 HD 
BRANCH  27  29
HETATM   29  C   UNL     1     -11.351  10.860  70.212  1.00  0.00    -0.256 C  
HETATM   30  C   UNL     1     -12.546  11.214  71.103  1.00  0.00    -0.513 C  
HETATM   31  C   UNL     1     -13.454  10.020  71.393  1.00  0.00    -0.355 C  
HETATM   32  C   UNL     1     -12.669   8.835  71.944  1.00  0.00    -0.427 C  
HETATM   33  C   UNL     1     -11.516   8.447  71.024  1.00  0.00    -0.302 C  
HETATM   34  C   UNL     1     -10.596   9.634  70.744  1.00  0.00    -0.392 C  
ENDBRANCH  27  29
ENDBRANCH  25  27
ENDBRANCH  23  25
ENDBRANCH  20  23
ENDBRANCH  17  20
ENDBRANCH  13  14
ENDBRANCH  12  13
ENDBRANCH  10  12
ENDBRANCH   5   8
TORSDOF 9
ENDMDL
MODEL      211
REMARK 921   NORMALIZED FREE ENERGY PREDICTED BY IDOCK:   -4.61 KCAL/MOL
REMARK 922        TOTAL FREE ENERGY PREDICTED BY IDOCK:   -8.52 KCAL/MOL
REMARK 923 INTER-LIGAND FREE ENERGY PREDICTED BY IDOCK:   -7.51 KCAL/MOL
REMARK 924 INTRA-LIGAND FREE ENERGY PREDICTED BY IDOCK:   -1.01 KCAL/MOL
REMARK 927      BINDING AFFINITY PREDICTED BY RF-SCORE:    0.00 PKD
ROOT
HETATM    1  C   UNL     1      -9.230   3.530  66.389  1.00  0.00    -0.179 C  
HETATM    2  C   UNL     1      -9.426   4.863  67.039  1.00  0.00    -0.148 A  
HETATM    3  N   UNL     1      -8.317   5.554  67.402  1.00  0.00    -0.104 NA 
HETATM    4  C   UNL     1      -8.536   6.742  68.020  1.00  0.00    -0.120 A  
HETATM    5  C   UNL     1      -9.812   7.229  68.262  1.00  0.00    -0.154 A  
HETATM    6  C   UNL     1     -10.705   5.367  67.274  1.00  0.00    -0.097 A  
HETATM    7  N   UNL     1     -10.938   6.556  67.888  1.00  0.00    -0.299 NA 
ENDROOT
BRANCH   5   8
HETATM    8  C   UNL     1      -9.974   8.516  68.993  1.00  0.00    -0.193 C  
HETATM    9  O   UNL     1      -9.163   9.425  68.852  1.00  0.00    -0.136 OA 
HETATM   10  N   UNL     1     -11.068   8.592  69.833  1.00  0.00    -0.410 N  
HETATM   11  H   UNL     1     -11.746   7.831  69.839  1.00  0.00     0.000 HD 
BRANCH  10  12
HETATM   12  C   UNL     1     -11.275   9.731  70.707  1.00  0.00    -0.348 C  
BRANCH  12  13
HETATM   13  C   UNL     1     -12.443  10.626  70.261  1.00  0.00    -0.381 C  
BRANCH  13  14
HETATM   14  C   UNL     1     -12.028  11.902  69.551  1.00  0.00    -0.355 A  
HETATM   15  C   UNL     1     -11.167  11.882  68.443  1.00  0.00    -0.312 A  
HETATM   16  C   UNL     1     -10.756  13.066  67.828  1.00  0.00    -0.242 A  
HETATM   17  C   UNL     1     -11.250  14.290  68.273  1.00  0.00    -0.276 A  
HETATM   18  C   UNL     1     -12.148  14.333  69.344  1.00  0.00    -0.361 A  
HETATM   19  C   UNL     1     -12.537  13.144  69.972  1.00  0.00    -0.014 A  
BRANCH  17  20
HETATM   20  S   UNL     1     -10.612  15.791  67.565  1.00  0.00    -0.313 S  
HETATM   21  O   UNL     1     -11.032  16.911  68.378  1.00  0.00    -0.356 OA 
HETATM   22  O   UNL     1     -10.920  15.762  66.148  1.00  0.00    -0.280 OA 
BRANCH  20  23
HETATM   23  N   UNL     1      -8.958  15.625  67.644  1.00  0.00    -0.179 N  
HETATM   24  H   UNL     1      -8.535  14.848  67.136  1.00  0.00     0.000 HD 
BRANCH  23  25
HETATM   25  C   UNL     1      -8.117  16.465  68.349  1.00  0.00    -0.188 C  
HETATM   26  O   UNL     1      -7.468  16.106  69.318  1.00  0.00    -0.220 OA 
BRANCH  25  27
HETATM   27  N   UNL     1      -8.066  17.734  67.842  1.00  0.00    -0.230 N  
HETATM   28  H   UNL     1      -8.072  17.873  66.832  1.00  0.00     0.000 HD 
BRANCH  27  29
HETATM   29  C   UNL     1      -8.003  18.890  68.731  1.00  0.00    -0.317 C  
HETATM   30  C   UNL     1      -6.558  19.357  68.941  1.00  0.00    -0.339 C  
HETATM   31  C   UNL     1      -5.986  20.100  67.735  1.00  0.00    -0.240 C  
HETATM   32  C   UNL     1      -6.892  21.245  67.296  1.00  0.00    -0.341 C  
HETATM   33  C   UNL     1      -8.315  20.766  67.030  1.00  0.00    -0.181 C  
HETATM   34  C   UNL     1      -8.898  20.036  68.238  1.00  0.00    -0.201 C  
ENDBRANCH  27  29
ENDBRANCH  25  27
ENDBRANCH  23  25
ENDBRANCH  20  23
ENDBRANCH  17  20
ENDBRANCH  13  14
ENDBRANCH  12  13
ENDBRANCH  10  12
ENDBRANCH   5   8
TORSDOF 9
ENDMDL
MODEL      212
REMARK 921   NORMALIZED FREE ENERGY PREDICTED BY IDOCK:   -4.61 KCAL/MOL
REMARK 922        TOTAL FREE ENERGY PREDICTED BY IDOCK:   -8.52 KCAL/MOL
REMARK 923 INTER-LIGAND FREE ENERGY PREDICTED BY IDOCK:   -7.18 KCAL/MOL
REMARK 924 INTRA-LIGAND FREE ENERGY PREDICTED BY IDOCK:   -1.34 KCAL/MOL
REMARK 927      BINDING AFFINITY PREDICTED BY RF-SCORE:    0.00 PKD
ROOT
HETATM    1  C   UNL     1      -8.461  18.182  67.408  1.00  0.00    -0.240 C  
HETATM    2  C   UNL     1      -9.362  17.187  68.066  1.00  0.00    -0.254 A  
HETATM    3  N   UNL     1     -10.613  17.042  67.563  1.00  0.00    -0.331 NA 
HETATM    4  C   UNL     1     -11.411  16.154  68.209  1.00  0.00    -0.259 A  
HETATM    5  C   UNL     1     -10.980  15.433  69.312  1.00  0.00    -0.261 A  
HETATM    6  C   UNL     1      -8.932  16.445  69.168  1.00  0.00    -0.197 A  
HETATM    7  N   UNL     1      -9.720  15.553  69.821  1.00  0.00    -0.286 NA 
ENDROOT
BRANCH   5   8
HETATM    8  C   UNL     1     -11.930  14.517  70.001  1.00  0.00    -0.330 C  
HETATM    9  O   UNL     1     -12.812  14.959  70.729  1.00  0.00    -0.342 OA 
HETATM   10  N   UNL     1     -11.728  13.168  69.778  1.00  0.00    -0.421 N  
HETATM   11  H   UNL     1     -11.028  12.875  69.097  1.00  0.00     0.000 HD 
BRANCH  10  12
HETATM   12  C   UNL     1     -12.490  12.160  70.490  1.00  0.00    -0.198 C  
BRANCH  12  13
HETATM   13  C   UNL     1     -12.357  10.759  69.872  1.00  0.00    -0.340 C  
BRANCH  13  14
HETATM   14  C   UNL     1     -11.668   9.737  70.759  1.00  0.00    -0.407 A  
HETATM   15  C   UNL     1     -10.335   9.357  70.546  1.00  0.00    -0.341 A  
HETATM   16  C   UNL     1      -9.727   8.383  71.341  1.00  0.00    -0.260 A  
HETATM   17  C   UNL     1     -10.427   7.817  72.405  1.00  0.00    -0.263 A  
HETATM   18  C   UNL     1     -11.741   8.215  72.668  1.00  0.00    -0.419 A  
HETATM   19  C   UNL     1     -12.352   9.175  71.852  1.00  0.00    -0.455 A  
BRANCH  17  20
HETATM   20  S   UNL     1      -9.684   6.485  73.319  1.00  0.00    -0.177 S  
HETATM   21  O   UNL     1     -10.410   6.301  74.556  1.00  0.00    -0.316 OA 
HETATM   22  O   UNL     1      -8.254   6.724  73.341  1.00  0.00    -0.112 OA 
BRANCH  20  23
HETATM   23  N   UNL     1      -9.875   5.148  72.347  1.00  0.00    -0.163 N  
HETATM   24  H   UNL     1     -10.819   4.921  72.033  1.00  0.00     0.000 HD 
BRANCH  23  25
HETATM   25  C   UNL     1      -8.845   4.322  71.935  1.00  0.00    -0.112 C  
HETATM   26  O   UNL     1      -8.720   3.168  72.311  1.00  0.00    -0.077 OA 
BRANCH  25  27
HETATM   27  N   UNL     1      -7.993   4.918  71.048  1.00  0.00    -0.089 N  
HETATM   28  H   UNL     1      -7.424   5.709  71.349  1.00  0.00     0.000 HD 
BRANCH  27  29
HETATM   29  C   UNL     1      -7.889   4.434  69.674  1.00  0.00    -0.057 C  
HETATM   30  C   UNL     1      -9.084   4.888  68.829  1.00  0.00    -0.147 C  
HETATM   31  C   UNL     1      -9.021   6.364  68.442  1.00  0.00    -0.120 C  
HETATM   32  C   UNL     1      -7.693   6.717  67.780  1.00  0.00    -0.111 C  
HETATM   33  C   UNL     1      -6.507   6.320  68.651  1.00  0.00    -0.049 C  
HETATM   34  C   UNL     1      -6.557   4.840  69.028  1.00  0.00    -0.045 C  
ENDBRANCH  27  29
ENDBRANCH  25  27
ENDBRANCH  23  25
ENDBRANCH  20  23
ENDBRANCH  17  20
ENDBRANCH  13  14
ENDBRANCH  12  13
ENDBRANCH  10  12
ENDBRANCH   5   8
TORSDOF 9
ENDMDL
MODEL      213
REMARK 921   NORMALIZED FREE ENERGY PREDICTED BY IDOCK:   -4.60 KCAL/MOL
REMARK 922        TOTAL FREE ENERGY PREDICTED BY IDOCK:   -8.51 KCAL/MOL
REMARK 923 INTER-LIGAND FREE ENERGY PREDICTED BY IDOCK:   -7.33 KCAL/MOL
REMARK 924 INTRA-LIGAND FREE ENERGY PREDICTED BY IDOCK:   -1.18 KCAL/MOL
REMARK 927      BINDING AFFINITY PREDICTED BY RF-SCORE:    0.00 PKD
ROOT
HETATM    1  C   UNL     1      -8.344   4.921  63.404  1.00  0.00    -0.115 C  
HETATM    2  C   UNL     1      -8.567   4.404  64.789  1.00  0.00    -0.132 A  
HETATM    3  N   UNL     1      -7.672   3.511  65.279  1.00  0.00    -0.081 NA 
HETATM    4  C   UNL     1      -7.928   3.039  66.525  1.00  0.00    -0.077 A  
HETATM    5  C   UNL     1      -9.031   3.445  67.261  1.00  0.00    -0.150 A  
HETATM    6  C   UNL     1      -9.666   4.818  65.543  1.00  0.00    -0.152 A  
HETATM    7  N   UNL     1      -9.932   4.356  66.792  1.00  0.00    -0.218 NA 
ENDROOT
BRANCH   5   8
HETATM    8  C   UNL     1      -9.275   2.843  68.601  1.00  0.00    -0.173 C  
HETATM    9  O   UNL     1      -9.548   1.653  68.714  1.00  0.00    -0.158 OA 
HETATM   10  N   UNL     1      -9.194   3.714  69.671  1.00  0.00    -0.135 N  
HETATM   11  H   UNL     1      -8.882   4.671  69.512  1.00  0.00     0.000 HD 
BRANCH  10  12
HETATM   12  C   UNL     1      -9.541   3.296  71.015  1.00  0.00    -0.164 C  
BRANCH  12  13
HETATM   13  C   UNL     1     -10.021   4.458  71.901  1.00  0.00    -0.258 C  
BRANCH  13  14
HETATM   14  C   UNL     1     -10.105   5.799  71.195  1.00  0.00    -0.257 A  
HETATM   15  C   UNL     1     -11.203   6.140  70.390  1.00  0.00    -0.423 A  
HETATM   16  C   UNL     1     -11.247   7.358  69.710  1.00  0.00    -0.110 A  
HETATM   17  C   UNL     1     -10.220   8.285  69.873  1.00  0.00    -0.201 A  
HETATM   18  C   UNL     1      -9.139   7.989  70.709  1.00  0.00    -0.151 A  
HETATM   19  C   UNL     1      -9.089   6.756  71.370  1.00  0.00    -0.142 A  
BRANCH  17  20
HETATM   20  S   UNL     1     -10.229   9.770  68.896  1.00  0.00    -0.210 S  
HETATM   21  O   UNL     1     -10.680   9.452  67.559  1.00  0.00    -0.280 OA 
HETATM   22  O   UNL     1      -8.951  10.425  69.099  1.00  0.00    -0.169 OA 
BRANCH  20  23
HETATM   23  N   UNL     1     -11.337  10.761  69.645  1.00  0.00    -0.269 N  
HETATM   24  H   UNL     1     -11.774  10.421  70.502  1.00  0.00     0.000 HD 
BRANCH  23  25
HETATM   25  C   UNL     1     -11.708  12.012  69.187  1.00  0.00    -0.330 C  
HETATM   26  O   UNL     1     -11.846  12.979  69.918  1.00  0.00    -0.322 OA 
BRANCH  25  27
HETATM   27  N   UNL     1     -11.883  12.064  67.832  1.00  0.00    -0.306 N  
HETATM   28  H   UNL     1     -12.303  11.272  67.347  1.00  0.00     0.000 HD 
BRANCH  27  29
HETATM   29  C   UNL     1     -11.476  13.243  67.073  1.00  0.00    -0.339 C  
HETATM   30  C   UNL     1     -10.109  13.038  66.411  1.00  0.00    -0.279 C  
HETATM   31  C   UNL     1     -10.165  12.121  65.191  1.00  0.00    -0.308 C  
HETATM   32  C   UNL     1     -11.216  12.580  64.186  1.00  0.00    -0.437 C  
HETATM   33  C   UNL     1     -12.588  12.725  64.835  1.00  0.00    -0.541 C  
HETATM   34  C   UNL     1     -12.542  13.654  66.047  1.00  0.00    -0.441 C  
ENDBRANCH  27  29
ENDBRANCH  25  27
ENDBRANCH  23  25
ENDBRANCH  20  23
ENDBRANCH  17  20
ENDBRANCH  13  14
ENDBRANCH  12  13
ENDBRANCH  10  12
ENDBRANCH   5   8
TORSDOF 9
ENDMDL
MODEL      214
REMARK 921   NORMALIZED FREE ENERGY PREDICTED BY IDOCK:   -4.59 KCAL/MOL
REMARK 922        TOTAL FREE ENERGY PREDICTED BY IDOCK:   -8.50 KCAL/MOL
REMARK 923 INTER-LIGAND FREE ENERGY PREDICTED BY IDOCK:   -7.79 KCAL/MOL
REMARK 924 INTRA-LIGAND FREE ENERGY PREDICTED BY IDOCK:   -0.71 KCAL/MOL
REMARK 927      BINDING AFFINITY PREDICTED BY RF-SCORE:    0.00 PKD
ROOT
HETATM    1  C   UNL     1     -10.784  19.827  65.639  1.00  0.00    -0.418 C  
HETATM    2  C   UNL     1      -9.684  19.256  66.476  1.00  0.00    -0.367 A  
HETATM    3  N   UNL     1      -8.424  19.301  65.975  1.00  0.00    -0.458 NA 
HETATM    4  C   UNL     1      -7.459  18.743  66.748  1.00  0.00    -0.224 A  
HETATM    5  C   UNL     1      -7.735  18.166  67.979  1.00  0.00    -0.255 A  
HETATM    6  C   UNL     1      -9.949  18.687  67.722  1.00  0.00    -0.346 A  
HETATM    7  N   UNL     1      -8.993  18.128  68.507  1.00  0.00    -0.302 NA 
ENDROOT
BRANCH   5   8
HETATM    8  C   UNL     1      -6.633  17.525  68.748  1.00  0.00    -0.216 C  
HETATM    9  O   UNL     1      -5.693  18.190  69.170  1.00  0.00    -0.197 OA 
HETATM   10  N   UNL     1      -6.740  16.159  68.921  1.00  0.00    -0.137 N  
HETATM   11  H   UNL     1      -7.588  15.683  68.614  1.00  0.00     0.000 HD 
BRANCH  10  12
HETATM   12  C   UNL     1      -5.675  15.386  69.530  1.00  0.00    -0.106 C  
BRANCH  12  13
HETATM   13  C   UNL     1      -6.079  13.932  69.822  1.00  0.00    -0.129 C  
BRANCH  13  14
HETATM   14  C   UNL     1      -7.099  13.351  68.860  1.00  0.00    -0.084 A  
HETATM   15  C   UNL     1      -8.469  13.625  68.986  1.00  0.00     0.295 A  
HETATM   16  C   UNL     1      -9.402  13.049  68.122  1.00  0.00    -0.217 A  
HETATM   17  C   UNL     1      -8.973  12.235  67.076  1.00  0.00    -0.204 A  
HETATM   18  C   UNL     1      -7.608  11.987  66.899  1.00  0.00    -0.060 A  
HETATM   19  C   UNL     1      -6.680  12.549  67.783  1.00  0.00    -0.123 A  
BRANCH  17  20
HETATM   20  S   UNL     1     -10.182  11.405  66.071  1.00  0.00    -0.254 S  
HETATM   21  O   UNL     1      -9.502  10.526  65.145  1.00  0.00    -0.195 OA 
HETATM   22  O   UNL     1     -11.099  12.415  65.579  1.00  0.00    -0.282 OA 
BRANCH  20  23
HETATM   23  N   UNL     1     -11.079  10.506  67.148  1.00  0.00    -0.228 N  
HETATM   24  H   UNL     1     -12.090  10.641  67.150  1.00  0.00     0.000 HD 
BRANCH  23  25
HETATM   25  C   UNL     1     -10.550   9.591  68.039  1.00  0.00    -0.230 C  
HETATM   26  O   UNL     1      -9.456   9.070  67.895  1.00  0.00    -0.140 OA 
BRANCH  25  27
HETATM   27  N   UNL     1     -11.364   9.342  69.109  1.00  0.00    -0.429 N  
HETATM   28  H   UNL     1     -12.146   8.695  69.008  1.00  0.00     0.000 HD 
BRANCH  27  29
HETATM   29  C   UNL     1     -11.126   9.992  70.394  1.00  0.00    -0.327 C  
HETATM   30  C   UNL     1     -12.351  10.792  70.852  1.00  0.00    -0.497 C  
HETATM   31  C   UNL     1     -13.484   9.910  71.371  1.00  0.00    -0.379 C  
HETATM   32  C   UNL     1     -13.002   8.948  72.451  1.00  0.00    -0.467 C  
HETATM   33  C   UNL     1     -11.821   8.111  71.971  1.00  0.00    -0.392 C  
HETATM   34  C   UNL     1     -10.678   8.989  71.465  1.00  0.00    -0.421 C  
ENDBRANCH  27  29
ENDBRANCH  25  27
ENDBRANCH  23  25
ENDBRANCH  20  23
ENDBRANCH  17  20
ENDBRANCH  13  14
ENDBRANCH  12  13
ENDBRANCH  10  12
ENDBRANCH   5   8
TORSDOF 9
ENDMDL
MODEL      215
REMARK 921   NORMALIZED FREE ENERGY PREDICTED BY IDOCK:   -4.59 KCAL/MOL
REMARK 922        TOTAL FREE ENERGY PREDICTED BY IDOCK:   -8.50 KCAL/MOL
REMARK 923 INTER-LIGAND FREE ENERGY PREDICTED BY IDOCK:   -6.07 KCAL/MOL
REMARK 924 INTRA-LIGAND FREE ENERGY PREDICTED BY IDOCK:   -2.42 KCAL/MOL
REMARK 927      BINDING AFFINITY PREDICTED BY RF-SCORE:    0.00 PKD
ROOT
HETATM    1  C   UNL     1      -5.314  14.322  72.028  1.00  0.00    -0.195 C  
HETATM    2  C   UNL     1      -5.763  13.632  70.779  1.00  0.00    -0.197 A  
HETATM    3  N   UNL     1      -5.888  12.282  70.816  1.00  0.00    -0.309 NA 
HETATM    4  C   UNL     1      -6.264  11.691  69.654  1.00  0.00    -0.127 A  
HETATM    5  C   UNL     1      -6.512  12.415  68.498  1.00  0.00    -0.068 A  
HETATM    6  C   UNL     1      -6.029  14.354  69.615  1.00  0.00    -0.111 A  
HETATM    7  N   UNL     1      -6.408  13.775  68.447  1.00  0.00    -0.089 NA 
ENDROOT
BRANCH   5   8
HETATM    8  C   UNL     1      -6.869  11.692  67.247  1.00  0.00    -0.129 C  
HETATM    9  O   UNL     1      -6.001  11.347  66.452  1.00  0.00    -0.148 OA 
HETATM   10  N   UNL     1      -8.218  11.468  67.049  1.00  0.00    -0.160 N  
HETATM   11  H   UNL     1      -8.877  11.710  67.789  1.00  0.00     0.000 HD 
BRANCH  10  12
HETATM   12  C   UNL     1      -8.718  10.898  65.814  1.00  0.00    -0.190 C  
BRANCH  12  13
HETATM   13  C   UNL     1      -9.953  10.005  66.021  1.00  0.00    -0.334 C  
BRANCH  13  14
HETATM   14  C   UNL     1      -9.681   8.712  66.769  1.00  0.00    -0.298 A  
HETATM   15  C   UNL     1     -10.724   7.927  67.284  1.00  0.00    -0.299 A  
HETATM   16  C   UNL     1     -10.459   6.764  68.010  1.00  0.00    -0.253 A  
HETATM   17  C   UNL     1      -9.145   6.333  68.179  1.00  0.00    -0.112 A  
HETATM   18  C   UNL     1      -8.091   7.072  67.633  1.00  0.00    -0.114 A  
HETATM   19  C   UNL     1      -8.362   8.250  66.926  1.00  0.00    -0.114 A  
BRANCH  17  20
HETATM   20  S   UNL     1      -8.821   4.927  69.218  1.00  0.00    -0.090 S  
HETATM   21  O   UNL     1      -7.864   4.065  68.560  1.00  0.00    -0.068 OA 
HETATM   22  O   UNL     1     -10.105   4.402  69.642  1.00  0.00    -0.202 OA 
BRANCH  20  23
HETATM   23  N   UNL     1      -8.149   5.569  70.599  1.00  0.00    -0.112 N  
HETATM   24  H   UNL     1      -7.175   5.871  70.556  1.00  0.00     0.000 HD 
BRANCH  23  25
HETATM   25  C   UNL     1      -8.817   5.722  71.800  1.00  0.00    -0.136 C  
HETATM   26  O   UNL     1      -8.416   5.254  72.854  1.00  0.00    -0.115 OA 
BRANCH  25  27
HETATM   27  N   UNL     1      -9.958   6.466  71.696  1.00  0.00    -0.175 N  
HETATM   28  H   UNL     1     -10.744   6.110  71.151  1.00  0.00     0.000 HD 
BRANCH  27  29
HETATM   29  C   UNL     1     -10.066   7.763  72.357  1.00  0.00    -0.226 C  
HETATM   30  C   UNL     1      -8.926   8.699  71.941  1.00  0.00    -0.301 C  
HETATM   31  C   UNL     1      -9.098   9.266  70.533  1.00  0.00    -0.307 C  
HETATM   32  C   UNL     1     -10.463   9.921  70.351  1.00  0.00    -0.347 C  
HETATM   33  C   UNL     1     -11.597   8.967  70.709  1.00  0.00    -0.301 C  
HETATM   34  C   UNL     1     -11.438   8.409  72.122  1.00  0.00    -0.442 C  
ENDBRANCH  27  29
ENDBRANCH  25  27
ENDBRANCH  23  25
ENDBRANCH  20  23
ENDBRANCH  17  20
ENDBRANCH  13  14
ENDBRANCH  12  13
ENDBRANCH  10  12
ENDBRANCH   5   8
TORSDOF 9
ENDMDL
MODEL      216
REMARK 921   NORMALIZED FREE ENERGY PREDICTED BY IDOCK:   -4.57 KCAL/MOL
REMARK 922        TOTAL FREE ENERGY PREDICTED BY IDOCK:   -8.48 KCAL/MOL
REMARK 923 INTER-LIGAND FREE ENERGY PREDICTED BY IDOCK:   -7.32 KCAL/MOL
REMARK 924 INTRA-LIGAND FREE ENERGY PREDICTED BY IDOCK:   -1.16 KCAL/MOL
REMARK 927      BINDING AFFINITY PREDICTED BY RF-SCORE:    0.00 PKD
ROOT
HETATM    1  C   UNL     1      -8.168   2.588  63.430  1.00  0.00    -0.081 C  
HETATM    2  C   UNL     1      -8.647   3.599  64.422  1.00  0.00    -0.097 A  
HETATM    3  N   UNL     1      -7.712   4.355  65.051  1.00  0.00    -0.081 NA 
HETATM    4  C   UNL     1      -8.183   5.236  65.969  1.00  0.00    -0.115 A  
HETATM    5  C   UNL     1      -9.535   5.366  66.248  1.00  0.00    -0.157 A  
HETATM    6  C   UNL     1     -10.006   3.748  64.699  1.00  0.00    -0.199 A  
HETATM    7  N   UNL     1     -10.491   4.627  65.614  1.00  0.00    -0.267 NA 
ENDROOT
BRANCH   5   8
HETATM    8  C   UNL     1      -9.974   6.317  67.307  1.00  0.00    -0.146 C  
HETATM    9  O   UNL     1     -11.165   6.527  67.509  1.00  0.00    -0.343 OA 
HETATM   10  N   UNL     1      -8.959   6.941  68.008  1.00  0.00    -0.123 N  
HETATM   11  H   UNL     1      -7.993   6.657  67.844  1.00  0.00     0.000 HD 
BRANCH  10  12
HETATM   12  C   UNL     1      -9.236   7.988  68.971  1.00  0.00    -0.148 C  
BRANCH  12  13
HETATM   13  C   UNL     1      -8.023   8.894  69.239  1.00  0.00    -0.104 C  
BRANCH  13  14
HETATM   14  C   UNL     1      -8.212  10.344  68.829  1.00  0.00    -0.128 A  
HETATM   15  C   UNL     1      -7.119  11.194  68.606  1.00  0.00    -0.090 A  
HETATM   16  C   UNL     1      -7.307  12.537  68.274  1.00  0.00    -0.115 A  
HETATM   17  C   UNL     1      -8.595  13.038  68.099  1.00  0.00    -0.188 A  
HETATM   18  C   UNL     1      -9.700  12.198  68.268  1.00  0.00    -0.216 A  
HETATM   19  C   UNL     1      -9.506  10.858  68.624  1.00  0.00    -0.192 A  
BRANCH  17  20
HETATM   20  S   UNL     1      -8.817  14.778  67.810  1.00  0.00    -0.183 S  
HETATM   21  O   UNL     1      -9.999  14.974  66.999  1.00  0.00    -0.238 OA 
HETATM   22  O   UNL     1      -7.538  15.308  67.377  1.00  0.00    -0.167 OA 
BRANCH  20  23
HETATM   23  N   UNL     1      -9.055  15.430  69.323  1.00  0.00    -0.248 N  
HETATM   24  H   UNL     1      -8.271  15.412  69.976  1.00  0.00     0.000 HD 
BRANCH  23  25
HETATM   25  C   UNL     1     -10.241  15.994  69.758  1.00  0.00    -0.240 C  
HETATM   26  O   UNL     1     -10.610  17.111  69.434  1.00  0.00    -0.321 OA 
BRANCH  25  27
HETATM   27  N   UNL     1     -10.970  15.170  70.568  1.00  0.00    -0.442 N  
HETATM   28  H   UNL     1     -10.545  14.790  71.414  1.00  0.00     0.000 HD 
BRANCH  27  29
HETATM   29  C   UNL     1     -12.350  14.828  70.237  1.00  0.00    -0.345 C  
HETATM   30  C   UNL     1     -12.531  13.313  70.090  1.00  0.00    -0.210 C  
HETATM   31  C   UNL     1     -12.542  12.577  71.428  1.00  0.00    -0.297 C  
HETATM   32  C   UNL     1     -13.558  13.177  72.394  1.00  0.00    -0.667 C  
HETATM   33  C   UNL     1     -13.337  14.673  72.584  1.00  0.00    -0.577 C  
HETATM   34  C   UNL     1     -13.341  15.417  71.250  1.00  0.00    -0.598 C  
ENDBRANCH  27  29
ENDBRANCH  25  27
ENDBRANCH  23  25
ENDBRANCH  20  23
ENDBRANCH  17  20
ENDBRANCH  13  14
ENDBRANCH  12  13
ENDBRANCH  10  12
ENDBRANCH   5   8
TORSDOF 9
ENDMDL
MODEL      217
REMARK 921   NORMALIZED FREE ENERGY PREDICTED BY IDOCK:   -4.55 KCAL/MOL
REMARK 922        TOTAL FREE ENERGY PREDICTED BY IDOCK:   -8.44 KCAL/MOL
REMARK 923 INTER-LIGAND FREE ENERGY PREDICTED BY IDOCK:   -7.25 KCAL/MOL
REMARK 924 INTRA-LIGAND FREE ENERGY PREDICTED BY IDOCK:   -1.19 KCAL/MOL
REMARK 927      BINDING AFFINITY PREDICTED BY RF-SCORE:    0.00 PKD
ROOT
HETATM    1  C   UNL     1      -6.683   5.664  71.679  1.00  0.00    -0.058 C  
HETATM    2  C   UNL     1      -6.800   5.968  70.220  1.00  0.00    -0.054 A  
HETATM    3  N   UNL     1      -6.026   6.964  69.721  1.00  0.00    -0.023 NA 
HETATM    4  C   UNL     1      -6.186   7.234  68.401  1.00  0.00    -0.035 A  
HETATM    5  C   UNL     1      -7.079   6.535  67.603  1.00  0.00    -0.084 A  
HETATM    6  C   UNL     1      -7.686   5.261  69.406  1.00  0.00    -0.080 A  
HETATM    7  N   UNL     1      -7.853   5.519  68.083  1.00  0.00    -0.091 NA 
ENDROOT
BRANCH   5   8
HETATM    8  C   UNL     1      -7.239   6.923  66.175  1.00  0.00    -0.074 C  
HETATM    9  O   UNL     1      -6.350   6.700  65.360  1.00  0.00    -0.040 OA 
HETATM   10  N   UNL     1      -8.426   7.555  65.856  1.00  0.00    -0.142 N  
HETATM   11  H   UNL     1      -9.154   7.635  66.565  1.00  0.00     0.000 HD 
BRANCH  10  12
HETATM   12  C   UNL     1      -8.659   8.108  64.536  1.00  0.00     0.100 C  
BRANCH  12  13
HETATM   13  C   UNL     1      -8.220   9.576  64.413  1.00  0.00    -0.148 C  
BRANCH  13  14
HETATM   14  C   UNL     1      -8.885  10.521  65.397  1.00  0.00    -0.203 A  
HETATM   15  C   UNL     1      -8.178  11.081  66.472  1.00  0.00    -0.161 A  
HETATM   16  C   UNL     1      -8.813  11.912  67.397  1.00  0.00    -0.171 A  
HETATM   17  C   UNL     1     -10.154  12.248  67.226  1.00  0.00    -0.204 A  
HETATM   18  C   UNL     1     -10.867  11.742  66.135  1.00  0.00    -0.336 A  
HETATM   19  C   UNL     1     -10.231  10.890  65.225  1.00  0.00    -0.351 A  
BRANCH  17  20
HETATM   20  S   UNL     1     -10.977  13.196  68.485  1.00  0.00    -0.272 S  
HETATM   21  O   UNL     1     -11.558  12.292  69.453  1.00  0.00    -0.284 OA 
HETATM   22  O   UNL     1     -11.809  14.175  67.811  1.00  0.00    -0.350 OA 
BRANCH  20  23
HETATM   23  N   UNL     1      -9.768  14.088  69.200  1.00  0.00    -0.418 N  
HETATM   24  H   UNL     1      -8.824  13.701  69.191  1.00  0.00     0.000 HD 
BRANCH  23  25
HETATM   25  C   UNL     1      -9.952  15.318  69.806  1.00  0.00    -0.198 C  
HETATM   26  O   UNL     1      -9.605  16.373  69.300  1.00  0.00    -0.249 OA 
BRANCH  25  27
HETATM   27  N   UNL     1     -10.580  15.238  71.017  1.00  0.00    -0.440 N  
HETATM   28  H   UNL     1     -10.219  14.605  71.731  1.00  0.00     0.000 HD 
BRANCH  27  29
HETATM   29  C   UNL     1     -11.761  16.047  71.300  1.00  0.00    -0.461 C  
HETATM   30  C   UNL     1     -13.031  15.399  70.739  1.00  0.00    -0.510 C  
HETATM   31  C   UNL     1     -13.507  14.201  71.560  1.00  0.00    -0.419 C  
HETATM   32  C   UNL     1     -13.655  14.552  73.036  1.00  0.00    -0.292 C  
HETATM   33  C   UNL     1     -12.370  15.141  73.606  1.00  0.00    -0.674 C  
HETATM   34  C   UNL     1     -11.898  16.349  72.799  1.00  0.00    -0.531 C  
ENDBRANCH  27  29
ENDBRANCH  25  27
ENDBRANCH  23  25
ENDBRANCH  20  23
ENDBRANCH  17  20
ENDBRANCH  13  14
ENDBRANCH  12  13
ENDBRANCH  10  12
ENDBRANCH   5   8
TORSDOF 9
ENDMDL
MODEL      218
REMARK 921   NORMALIZED FREE ENERGY PREDICTED BY IDOCK:   -4.54 KCAL/MOL
REMARK 922        TOTAL FREE ENERGY PREDICTED BY IDOCK:   -8.42 KCAL/MOL
REMARK 923 INTER-LIGAND FREE ENERGY PREDICTED BY IDOCK:   -6.82 KCAL/MOL
REMARK 924 INTRA-LIGAND FREE ENERGY PREDICTED BY IDOCK:   -1.60 KCAL/MOL
REMARK 927      BINDING AFFINITY PREDICTED BY RF-SCORE:    0.00 PKD
ROOT
HETATM    1  C   UNL     1     -11.583  14.678  64.824  1.00  0.00    -0.418 C  
HETATM    2  C   UNL     1     -11.731  13.866  66.071  1.00  0.00    -0.366 A  
HETATM    3  N   UNL     1     -11.888  14.535  67.241  1.00  0.00    -0.407 NA 
HETATM    4  C   UNL     1     -11.984  13.764  68.354  1.00  0.00    -0.360 A  
HETATM    5  C   UNL     1     -11.933  12.380  68.306  1.00  0.00    -0.214 A  
HETATM    6  C   UNL     1     -11.696  12.472  66.031  1.00  0.00    -0.417 A  
HETATM    7  N   UNL     1     -11.794  11.690  67.137  1.00  0.00    -0.607 NA 
ENDROOT
BRANCH   5   8
HETATM    8  C   UNL     1     -11.991  11.603  69.575  1.00  0.00    -0.317 C  
HETATM    9  O   UNL     1     -12.228  12.159  70.642  1.00  0.00    -0.372 OA 
HETATM   10  N   UNL     1     -11.743  10.248  69.459  1.00  0.00    -0.442 N  
HETATM   11  H   UNL     1     -11.634   9.839  68.532  1.00  0.00     0.000 HD 
BRANCH  10  12
HETATM   12  C   UNL     1     -11.634   9.396  70.627  1.00  0.00    -0.269 C  
BRANCH  12  13
HETATM   13  C   UNL     1     -10.914   8.068  70.336  1.00  0.00    -0.248 C  
BRANCH  13  14
HETATM   14  C   UNL     1     -10.064   8.070  69.078  1.00  0.00    -0.206 A  
HETATM   15  C   UNL     1     -10.618   7.813  67.815  1.00  0.00    -0.254 A  
HETATM   16  C   UNL     1      -9.817   7.772  66.672  1.00  0.00    -0.295 A  
HETATM   17  C   UNL     1      -8.455   8.050  66.766  1.00  0.00    -0.128 A  
HETATM   18  C   UNL     1      -7.888   8.357  68.006  1.00  0.00    -0.111 A  
HETATM   19  C   UNL     1      -8.692   8.373  69.152  1.00  0.00    -0.142 A  
BRANCH  17  20
HETATM   20  S   UNL     1      -7.431   7.862  65.325  1.00  0.00    -0.086 S  
HETATM   21  O   UNL     1      -6.051   8.081  65.695  1.00  0.00    -0.038 OA 
HETATM   22  O   UNL     1      -8.035   8.644  64.263  1.00  0.00    -0.132 OA 
BRANCH  20  23
HETATM   23  N   UNL     1      -7.647   6.278  64.858  1.00  0.00    -0.085 N  
HETATM   24  H   UNL     1      -8.410   6.074  64.213  1.00  0.00     0.000 HD 
BRANCH  23  25
HETATM   25  C   UNL     1      -6.864   5.220  65.284  1.00  0.00    -0.060 C  
HETATM   26  O   UNL     1      -5.976   4.729  64.608  1.00  0.00    -0.017 OA 
BRANCH  25  27
HETATM   27  N   UNL     1      -7.169   4.793  66.546  1.00  0.00    -0.075 N  
HETATM   28  H   UNL     1      -6.761   5.267  67.351  1.00  0.00     0.000 HD 
BRANCH  27  29
HETATM   29  C   UNL     1      -8.073   3.666  66.753  1.00  0.00    -0.095 C  
HETATM   30  C   UNL     1      -7.439   2.597  67.650  1.00  0.00    -0.057 C  
HETATM   31  C   UNL     1      -7.402   2.994  69.124  1.00  0.00    -0.048 C  
HETATM   32  C   UNL     1      -8.778   3.413  69.631  1.00  0.00    -0.129 C  
HETATM   33  C   UNL     1      -9.380   4.520  68.771  1.00  0.00    -0.206 C  
HETATM   34  C   UNL     1      -9.435   4.121  67.298  1.00  0.00    -0.220 C  
ENDBRANCH  27  29
ENDBRANCH  25  27
ENDBRANCH  23  25
ENDBRANCH  20  23
ENDBRANCH  17  20
ENDBRANCH  13  14
ENDBRANCH  12  13
ENDBRANCH  10  12
ENDBRANCH   5   8
TORSDOF 9
ENDMDL
MODEL      219
REMARK 921   NORMALIZED FREE ENERGY PREDICTED BY IDOCK:   -4.52 KCAL/MOL
REMARK 922        TOTAL FREE ENERGY PREDICTED BY IDOCK:   -8.40 KCAL/MOL
REMARK 923 INTER-LIGAND FREE ENERGY PREDICTED BY IDOCK:   -7.71 KCAL/MOL
REMARK 924 INTRA-LIGAND FREE ENERGY PREDICTED BY IDOCK:   -0.69 KCAL/MOL
REMARK 927      BINDING AFFINITY PREDICTED BY RF-SCORE:    0.00 PKD
ROOT
HETATM    1  C   UNL     1      -8.512  19.875  66.512  1.00  0.00    -0.379 C  
HETATM    2  C   UNL     1      -9.209  18.562  66.677  1.00  0.00    -0.306 A  
HETATM    3  N   UNL     1      -9.004  17.618  65.725  1.00  0.00    -0.429 NA 
HETATM    4  C   UNL     1      -9.681  16.454  65.892  1.00  0.00    -0.294 A  
HETATM    5  C   UNL     1     -10.526  16.233  66.969  1.00  0.00    -0.306 A  
HETATM    6  C   UNL     1     -10.049  18.326  67.765  1.00  0.00    -0.356 A  
HETATM    7  N   UNL     1     -10.730  17.164  67.945  1.00  0.00    -0.372 NA 
ENDROOT
BRANCH   5   8
HETATM    8  C   UNL     1     -11.276  14.950  67.057  1.00  0.00    -0.344 C  
HETATM    9  O   UNL     1     -11.722  14.413  66.049  1.00  0.00    -0.364 OA 
HETATM   10  N   UNL     1     -11.444  14.442  68.331  1.00  0.00    -0.284 N  
HETATM   11  H   UNL     1     -10.977  14.897  69.114  1.00  0.00     0.000 HD 
BRANCH  10  12
HETATM   12  C   UNL     1     -12.268  13.275  68.578  1.00  0.00    -0.068 C  
BRANCH  12  13
HETATM   13  C   UNL     1     -12.312  12.873  70.062  1.00  0.00    -0.199 C  
BRANCH  13  14
HETATM   14  C   UNL     1     -12.030  11.406  70.330  1.00  0.00    -0.465 A  
HETATM   15  C   UNL     1     -11.070  10.695  69.595  1.00  0.00    -0.342 A  
HETATM   16  C   UNL     1     -10.853   9.334  69.821  1.00  0.00    -0.239 A  
HETATM   17  C   UNL     1     -11.552   8.675  70.830  1.00  0.00    -0.269 A  
HETATM   18  C   UNL     1     -12.479   9.374  71.609  1.00  0.00    -0.460 A  
HETATM   19  C   UNL     1     -12.709  10.733  71.362  1.00  0.00    -0.544 A  
BRANCH  17  20
HETATM   20  S   UNL     1     -11.360   6.917  71.012  1.00  0.00    -0.318 S  
HETATM   21  O   UNL     1     -11.957   6.257  69.872  1.00  0.00    -0.226 OA 
HETATM   22  O   UNL     1     -11.782   6.575  72.356  1.00  0.00    -0.281 OA 
BRANCH  20  23
HETATM   23  N   UNL     1      -9.713   6.670  71.009  1.00  0.00    -0.175 N  
HETATM   24  H   UNL     1      -9.113   7.472  71.202  1.00  0.00     0.000 HD 
BRANCH  23  25
HETATM   25  C   UNL     1      -9.102   5.454  70.765  1.00  0.00    -0.141 C  
HETATM   26  O   UNL     1      -9.058   4.549  71.582  1.00  0.00    -0.125 OA 
BRANCH  25  27
HETATM   27  N   UNL     1      -8.570   5.356  69.510  1.00  0.00    -0.102 N  
HETATM   28  H   UNL     1      -7.616   5.675  69.340  1.00  0.00     0.000 HD 
BRANCH  27  29
HETATM   29  C   UNL     1      -9.352   4.800  68.409  1.00  0.00    -0.132 C  
HETATM   30  C   UNL     1      -8.565   4.827  67.094  1.00  0.00    -0.104 C  
HETATM   31  C   UNL     1      -7.478   3.757  67.023  1.00  0.00    -0.072 C  
HETATM   32  C   UNL     1      -8.032   2.368  67.322  1.00  0.00    -0.070 C  
HETATM   33  C   UNL     1      -8.762   2.330  68.660  1.00  0.00    -0.127 C  
HETATM   34  C   UNL     1      -9.862   3.388  68.731  1.00  0.00     0.181 C  
ENDBRANCH  27  29
ENDBRANCH  25  27
ENDBRANCH  23  25
ENDBRANCH  20  23
ENDBRANCH  17  20
ENDBRANCH  13  14
ENDBRANCH  12  13
ENDBRANCH  10  12
ENDBRANCH   5   8
TORSDOF 9
ENDMDL
MODEL      220
REMARK 921   NORMALIZED FREE ENERGY PREDICTED BY IDOCK:   -4.52 KCAL/MOL
REMARK 922        TOTAL FREE ENERGY PREDICTED BY IDOCK:   -8.40 KCAL/MOL
REMARK 923 INTER-LIGAND FREE ENERGY PREDICTED BY IDOCK:   -7.74 KCAL/MOL
REMARK 924 INTRA-LIGAND FREE ENERGY PREDICTED BY IDOCK:   -0.66 KCAL/MOL
REMARK 927      BINDING AFFINITY PREDICTED BY RF-SCORE:    0.00 PKD
ROOT
HETATM    1  C   UNL     1     -11.719   7.431  71.720  1.00  0.00    -0.319 C  
HETATM    2  C   UNL     1     -11.223   7.237  70.322  1.00  0.00    -0.262 A  
HETATM    3  N   UNL     1     -11.135   5.965  69.857  1.00  0.00    -0.375 NA 
HETATM    4  C   UNL     1     -10.648   5.828  68.598  1.00  0.00    -0.235 A  
HETATM    5  C   UNL     1     -10.269   6.916  67.826  1.00  0.00    -0.180 A  
HETATM    6  C   UNL     1     -10.853   8.326  69.532  1.00  0.00    -0.116 A  
HETATM    7  N   UNL     1     -10.367   8.202  68.270  1.00  0.00    -0.206 NA 
ENDROOT
BRANCH   5   8
HETATM    8  C   UNL     1      -9.693   6.684  66.472  1.00  0.00    -0.121 C  
HETATM    9  O   UNL     1      -9.538   5.546  66.042  1.00  0.00    -0.157 OA 
HETATM   10  N   UNL     1      -9.339   7.820  65.770  1.00  0.00    -0.401 N  
HETATM   11  H   UNL     1      -9.572   8.736  66.154  1.00  0.00     0.000 HD 
BRANCH  10  12
HETATM   12  C   UNL     1      -8.645   7.741  64.500  1.00  0.00     0.225 C  
BRANCH  12  13
HETATM   13  C   UNL     1      -7.692   8.924  64.261  1.00  0.00    -0.122 C  
BRANCH  13  14
HETATM   14  C   UNL     1      -7.858  10.078  65.233  1.00  0.00    -0.138 A  
HETATM   15  C   UNL     1      -8.960  10.943  65.167  1.00  0.00    -0.195 A  
HETATM   16  C   UNL     1      -9.078  12.028  66.037  1.00  0.00    -0.092 A  
HETATM   17  C   UNL     1      -8.123  12.230  67.032  1.00  0.00    -0.141 A  
HETATM   18  C   UNL     1      -7.041  11.352  67.150  1.00  0.00    -0.134 A  
HETATM   19  C   UNL     1      -6.916  10.280  66.258  1.00  0.00    -0.115 A  
BRANCH  17  20
HETATM   20  S   UNL     1      -8.218  13.690  68.041  1.00  0.00    -0.175 S  
HETATM   21  O   UNL     1      -8.255  14.854  67.184  1.00  0.00    -0.195 OA 
HETATM   22  O   UNL     1      -7.200  13.571  69.067  1.00  0.00    -0.099 OA 
BRANCH  20  23
HETATM   23  N   UNL     1      -9.661  13.544  68.859  1.00  0.00    -0.418 N  
HETATM   24  H   UNL     1      -9.884  12.637  69.269  1.00  0.00     0.000 HD 
BRANCH  23  25
HETATM   25  C   UNL     1     -10.579  14.566  69.020  1.00  0.00    -0.247 C  
HETATM   26  O   UNL     1     -11.235  15.030  68.102  1.00  0.00    -0.281 OA 
BRANCH  25  27
HETATM   27  N   UNL     1     -10.695  14.992  70.314  1.00  0.00    -0.471 N  
HETATM   28  H   UNL     1      -9.966  14.761  70.988  1.00  0.00     0.000 HD 
BRANCH  27  29
HETATM   29  C   UNL     1     -11.852  15.774  70.740  1.00  0.00    -0.404 C  
HETATM   30  C   UNL     1     -13.151  14.972  70.607  1.00  0.00    -0.365 C  
HETATM   31  C   UNL     1     -13.315  13.911  71.694  1.00  0.00    -0.437 C  
HETATM   32  C   UNL     1     -13.157  14.504  73.090  1.00  0.00    -0.553 C  
HETATM   33  C   UNL     1     -11.836  15.251  73.238  1.00  0.00    -0.476 C  
HETATM   34  C   UNL     1     -11.674  16.324  72.162  1.00  0.00    -0.531 C  
ENDBRANCH  27  29
ENDBRANCH  25  27
ENDBRANCH  23  25
ENDBRANCH  20  23
ENDBRANCH  17  20
ENDBRANCH  13  14
ENDBRANCH  12  13
ENDBRANCH  10  12
ENDBRANCH   5   8
TORSDOF 9
ENDMDL
MODEL      221
REMARK 921   NORMALIZED FREE ENERGY PREDICTED BY IDOCK:   -4.51 KCAL/MOL
REMARK 922        TOTAL FREE ENERGY PREDICTED BY IDOCK:   -8.38 KCAL/MOL
REMARK 923 INTER-LIGAND FREE ENERGY PREDICTED BY IDOCK:   -7.59 KCAL/MOL
REMARK 924 INTRA-LIGAND FREE ENERGY PREDICTED BY IDOCK:   -0.79 KCAL/MOL
REMARK 927      BINDING AFFINITY PREDICTED BY RF-SCORE:    0.00 PKD
ROOT
HETATM    1  C   UNL     1     -11.671  12.684  63.476  1.00  0.00    -0.604 C  
HETATM    2  C   UNL     1     -11.694  12.831  64.964  1.00  0.00    -0.354 A  
HETATM    3  N   UNL     1     -11.361  11.747  65.708  1.00  0.00    -0.292 NA 
HETATM    4  C   UNL     1     -11.427  11.909  67.054  1.00  0.00    -0.316 A  
HETATM    5  C   UNL     1     -11.807  13.107  67.639  1.00  0.00    -0.359 A  
HETATM    6  C   UNL     1     -12.061  14.037  65.563  1.00  0.00    -0.410 A  
HETATM    7  N   UNL     1     -12.129  14.213  66.907  1.00  0.00    -0.446 NA 
ENDROOT
BRANCH   5   8
HETATM    8  C   UNL     1     -11.909  13.194  69.122  1.00  0.00    -0.314 C  
HETATM    9  O   UNL     1     -11.512  14.188  69.721  1.00  0.00    -0.262 OA 
HETATM   10  N   UNL     1     -12.449  12.089  69.750  1.00  0.00    -0.004 N  
HETATM   11  H   UNL     1     -12.833  11.332  69.185  1.00  0.00     0.000 HD 
BRANCH  10  12
HETATM   12  C   UNL     1     -12.484  11.980  71.196  1.00  0.00    -0.249 C  
BRANCH  12  13
HETATM   13  C   UNL     1     -13.095  10.657  71.685  1.00  0.00    -0.555 C  
BRANCH  13  14
HETATM   14  C   UNL     1     -12.113   9.504  71.786  1.00  0.00    -0.459 A  
HETATM   15  C   UNL     1     -10.804   9.607  71.293  1.00  0.00    -0.366 A  
HETATM   16  C   UNL     1      -9.924   8.524  71.351  1.00  0.00    -0.301 A  
HETATM   17  C   UNL     1     -10.321   7.336  71.962  1.00  0.00    -0.192 A  
HETATM   18  C   UNL     1     -11.605   7.226  72.506  1.00  0.00    -0.285 A  
HETATM   19  C   UNL     1     -12.490   8.307  72.423  1.00  0.00    -0.355 A  
BRANCH  17  20
HETATM   20  S   UNL     1      -9.237   5.929  71.907  1.00  0.00    -0.146 S  
HETATM   21  O   UNL     1     -10.031   4.720  71.937  1.00  0.00    -0.175 OA 
HETATM   22  O   UNL     1      -8.201   6.145  72.898  1.00  0.00    -0.116 OA 
BRANCH  20  23
HETATM   23  N   UNL     1      -8.456   6.055  70.443  1.00  0.00    -0.130 N  
HETATM   24  H   UNL     1      -7.500   6.411  70.444  1.00  0.00     0.000 HD 
BRANCH  23  25
HETATM   25  C   UNL     1      -9.011   5.712  69.223  1.00  0.00    -0.113 C  
HETATM   26  O   UNL     1      -9.906   6.348  68.692  1.00  0.00    -0.138 OA 
BRANCH  25  27
HETATM   27  N   UNL     1      -8.445   4.601  68.662  1.00  0.00    -0.085 N  
HETATM   28  H   UNL     1      -7.960   3.929  69.255  1.00  0.00     0.000 HD 
BRANCH  27  29
HETATM   29  C   UNL     1      -8.529   4.368  67.224  1.00  0.00    -0.104 C  
HETATM   30  C   UNL     1      -7.145   4.109  66.617  1.00  0.00    -0.060 C  
HETATM   31  C   UNL     1      -6.602   2.717  66.934  1.00  0.00    -0.036 C  
HETATM   32  C   UNL     1      -7.597   1.624  66.559  1.00  0.00    -0.061 C  
HETATM   33  C   UNL     1      -8.955   1.852  67.213  1.00  0.00    -0.160 C  
HETATM   34  C   UNL     1      -9.511   3.238  66.886  1.00  0.00    -0.145 C  
ENDBRANCH  27  29
ENDBRANCH  25  27
ENDBRANCH  23  25
ENDBRANCH  20  23
ENDBRANCH  17  20
ENDBRANCH  13  14
ENDBRANCH  12  13
ENDBRANCH  10  12
ENDBRANCH   5   8
TORSDOF 9
ENDMDL
MODEL      222
REMARK 921   NORMALIZED FREE ENERGY PREDICTED BY IDOCK:   -4.50 KCAL/MOL
REMARK 922        TOTAL FREE ENERGY PREDICTED BY IDOCK:   -8.36 KCAL/MOL
REMARK 923 INTER-LIGAND FREE ENERGY PREDICTED BY IDOCK:   -6.51 KCAL/MOL
REMARK 924 INTRA-LIGAND FREE ENERGY PREDICTED BY IDOCK:   -1.85 KCAL/MOL
REMARK 927      BINDING AFFINITY PREDICTED BY RF-SCORE:    0.00 PKD
ROOT
HETATM    1  C   UNL     1     -10.422   6.544  74.022  1.00  0.00    -0.306 C  
HETATM    2  C   UNL     1     -10.631   7.629  73.013  1.00  0.00    -0.375 A  
HETATM    3  N   UNL     1     -11.909   7.965  72.707  1.00  0.00    -0.304 NA 
HETATM    4  C   UNL     1     -12.057   8.928  71.763  1.00  0.00    -0.362 A  
HETATM    5  C   UNL     1     -10.974   9.540  71.149  1.00  0.00    -0.368 A  
HETATM    6  C   UNL     1      -9.547   8.260  72.401  1.00  0.00    -0.294 A  
HETATM    7  N   UNL     1      -9.682   9.227  71.457  1.00  0.00    -0.261 NA 
ENDROOT
BRANCH   5   8
HETATM    8  C   UNL     1     -11.215  10.551  70.083  1.00  0.00    -0.315 C  
HETATM    9  O   UNL     1     -12.337  11.008  69.893  1.00  0.00    -0.322 OA 
HETATM   10  N   UNL     1     -10.109  10.905  69.334  1.00  0.00    -0.411 N  
HETATM   11  H   UNL     1      -9.192  10.548  69.600  1.00  0.00     0.000 HD 
BRANCH  10  12
HETATM   12  C   UNL     1     -10.223  11.774  68.179  1.00  0.00    -0.203 C  
BRANCH  12  13
HETATM   13  C   UNL     1     -10.769  11.053  66.936  1.00  0.00    -0.325 C  
BRANCH  13  14
HETATM   14  C   UNL     1     -10.112   9.717  66.638  1.00  0.00    -0.307 A  
HETATM   15  C   UNL     1      -8.962   9.624  65.840  1.00  0.00    -0.203 A  
HETATM   16  C   UNL     1      -8.394   8.385  65.537  1.00  0.00    -0.161 A  
HETATM   17  C   UNL     1      -8.933   7.220  66.079  1.00  0.00    -0.116 A  
HETATM   18  C   UNL     1     -10.049   7.291  66.917  1.00  0.00    -0.317 A  
HETATM   19  C   UNL     1     -10.628   8.534  67.199  1.00  0.00    -0.314 A  
BRANCH  17  20
HETATM   20  S   UNL     1      -8.279   5.646  65.574  1.00  0.00    -0.135 S  
HETATM   21  O   UNL     1      -7.782   5.754  64.220  1.00  0.00    -0.083 OA 
HETATM   22  O   UNL     1      -9.270   4.641  65.909  1.00  0.00    -0.130 OA 
BRANCH  20  23
HETATM   23  N   UNL     1      -7.015   5.359  66.619  1.00  0.00    -0.063 N  
HETATM   24  H   UNL     1      -6.333   6.106  66.754  1.00  0.00     0.000 HD 
BRANCH  23  25
HETATM   25  C   UNL     1      -6.823   4.180  67.315  1.00  0.00    -0.048 C  
HETATM   26  O   UNL     1      -6.029   3.320  66.971  1.00  0.00    -0.023 OA 
BRANCH  25  27
HETATM   27  N   UNL     1      -7.596   4.081  68.439  1.00  0.00    -0.065 N  
HETATM   28  H   UNL     1      -7.927   3.167  68.744  1.00  0.00     0.000 HD 
BRANCH  27  29
HETATM   29  C   UNL     1      -7.950   5.271  69.206  1.00  0.00    -0.088 C  
HETATM   30  C   UNL     1      -9.325   5.122  69.867  1.00  0.00    -0.196 C  
HETATM   31  C   UNL     1      -9.310   4.195  71.081  1.00  0.00    -0.219 C  
HETATM   32  C   UNL     1      -8.239   4.602  72.088  1.00  0.00    -0.110 C  
HETATM   33  C   UNL     1      -6.862   4.691  71.440  1.00  0.00    -0.035 C  
HETATM   34  C   UNL     1      -6.868   5.629  70.234  1.00  0.00    -0.053 C  
ENDBRANCH  27  29
ENDBRANCH  25  27
ENDBRANCH  23  25
ENDBRANCH  20  23
ENDBRANCH  17  20
ENDBRANCH  13  14
ENDBRANCH  12  13
ENDBRANCH  10  12
ENDBRANCH   5   8
TORSDOF 9
ENDMDL
MODEL      223
REMARK 921   NORMALIZED FREE ENERGY PREDICTED BY IDOCK:   -4.50 KCAL/MOL
REMARK 922        TOTAL FREE ENERGY PREDICTED BY IDOCK:   -8.36 KCAL/MOL
REMARK 923 INTER-LIGAND FREE ENERGY PREDICTED BY IDOCK:   -7.12 KCAL/MOL
REMARK 924 INTRA-LIGAND FREE ENERGY PREDICTED BY IDOCK:   -1.24 KCAL/MOL
REMARK 927      BINDING AFFINITY PREDICTED BY RF-SCORE:    0.00 PKD
ROOT
HETATM    1  C   UNL     1      -7.862   5.767  64.095  1.00  0.00    -0.118 C  
HETATM    2  C   UNL     1      -7.819   6.606  65.333  1.00  0.00    -0.111 A  
HETATM    3  N   UNL     1      -7.301   7.856  65.227  1.00  0.00    -0.071 NA 
HETATM    4  C   UNL     1      -7.247   8.572  66.378  1.00  0.00    -0.079 A  
HETATM    5  C   UNL     1      -7.695   8.068  67.589  1.00  0.00    -0.110 A  
HETATM    6  C   UNL     1      -8.281   6.112  66.553  1.00  0.00    -0.111 A  
HETATM    7  N   UNL     1      -8.235   6.820  67.711  1.00  0.00    -0.119 NA 
ENDROOT
BRANCH   5   8
HETATM    8  C   UNL     1      -7.554   8.893  68.820  1.00  0.00    -0.091 C  
HETATM    9  O   UNL     1      -8.024   8.514  69.888  1.00  0.00    -0.100 OA 
HETATM   10  N   UNL     1      -6.890  10.095  68.662  1.00  0.00    -0.057 N  
HETATM   11  H   UNL     1      -6.454  10.309  67.765  1.00  0.00     0.000 HD 
BRANCH  10  12
HETATM   12  C   UNL     1      -6.798  11.058  69.742  1.00  0.00    -0.116 C  
BRANCH  12  13
HETATM   13  C   UNL     1      -6.040  12.335  69.345  1.00  0.00    -0.107 C  
BRANCH  13  14
HETATM   14  C   UNL     1      -6.923  13.473  68.865  1.00  0.00    -0.108 A  
HETATM   15  C   UNL     1      -7.523  13.454  67.597  1.00  0.00    -0.182 A  
HETATM   16  C   UNL     1      -8.295  14.528  67.150  1.00  0.00    -0.226 A  
HETATM   17  C   UNL     1      -8.531  15.614  67.990  1.00  0.00    -0.146 A  
HETATM   18  C   UNL     1      -7.985  15.634  69.277  1.00  0.00    -0.237 A  
HETATM   19  C   UNL     1      -7.191  14.565  69.710  1.00  0.00    -0.005 A  
BRANCH  17  20
HETATM   20  S   UNL     1      -9.403  17.027  67.355  1.00  0.00    -0.242 S  
HETATM   21  O   UNL     1      -9.410  16.968  65.910  1.00  0.00    -0.498 OA 
HETATM   22  O   UNL     1      -8.878  18.197  68.034  1.00  0.00    -0.266 OA 
BRANCH  20  23
HETATM   23  N   UNL     1     -10.954  16.862  67.935  1.00  0.00    -0.309 N  
HETATM   24  H   UNL     1     -11.429  17.702  68.267  1.00  0.00     0.000 HD 
BRANCH  23  25
HETATM   25  C   UNL     1     -11.646  15.665  67.999  1.00  0.00    -0.239 C  
HETATM   26  O   UNL     1     -11.711  14.879  67.068  1.00  0.00    -0.348 OA 
BRANCH  25  27
HETATM   27  N   UNL     1     -12.231  15.440  69.213  1.00  0.00    -0.582 N  
HETATM   28  H   UNL     1     -13.172  15.791  69.392  1.00  0.00     0.000 HD 
BRANCH  27  29
HETATM   29  C   UNL     1     -11.524  14.704  70.257  1.00  0.00    -0.246 C  
HETATM   30  C   UNL     1     -10.960  15.648  71.325  1.00  0.00    -0.195 C  
HETATM   31  C   UNL     1     -12.031  16.195  72.267  1.00  0.00    -0.637 C  
HETATM   32  C   UNL     1     -12.865  15.078  72.884  1.00  0.00    -0.542 C  
HETATM   33  C   UNL     1     -13.473  14.176  71.816  1.00  0.00    -0.471 C  
HETATM   34  C   UNL     1     -12.405  13.613  70.880  1.00  0.00    -0.450 C  
ENDBRANCH  27  29
ENDBRANCH  25  27
ENDBRANCH  23  25
ENDBRANCH  20  23
ENDBRANCH  17  20
ENDBRANCH  13  14
ENDBRANCH  12  13
ENDBRANCH  10  12
ENDBRANCH   5   8
TORSDOF 9
ENDMDL
MODEL      224
REMARK 921   NORMALIZED FREE ENERGY PREDICTED BY IDOCK:   -4.45 KCAL/MOL
REMARK 922        TOTAL FREE ENERGY PREDICTED BY IDOCK:   -8.29 KCAL/MOL
REMARK 923 INTER-LIGAND FREE ENERGY PREDICTED BY IDOCK:   -6.91 KCAL/MOL
REMARK 924 INTRA-LIGAND FREE ENERGY PREDICTED BY IDOCK:   -1.38 KCAL/MOL
REMARK 927      BINDING AFFINITY PREDICTED BY RF-SCORE:    0.00 PKD
ROOT
HETATM    1  C   UNL     1      -9.389  17.883  68.551  1.00  0.00    -0.299 C  
HETATM    2  C   UNL     1      -9.934  16.646  67.912  1.00  0.00    -0.254 A  
HETATM    3  N   UNL     1     -11.271  16.432  67.994  1.00  0.00    -0.289 NA 
HETATM    4  C   UNL     1     -11.722  15.282  67.432  1.00  0.00    -0.109 A  
HETATM    5  C   UNL     1     -10.875  14.379  66.806  1.00  0.00    -0.301 A  
HETATM    6  C   UNL     1      -9.092  15.739  67.267  1.00  0.00    -0.207 A  
HETATM    7  N   UNL     1      -9.531  14.586  66.699  1.00  0.00    -0.270 NA 
ENDROOT
BRANCH   5   8
HETATM    8  C   UNL     1     -11.436  13.113  66.260  1.00  0.00    -0.334 C  
HETATM    9  O   UNL     1     -12.645  12.974  66.108  1.00  0.00    -0.421 OA 
HETATM   10  N   UNL     1     -10.512  12.128  65.966  1.00  0.00    -0.241 N  
HETATM   11  H   UNL     1      -9.517  12.340  66.039  1.00  0.00     0.000 HD 
BRANCH  10  12
HETATM   12  C   UNL     1     -10.924  10.800  65.557  1.00  0.00     0.113 C  
BRANCH  12  13
HETATM   13  C   UNL     1      -9.739   9.871  65.244  1.00  0.00    -0.383 C  
BRANCH  13  14
HETATM   14  C   UNL     1      -9.439   8.843  66.320  1.00  0.00    -0.304 A  
HETATM   15  C   UNL     1      -8.442   9.056  67.284  1.00  0.00    -0.114 A  
HETATM   16  C   UNL     1      -8.144   8.082  68.239  1.00  0.00    -0.126 A  
HETATM   17  C   UNL     1      -8.883   6.903  68.285  1.00  0.00    -0.122 A  
HETATM   18  C   UNL     1      -9.915   6.688  67.366  1.00  0.00    -0.185 A  
HETATM   19  C   UNL     1     -10.193   7.658  66.396  1.00  0.00    -0.036 A  
BRANCH  17  20
HETATM   20  S   UNL     1      -8.401   5.622  69.421  1.00  0.00    -0.107 S  
HETATM   21  O   UNL     1      -7.034   5.238  69.146  1.00  0.00    -0.053 OA 
HETATM   22  O   UNL     1      -9.454   4.624  69.415  1.00  0.00    -0.137 OA 
BRANCH  20  23
HETATM   23  N   UNL     1      -8.499   6.332  70.923  1.00  0.00    -0.130 N  
HETATM   24  H   UNL     1      -7.712   6.905  71.229  1.00  0.00     0.000 HD 
BRANCH  23  25
HETATM   25  C   UNL     1      -9.570   6.199  71.787  1.00  0.00    -0.150 C  
HETATM   26  O   UNL     1      -9.802   5.179  72.416  1.00  0.00    -0.160 OA 
BRANCH  25  27
HETATM   27  N   UNL     1     -10.333   7.329  71.884  1.00  0.00    -0.188 N  
HETATM   28  H   UNL     1     -10.258   7.919  72.712  1.00  0.00     0.000 HD 
BRANCH  27  29
HETATM   29  C   UNL     1     -11.254   7.701  70.814  1.00  0.00    -0.268 C  
HETATM   30  C   UNL     1     -12.694   7.295  71.148  1.00  0.00    -0.349 C  
HETATM   31  C   UNL     1     -13.347   8.201  72.190  1.00  0.00    -0.249 C  
HETATM   32  C   UNL     1     -13.251   9.671  71.799  1.00  0.00    -0.520 C  
HETATM   33  C   UNL     1     -11.809  10.087  71.525  1.00  0.00    -0.406 C  
HETATM   34  C   UNL     1     -11.156   9.194  70.472  1.00  0.00    -0.308 C  
ENDBRANCH  27  29
ENDBRANCH  25  27
ENDBRANCH  23  25
ENDBRANCH  20  23
ENDBRANCH  17  20
ENDBRANCH  13  14
ENDBRANCH  12  13
ENDBRANCH  10  12
ENDBRANCH   5   8
TORSDOF 9
ENDMDL
MODEL      225
REMARK 921   NORMALIZED FREE ENERGY PREDICTED BY IDOCK:   -4.44 KCAL/MOL
REMARK 922        TOTAL FREE ENERGY PREDICTED BY IDOCK:   -8.28 KCAL/MOL
REMARK 923 INTER-LIGAND FREE ENERGY PREDICTED BY IDOCK:   -6.96 KCAL/MOL
REMARK 924 INTRA-LIGAND FREE ENERGY PREDICTED BY IDOCK:   -1.32 KCAL/MOL
REMARK 927      BINDING AFFINITY PREDICTED BY RF-SCORE:    0.00 PKD
ROOT
HETATM    1  C   UNL     1     -12.222  13.140  63.469  1.00  0.00    -0.552 C  
HETATM    2  C   UNL     1     -12.036  13.093  64.952  1.00  0.00    -0.388 A  
HETATM    3  N   UNL     1     -11.815  11.881  65.520  1.00  0.00    -0.362 NA 
HETATM    4  C   UNL     1     -11.685  11.875  66.870  1.00  0.00    -0.212 A  
HETATM    5  C   UNL     1     -11.767  13.032  67.629  1.00  0.00    -0.366 A  
HETATM    6  C   UNL     1     -12.101  14.254  65.723  1.00  0.00    -0.405 A  
HETATM    7  N   UNL     1     -11.970  14.262  67.075  1.00  0.00    -0.431 NA 
ENDROOT
BRANCH   5   8
HETATM    8  C   UNL     1     -11.668  12.940  69.112  1.00  0.00    -0.324 C  
HETATM    9  O   UNL     1     -11.039  13.776  69.753  1.00  0.00    -0.119 OA 
HETATM   10  N   UNL     1     -12.305  11.858  69.688  1.00  0.00    -0.119 N  
HETATM   11  H   UNL     1     -12.878  11.249  69.105  1.00  0.00     0.000 HD 
BRANCH  10  12
HETATM   12  C   UNL     1     -12.178  11.569  71.103  1.00  0.00    -0.182 C  
BRANCH  12  13
HETATM   13  C   UNL     1     -12.770  10.204  71.493  1.00  0.00    -0.541 C  
BRANCH  13  14
HETATM   14  C   UNL     1     -11.971   9.006  71.012  1.00  0.00    -0.323 A  
HETATM   15  C   UNL     1     -10.895   9.148  70.123  1.00  0.00    -0.269 A  
HETATM   16  C   UNL     1     -10.197   8.034  69.652  1.00  0.00    -0.208 A  
HETATM   17  C   UNL     1     -10.526   6.761  70.112  1.00  0.00    -0.209 A  
HETATM   18  C   UNL     1     -11.562   6.598  71.037  1.00  0.00    -0.399 A  
HETATM   19  C   UNL     1     -12.273   7.717  71.487  1.00  0.00    -0.344 A  
BRANCH  17  20
HETATM   20  S   UNL     1      -9.717   5.347  69.401  1.00  0.00    -0.182 S  
HETATM   21  O   UNL     1     -10.354   4.144  69.889  1.00  0.00     0.144 OA 
HETATM   22  O   UNL     1      -8.289   5.537  69.572  1.00  0.00    -0.099 OA 
BRANCH  20  23
HETATM   23  N   UNL     1      -9.971   5.495  67.763  1.00  0.00    -0.145 N  
HETATM   24  H   UNL     1     -10.909   5.305  67.409  1.00  0.00     0.000 HD 
BRANCH  23  25
HETATM   25  C   UNL     1      -9.000   5.859  66.847  1.00  0.00    -0.115 C  
HETATM   26  O   UNL     1      -8.506   5.079  66.049  1.00  0.00    -0.113 OA 
BRANCH  25  27
HETATM   27  N   UNL     1      -8.664   7.182  66.908  1.00  0.00    -0.122 N  
HETATM   28  H   UNL     1      -9.372   7.871  67.165  1.00  0.00     0.000 HD 
BRANCH  27  29
HETATM   29  C   UNL     1      -7.304   7.621  66.609  1.00  0.00    -0.088 C  
HETATM   30  C   UNL     1      -7.209   8.237  65.209  1.00  0.00    -0.079 C  
HETATM   31  C   UNL     1      -7.809   9.639  65.128  1.00  0.00    -0.117 C  
HETATM   32  C   UNL     1      -7.229  10.563  66.192  1.00  0.00    -0.136 C  
HETATM   33  C   UNL     1      -7.379   9.975  67.591  1.00  0.00    -0.089 C  
HETATM   34  C   UNL     1      -6.767   8.578  67.682  1.00  0.00    -0.066 C  
ENDBRANCH  27  29
ENDBRANCH  25  27
ENDBRANCH  23  25
ENDBRANCH  20  23
ENDBRANCH  17  20
ENDBRANCH  13  14
ENDBRANCH  12  13
ENDBRANCH  10  12
ENDBRANCH   5   8
TORSDOF 9
ENDMDL
MODEL      226
REMARK 921   NORMALIZED FREE ENERGY PREDICTED BY IDOCK:   -4.44 KCAL/MOL
REMARK 922        TOTAL FREE ENERGY PREDICTED BY IDOCK:   -8.27 KCAL/MOL
REMARK 923 INTER-LIGAND FREE ENERGY PREDICTED BY IDOCK:   -6.86 KCAL/MOL
REMARK 924 INTRA-LIGAND FREE ENERGY PREDICTED BY IDOCK:   -1.41 KCAL/MOL
REMARK 927      BINDING AFFINITY PREDICTED BY RF-SCORE:    0.00 PKD
ROOT
HETATM    1  C   UNL     1     -10.131  19.807  66.303  1.00  0.00    -0.601 C  
HETATM    2  C   UNL     1     -10.349  18.355  66.592  1.00  0.00    -0.396 A  
HETATM    3  N   UNL     1     -10.333  17.496  65.542  1.00  0.00    -0.636 NA 
HETATM    4  C   UNL     1     -10.569  16.194  65.841  1.00  0.00    -0.312 A  
HETATM    5  C   UNL     1     -10.806  15.759  67.136  1.00  0.00    -0.289 A  
HETATM    6  C   UNL     1     -10.574  17.907  67.894  1.00  0.00    -0.376 A  
HETATM    7  N   UNL     1     -10.809  16.606  68.206  1.00  0.00    -0.348 NA 
ENDROOT
BRANCH   5   8
HETATM    8  C   UNL     1     -11.110  14.322  67.379  1.00  0.00    -0.304 C  
HETATM    9  O   UNL     1     -11.972  13.743  66.727  1.00  0.00    -0.388 OA 
HETATM   10  N   UNL     1     -10.380  13.718  68.385  1.00  0.00    -0.243 N  
HETATM   11  H   UNL     1      -9.623  14.236  68.831  1.00  0.00     0.000 HD 
BRANCH  10  12
HETATM   12  C   UNL     1     -10.665  12.365  68.820  1.00  0.00    -0.209 C  
BRANCH  12  13
HETATM   13  C   UNL     1      -9.537  11.375  68.484  1.00  0.00    -0.190 C  
BRANCH  13  14
HETATM   14  C   UNL     1      -9.719   9.985  69.065  1.00  0.00    -0.204 A  
HETATM   15  C   UNL     1      -9.059   9.584  70.236  1.00  0.00    -0.296 A  
HETATM   16  C   UNL     1      -9.199   8.288  70.735  1.00  0.00    -0.174 A  
HETATM   17  C   UNL     1     -10.055   7.388  70.104  1.00  0.00    -0.197 A  
HETATM   18  C   UNL     1     -10.763   7.779  68.963  1.00  0.00    -0.119 A  
HETATM   19  C   UNL     1     -10.599   9.073  68.454  1.00  0.00    -0.200 A  
BRANCH  17  20
HETATM   20  S   UNL     1     -10.117   5.705  70.674  1.00  0.00    -0.225 S  
HETATM   21  O   UNL     1     -10.427   4.839  69.558  1.00  0.00    -0.128 OA 
HETATM   22  O   UNL     1     -10.945   5.685  71.865  1.00  0.00    -0.250 OA 
BRANCH  20  23
HETATM   23  N   UNL     1      -8.577   5.389  71.223  1.00  0.00    -0.125 N  
HETATM   24  H   UNL     1      -8.455   5.225  72.223  1.00  0.00     0.000 HD 
BRANCH  23  25
HETATM   25  C   UNL     1      -7.453   5.333  70.420  1.00  0.00    -0.071 C  
HETATM   26  O   UNL     1      -6.317   5.269  70.861  1.00  0.00    -0.022 OA 
BRANCH  25  27
HETATM   27  N   UNL     1      -7.739   5.335  69.084  1.00  0.00    -0.080 N  
HETATM   28  H   UNL     1      -8.688   5.129  68.771  1.00  0.00     0.000 HD 
BRANCH  27  29
HETATM   29  C   UNL     1      -6.702   5.630  68.099  1.00  0.00    -0.054 C  
HETATM   30  C   UNL     1      -6.892   4.803  66.822  1.00  0.00    -0.055 C  
HETATM   31  C   UNL     1      -8.037   5.306  65.946  1.00  0.00    -0.110 C  
HETATM   32  C   UNL     1      -7.903   6.795  65.642  1.00  0.00    -0.105 C  
HETATM   33  C   UNL     1      -7.775   7.620  66.917  1.00  0.00    -0.103 C  
HETATM   34  C   UNL     1      -6.621   7.131  67.791  1.00  0.00    -0.053 C  
ENDBRANCH  27  29
ENDBRANCH  25  27
ENDBRANCH  23  25
ENDBRANCH  20  23
ENDBRANCH  17  20
ENDBRANCH  13  14
ENDBRANCH  12  13
ENDBRANCH  10  12
ENDBRANCH   5   8
TORSDOF 9
ENDMDL
MODEL      227
REMARK 921   NORMALIZED FREE ENERGY PREDICTED BY IDOCK:   -4.44 KCAL/MOL
REMARK 922        TOTAL FREE ENERGY PREDICTED BY IDOCK:   -8.27 KCAL/MOL
REMARK 923 INTER-LIGAND FREE ENERGY PREDICTED BY IDOCK:   -7.85 KCAL/MOL
REMARK 924 INTRA-LIGAND FREE ENERGY PREDICTED BY IDOCK:   -0.42 KCAL/MOL
REMARK 927      BINDING AFFINITY PREDICTED BY RF-SCORE:    0.00 PKD
ROOT
HETATM    1  C   UNL     1      -8.123   2.111  68.338  1.00  0.00    -0.068 C  
HETATM    2  C   UNL     1      -8.690   3.112  69.294  1.00  0.00    -0.081 A  
HETATM    3  N   UNL     1      -8.474   2.910  70.618  1.00  0.00    -0.055 NA 
HETATM    4  C   UNL     1      -9.033   3.820  71.454  1.00  0.00    -0.107 A  
HETATM    5  C   UNL     1      -9.775   4.896  70.992  1.00  0.00    -0.185 A  
HETATM    6  C   UNL     1      -9.426   4.206  68.838  1.00  0.00    -0.169 A  
HETATM    7  N   UNL     1      -9.988   5.125  69.664  1.00  0.00    -0.221 NA 
ENDROOT
BRANCH   5   8
HETATM    8  C   UNL     1     -10.403   5.824  71.972  1.00  0.00    -0.208 C  
HETATM    9  O   UNL     1     -11.261   5.427  72.753  1.00  0.00    -0.272 OA 
HETATM   10  N   UNL     1      -9.969   7.135  71.918  1.00  0.00    -0.168 N  
HETATM   11  H   UNL     1      -9.195   7.378  71.301  1.00  0.00     0.000 HD 
BRANCH  10  12
HETATM   12  C   UNL     1     -10.589   8.173  72.718  1.00  0.00    -0.316 C  
BRANCH  12  13
HETATM   13  C   UNL     1     -11.792   8.831  72.022  1.00  0.00    -0.442 C  
BRANCH  13  14
HETATM   14  C   UNL     1     -11.442   9.656  70.797  1.00  0.00    -0.399 A  
HETATM   15  C   UNL     1     -10.303   9.379  70.025  1.00  0.00    -0.265 A  
HETATM   16  C   UNL     1      -9.967  10.174  68.927  1.00  0.00    -0.207 A  
HETATM   17  C   UNL     1     -10.800  11.224  68.546  1.00  0.00    -0.205 A  
HETATM   18  C   UNL     1     -11.967  11.489  69.271  1.00  0.00    -0.397 A  
HETATM   19  C   UNL     1     -12.285  10.703  70.385  1.00  0.00    -0.432 A  
BRANCH  17  20
HETATM   20  S   UNL     1     -10.287  12.304  67.231  1.00  0.00    -0.215 S  
HETATM   21  O   UNL     1     -10.828  11.817  65.982  1.00  0.00    -0.277 OA 
HETATM   22  O   UNL     1      -8.858  12.509  67.377  1.00  0.00    -0.170 OA 
BRANCH  20  23
HETATM   23  N   UNL     1     -10.966  13.777  67.606  1.00  0.00    -0.260 N  
HETATM   24  H   UNL     1     -11.461  13.859  68.494  1.00  0.00     0.000 HD 
BRANCH  23  25
HETATM   25  C   UNL     1     -10.908  14.898  66.797  1.00  0.00    -0.320 C  
HETATM   26  O   UNL     1     -11.634  15.066  65.831  1.00  0.00    -0.291 OA 
BRANCH  25  27
HETATM   27  N   UNL     1      -9.971  15.809  67.199  1.00  0.00    -0.238 N  
HETATM   28  H   UNL     1      -9.531  15.710  68.113  1.00  0.00     0.000 HD 
BRANCH  27  29
HETATM   29  C   UNL     1      -9.594  16.922  66.333  1.00  0.00    -0.284 C  
HETATM   30  C   UNL     1     -10.272  18.225  66.769  1.00  0.00    -0.393 C  
HETATM   31  C   UNL     1      -9.651  18.834  68.025  1.00  0.00    -0.360 C  
HETATM   32  C   UNL     1      -8.142  19.001  67.884  1.00  0.00    -0.309 C  
HETATM   33  C   UNL     1      -7.464  17.688  67.509  1.00  0.00    -0.206 C  
HETATM   34  C   UNL     1      -8.071  17.083  66.244  1.00  0.00    -0.332 C  
ENDBRANCH  27  29
ENDBRANCH  25  27
ENDBRANCH  23  25
ENDBRANCH  20  23
ENDBRANCH  17  20
ENDBRANCH  13  14
ENDBRANCH  12  13
ENDBRANCH  10  12
ENDBRANCH   5   8
TORSDOF 9
ENDMDL
MODEL      228
REMARK 921   NORMALIZED FREE ENERGY PREDICTED BY IDOCK:   -4.44 KCAL/MOL
REMARK 922        TOTAL FREE ENERGY PREDICTED BY IDOCK:   -8.27 KCAL/MOL
REMARK 923 INTER-LIGAND FREE ENERGY PREDICTED BY IDOCK:   -7.72 KCAL/MOL
REMARK 924 INTRA-LIGAND FREE ENERGY PREDICTED BY IDOCK:   -0.55 KCAL/MOL
REMARK 927      BINDING AFFINITY PREDICTED BY RF-SCORE:    0.00 PKD
ROOT
HETATM    1  C   UNL     1     -10.081  20.373  68.244  1.00  0.00    -0.277 C  
HETATM    2  C   UNL     1     -10.099  19.033  67.580  1.00  0.00    -0.373 A  
HETATM    3  N   UNL     1     -10.448  18.986  66.270  1.00  0.00    -0.447 NA 
HETATM    4  C   UNL     1     -10.486  17.749  65.712  1.00  0.00    -0.198 A  
HETATM    5  C   UNL     1     -10.182  16.602  66.429  1.00  0.00    -0.315 A  
HETATM    6  C   UNL     1      -9.780  17.875  68.289  1.00  0.00    -0.327 A  
HETATM    7  N   UNL     1      -9.811  16.632  67.742  1.00  0.00    -0.247 NA 
ENDROOT
BRANCH   5   8
HETATM    8  C   UNL     1     -10.297  15.274  65.764  1.00  0.00    -0.344 C  
HETATM    9  O   UNL     1      -9.423  14.425  65.901  1.00  0.00    -0.256 OA 
HETATM   10  N   UNL     1     -11.424  15.091  64.985  1.00  0.00    -0.373 N  
HETATM   11  H   UNL     1     -12.149  15.808  64.982  1.00  0.00     0.000 HD 
BRANCH  10  12
HETATM   12  C   UNL     1     -11.599  13.903  64.174  1.00  0.00    -0.298 C  
BRANCH  12  13
HETATM   13  C   UNL     1     -12.323  12.768  64.918  1.00  0.00    -0.551 C  
BRANCH  13  14
HETATM   14  C   UNL     1     -11.404  11.741  65.555  1.00  0.00    -0.283 A  
HETATM   15  C   UNL     1     -10.520  10.967  64.787  1.00  0.00    -0.384 A  
HETATM   16  C   UNL     1      -9.714   9.994  65.379  1.00  0.00    -0.368 A  
HETATM   17  C   UNL     1      -9.732   9.821  66.761  1.00  0.00    -0.194 A  
HETATM   18  C   UNL     1     -10.568  10.614  67.554  1.00  0.00    -0.297 A  
HETATM   19  C   UNL     1     -11.392  11.572  66.951  1.00  0.00    -0.324 A  
BRANCH  17  20
HETATM   20  S   UNL     1      -8.800   8.489  67.481  1.00  0.00    -0.135 S  
HETATM   21  O   UNL     1      -8.307   8.903  68.775  1.00  0.00    -0.120 OA 
HETATM   22  O   UNL     1      -7.878   8.013  66.467  1.00  0.00    -0.094 OA 
BRANCH  20  23
HETATM   23  N   UNL     1      -9.901   7.254  67.664  1.00  0.00    -0.144 N  
HETATM   24  H   UNL     1     -10.772   7.313  67.135  1.00  0.00     0.000 HD 
BRANCH  23  25
HETATM   25  C   UNL     1      -9.720   6.155  68.484  1.00  0.00    -0.127 C  
HETATM   26  O   UNL     1     -10.322   5.104  68.339  1.00  0.00    -0.147 OA 
BRANCH  25  27
HETATM   27  N   UNL     1      -8.784   6.354  69.460  1.00  0.00    -0.133 N  
HETATM   28  H   UNL     1      -7.817   6.547  69.200  1.00  0.00     0.000 HD 
BRANCH  27  29
HETATM   29  C   UNL     1      -9.154   6.295  70.871  1.00  0.00    -0.151 C  
HETATM   30  C   UNL     1      -7.952   5.934  71.751  1.00  0.00    -0.111 C  
HETATM   31  C   UNL     1      -6.972   7.092  71.932  1.00  0.00    -0.065 C  
HETATM   32  C   UNL     1      -7.674   8.354  72.423  1.00  0.00    -0.145 C  
HETATM   33  C   UNL     1      -8.832   8.743  71.511  1.00  0.00    -0.295 C  
HETATM   34  C   UNL     1      -9.824   7.594  71.339  1.00  0.00    -0.195 C  
ENDBRANCH  27  29
ENDBRANCH  25  27
ENDBRANCH  23  25
ENDBRANCH  20  23
ENDBRANCH  17  20
ENDBRANCH  13  14
ENDBRANCH  12  13
ENDBRANCH  10  12
ENDBRANCH   5   8
TORSDOF 9
ENDMDL
MODEL      229
REMARK 921   NORMALIZED FREE ENERGY PREDICTED BY IDOCK:   -4.43 KCAL/MOL
REMARK 922        TOTAL FREE ENERGY PREDICTED BY IDOCK:   -8.26 KCAL/MOL
REMARK 923 INTER-LIGAND FREE ENERGY PREDICTED BY IDOCK:   -6.85 KCAL/MOL
REMARK 924 INTRA-LIGAND FREE ENERGY PREDICTED BY IDOCK:   -1.41 KCAL/MOL
REMARK 927      BINDING AFFINITY PREDICTED BY RF-SCORE:    0.00 PKD
ROOT
HETATM    1  C   UNL     1     -12.712   8.609  72.252  1.00  0.00    -0.450 C  
HETATM    2  C   UNL     1     -11.969   7.458  71.651  1.00  0.00    -0.307 A  
HETATM    3  N   UNL     1     -11.251   6.668  72.488  1.00  0.00    -0.262 NA 
HETATM    4  C   UNL     1     -10.564   5.655  71.901  1.00  0.00    -0.232 A  
HETATM    5  C   UNL     1     -10.594   5.433  70.533  1.00  0.00    -0.242 A  
HETATM    6  C   UNL     1     -12.005   7.217  70.277  1.00  0.00    -0.077 A  
HETATM    7  N   UNL     1     -11.325   6.206  69.678  1.00  0.00    -0.426 NA 
ENDROOT
BRANCH   5   8
HETATM    8  C   UNL     1      -9.771   4.334  69.954  1.00  0.00    -0.221 C  
HETATM    9  O   UNL     1      -9.141   3.573  70.680  1.00  0.00    -0.093 OA 
HETATM   10  N   UNL     1      -9.759   4.259  68.574  1.00  0.00    -0.129 N  
HETATM   11  H   UNL     1     -10.371   4.873  68.037  1.00  0.00     0.000 HD 
BRANCH  10  12
HETATM   12  C   UNL     1      -8.897   3.328  67.874  1.00  0.00    -0.126 C  
BRANCH  12  13
HETATM   13  C   UNL     1      -7.667   4.004  67.245  1.00  0.00    -0.084 C  
BRANCH  13  14
HETATM   14  C   UNL     1      -7.793   5.506  67.063  1.00  0.00    -0.101 A  
HETATM   15  C   UNL     1      -8.495   6.060  65.982  1.00  0.00    -0.139 A  
HETATM   16  C   UNL     1      -8.564   7.442  65.800  1.00  0.00    -0.150 A  
HETATM   17  C   UNL     1      -7.984   8.297  66.735  1.00  0.00    -0.099 A  
HETATM   18  C   UNL     1      -7.321   7.770  67.847  1.00  0.00    -0.102 A  
HETATM   19  C   UNL     1      -7.234   6.382  68.011  1.00  0.00    -0.087 A  
BRANCH  17  20
HETATM   20  S   UNL     1      -7.967  10.046  66.416  1.00  0.00    -0.119 S  
HETATM   21  O   UNL     1      -8.368  10.280  65.046  1.00  0.00    -0.159 OA 
HETATM   22  O   UNL     1      -6.701  10.560  66.903  1.00  0.00    -0.078 OA 
BRANCH  20  23
HETATM   23  N   UNL     1      -9.107  10.675  67.454  1.00  0.00    -0.139 N  
HETATM   24  H   UNL     1      -8.775  11.105  68.318  1.00  0.00     0.000 HD 
BRANCH  23  25
HETATM   25  C   UNL     1     -10.471  10.655  67.228  1.00  0.00    -0.246 C  
HETATM   26  O   UNL     1     -11.253  10.007  67.904  1.00  0.00    -0.254 OA 
BRANCH  25  27
HETATM   27  N   UNL     1     -10.860  11.450  66.186  1.00  0.00    -0.273 N  
HETATM   28  H   UNL     1     -10.428  11.329  65.271  1.00  0.00     0.000 HD 
BRANCH  27  29
HETATM   29  C   UNL     1     -11.889  12.470  66.370  1.00  0.00    -0.381 C  
HETATM   30  C   UNL     1     -11.427  13.562  67.342  1.00  0.00    -0.366 C  
HETATM   31  C   UNL     1     -10.412  14.523  66.725  1.00  0.00    -0.270 C  
HETATM   32  C   UNL     1     -10.917  15.111  65.412  1.00  0.00    -0.381 C  
HETATM   33  C   UNL     1     -11.320  14.020  64.426  1.00  0.00    -0.330 C  
HETATM   34  C   UNL     1     -12.346  13.065  65.032  1.00  0.00    -0.526 C  
ENDBRANCH  27  29
ENDBRANCH  25  27
ENDBRANCH  23  25
ENDBRANCH  20  23
ENDBRANCH  17  20
ENDBRANCH  13  14
ENDBRANCH  12  13
ENDBRANCH  10  12
ENDBRANCH   5   8
TORSDOF 9
ENDMDL
MODEL      230
REMARK 921   NORMALIZED FREE ENERGY PREDICTED BY IDOCK:   -4.42 KCAL/MOL
REMARK 922        TOTAL FREE ENERGY PREDICTED BY IDOCK:   -8.24 KCAL/MOL
REMARK 923 INTER-LIGAND FREE ENERGY PREDICTED BY IDOCK:   -8.16 KCAL/MOL
REMARK 924 INTRA-LIGAND FREE ENERGY PREDICTED BY IDOCK:   -0.08 KCAL/MOL
REMARK 927      BINDING AFFINITY PREDICTED BY RF-SCORE:    0.00 PKD
ROOT
HETATM    1  C   UNL     1      -6.375   5.495  65.065  1.00  0.00    -0.038 C  
HETATM    2  C   UNL     1      -7.071   6.197  66.187  1.00  0.00    -0.067 A  
HETATM    3  N   UNL     1      -6.382   6.375  67.342  1.00  0.00    -0.035 NA 
HETATM    4  C   UNL     1      -7.060   6.985  68.347  1.00  0.00    -0.082 A  
HETATM    5  C   UNL     1      -8.373   7.408  68.208  1.00  0.00    -0.125 A  
HETATM    6  C   UNL     1      -8.388   6.640  66.051  1.00  0.00    -0.134 A  
HETATM    7  N   UNL     1      -9.075   7.254  67.049  1.00  0.00    -0.130 NA 
ENDROOT
BRANCH   5   8
HETATM    8  C   UNL     1      -9.068   8.022  69.372  1.00  0.00    -0.148 C  
HETATM    9  O   UNL     1      -9.360   7.350  70.355  1.00  0.00    -0.161 OA 
HETATM   10  N   UNL     1      -9.369   9.366  69.249  1.00  0.00    -0.160 N  
HETATM   11  H   UNL     1      -9.024   9.881  68.440  1.00  0.00     0.000 HD 
BRANCH  10  12
HETATM   12  C   UNL     1     -10.162  10.059  70.245  1.00  0.00    -0.206 C  
BRANCH  12  13
HETATM   13  C   UNL     1     -11.567  10.430  69.743  1.00  0.00    -0.339 C  
BRANCH  13  14
HETATM   14  C   UNL     1     -11.590  11.182  68.424  1.00  0.00    -0.376 A  
HETATM   15  C   UNL     1     -11.131  10.597  67.235  1.00  0.00    -0.313 A  
HETATM   16  C   UNL     1     -11.114  11.315  66.038  1.00  0.00    -0.181 A  
HETATM   17  C   UNL     1     -11.617  12.614  65.998  1.00  0.00    -0.393 A  
HETATM   18  C   UNL     1     -12.126  13.202  67.160  1.00  0.00    -0.343 A  
HETATM   19  C   UNL     1     -12.117  12.485  68.362  1.00  0.00    -0.123 A  
BRANCH  17  20
HETATM   20  S   UNL     1     -11.464  13.557  64.498  1.00  0.00    -0.396 S  
HETATM   21  O   UNL     1     -12.695  13.452  63.747  1.00  0.00    -0.685 OA 
HETATM   22  O   UNL     1     -10.202  13.188  63.886  1.00  0.00    -0.365 OA 
BRANCH  20  23
HETATM   23  N   UNL     1     -11.244  15.126  65.008  1.00  0.00    -0.395 N  
HETATM   24  H   UNL     1     -11.940  15.818  64.726  1.00  0.00     0.000 HD 
BRANCH  23  25
HETATM   25  C   UNL     1     -10.186  15.559  65.785  1.00  0.00    -0.366 C  
HETATM   26  O   UNL     1      -9.103  14.999  65.815  1.00  0.00    -0.159 OA 
BRANCH  25  27
HETATM   27  N   UNL     1     -10.465  16.690  66.501  1.00  0.00    -0.290 N  
HETATM   28  H   UNL     1     -11.051  16.628  67.334  1.00  0.00     0.000 HD 
BRANCH  27  29
HETATM   29  C   UNL     1      -9.933  17.985  66.088  1.00  0.00    -0.285 C  
HETATM   30  C   UNL     1     -10.671  19.139  66.775  1.00  0.00    -0.488 C  
HETATM   31  C   UNL     1     -10.282  19.311  68.242  1.00  0.00    -0.513 C  
HETATM   32  C   UNL     1      -8.771  19.423  68.416  1.00  0.00    -0.397 C  
HETATM   33  C   UNL     1      -8.043  18.242  67.783  1.00  0.00    -0.256 C  
HETATM   34  C   UNL     1      -8.417  18.075  66.311  1.00  0.00    -0.214 C  
ENDBRANCH  27  29
ENDBRANCH  25  27
ENDBRANCH  23  25
ENDBRANCH  20  23
ENDBRANCH  17  20
ENDBRANCH  13  14
ENDBRANCH  12  13
ENDBRANCH  10  12
ENDBRANCH   5   8
TORSDOF 9
ENDMDL
MODEL      231
REMARK 921   NORMALIZED FREE ENERGY PREDICTED BY IDOCK:   -4.41 KCAL/MOL
REMARK 922        TOTAL FREE ENERGY PREDICTED BY IDOCK:   -8.23 KCAL/MOL
REMARK 923 INTER-LIGAND FREE ENERGY PREDICTED BY IDOCK:   -7.63 KCAL/MOL
REMARK 924 INTRA-LIGAND FREE ENERGY PREDICTED BY IDOCK:   -0.60 KCAL/MOL
REMARK 927      BINDING AFFINITY PREDICTED BY RF-SCORE:    0.00 PKD
ROOT
HETATM    1  C   UNL     1      -7.689   7.940  62.660  1.00  0.00    -0.132 C  
HETATM    2  C   UNL     1      -8.385   9.150  63.197  1.00  0.00    -0.193 A  
HETATM    3  N   UNL     1      -8.638  10.165  62.333  1.00  0.00    -0.172 NA 
HETATM    4  C   UNL     1      -9.239  11.259  62.866  1.00  0.00    -0.319 A  
HETATM    5  C   UNL     1      -9.580  11.340  64.207  1.00  0.00    -0.225 A  
HETATM    6  C   UNL     1      -8.745   9.235  64.542  1.00  0.00    -0.187 A  
HETATM    7  N   UNL     1      -9.348  10.323  65.087  1.00  0.00    -0.205 NA 
ENDROOT
BRANCH   5   8
HETATM    8  C   UNL     1     -10.188  12.594  64.731  1.00  0.00    -0.283 C  
HETATM    9  O   UNL     1     -11.042  13.194  64.087  1.00  0.00    -0.375 OA 
HETATM   10  N   UNL     1      -9.709  13.026  65.953  1.00  0.00    -0.411 N  
HETATM   11  H   UNL     1      -9.058  12.436  66.470  1.00  0.00     0.000 HD 
BRANCH  10  12
HETATM   12  C   UNL     1     -10.111  14.300  66.517  1.00  0.00    -0.278 C  
BRANCH  12  13
HETATM   13  C   UNL     1     -11.459  14.232  67.255  1.00  0.00    -0.371 C  
BRANCH  13  14
HETATM   14  C   UNL     1     -11.593  13.071  68.224  1.00  0.00    -0.375 A  
HETATM   15  C   UNL     1     -11.746  13.277  69.603  1.00  0.00    -0.369 A  
HETATM   16  C   UNL     1     -11.822  12.201  70.488  1.00  0.00    -0.185 A  
HETATM   17  C   UNL     1     -11.808  10.896  70.001  1.00  0.00    -0.347 A  
HETATM   18  C   UNL     1     -11.706  10.665  68.626  1.00  0.00    -0.228 A  
HETATM   19  C   UNL     1     -11.606  11.748  67.745  1.00  0.00    -0.374 A  
BRANCH  17  20
HETATM   20  S   UNL     1     -11.771   9.541  71.152  1.00  0.00    -0.391 S  
HETATM   21  O   UNL     1     -13.052   9.451  71.817  1.00  0.00    -0.352 OA 
HETATM   22  O   UNL     1     -10.553   9.671  71.929  1.00  0.00     0.034 OA 
BRANCH  20  23
HETATM   23  N   UNL     1     -11.528   8.192  70.207  1.00  0.00    -0.457 N  
HETATM   24  H   UNL     1     -12.323   7.836  69.675  1.00  0.00     0.000 HD 
BRANCH  23  25
HETATM   25  C   UNL     1     -10.326   7.518  70.093  1.00  0.00    -0.216 C  
HETATM   26  O   UNL     1      -9.751   7.008  71.041  1.00  0.00    -0.174 OA 
BRANCH  25  27
HETATM   27  N   UNL     1      -9.854   7.461  68.812  1.00  0.00    -0.160 N  
HETATM   28  H   UNL     1      -9.077   8.059  68.533  1.00  0.00     0.000 HD 
BRANCH  27  29
HETATM   29  C   UNL     1     -10.452   6.554  67.837  1.00  0.00    -0.222 C  
HETATM   30  C   UNL     1      -9.718   6.613  66.493  1.00  0.00    -0.176 C  
HETATM   31  C   UNL     1      -8.370   5.897  66.513  1.00  0.00    -0.112 C  
HETATM   32  C   UNL     1      -8.498   4.466  67.025  1.00  0.00    -0.104 C  
HETATM   33  C   UNL     1      -9.175   4.416  68.390  1.00  0.00    -0.186 C  
HETATM   34  C   UNL     1     -10.532   5.117  68.371  1.00  0.00    -0.084 C  
ENDBRANCH  27  29
ENDBRANCH  25  27
ENDBRANCH  23  25
ENDBRANCH  20  23
ENDBRANCH  17  20
ENDBRANCH  13  14
ENDBRANCH  12  13
ENDBRANCH  10  12
ENDBRANCH   5   8
TORSDOF 9
ENDMDL
MODEL      232
REMARK 921   NORMALIZED FREE ENERGY PREDICTED BY IDOCK:   -4.41 KCAL/MOL
REMARK 922        TOTAL FREE ENERGY PREDICTED BY IDOCK:   -8.23 KCAL/MOL
REMARK 923 INTER-LIGAND FREE ENERGY PREDICTED BY IDOCK:   -6.80 KCAL/MOL
REMARK 924 INTRA-LIGAND FREE ENERGY PREDICTED BY IDOCK:   -1.43 KCAL/MOL
REMARK 927      BINDING AFFINITY PREDICTED BY RF-SCORE:    0.00 PKD
ROOT
HETATM    1  C   UNL     1      -5.612  18.453  68.666  1.00  0.00    -0.182 C  
HETATM    2  C   UNL     1      -6.850  17.625  68.522  1.00  0.00    -0.223 A  
HETATM    3  N   UNL     1      -7.680  17.910  67.488  1.00  0.00    -0.209 NA 
HETATM    4  C   UNL     1      -8.808  17.160  67.412  1.00  0.00    -0.212 A  
HETATM    5  C   UNL     1      -9.099  16.160  68.328  1.00  0.00    -0.190 A  
HETATM    6  C   UNL     1      -7.143  16.607  69.430  1.00  0.00    -0.162 A  
HETATM    7  N   UNL     1      -8.267  15.848  69.363  1.00  0.00    -0.224 NA 
ENDROOT
BRANCH   5   8
HETATM    8  C   UNL     1     -10.383  15.415  68.211  1.00  0.00    -0.238 C  
HETATM    9  O   UNL     1     -11.455  15.979  68.398  1.00  0.00    -0.369 OA 
HETATM   10  N   UNL     1     -10.269  14.072  67.905  1.00  0.00    -0.236 N  
HETATM   11  H   UNL     1      -9.351  13.688  67.682  1.00  0.00     0.000 HD 
BRANCH  10  12
HETATM   12  C   UNL     1     -11.425  13.197  67.894  1.00  0.00    -0.308 C  
BRANCH  12  13
HETATM   13  C   UNL     1     -11.500  12.284  69.129  1.00  0.00    -0.352 C  
BRANCH  13  14
HETATM   14  C   UNL     1     -11.214  10.819  68.851  1.00  0.00    -0.328 A  
HETATM   15  C   UNL     1     -11.147   9.873  69.885  1.00  0.00    -0.318 A  
HETATM   16  C   UNL     1     -10.839   8.537  69.621  1.00  0.00    -0.157 A  
HETATM   17  C   UNL     1     -10.653   8.112  68.308  1.00  0.00    -0.098 A  
HETATM   18  C   UNL     1     -10.763   9.026  67.255  1.00  0.00    -0.222 A  
HETATM   19  C   UNL     1     -11.049  10.369  67.529  1.00  0.00    -0.336 A  
BRANCH  17  20
HETATM   20  S   UNL     1     -10.129   6.440  68.004  1.00  0.00    -0.164 S  
HETATM   21  O   UNL     1     -10.279   6.148  66.596  1.00  0.00    -0.189 OA 
HETATM   22  O   UNL     1     -10.774   5.601  68.996  1.00  0.00    -0.267 OA 
BRANCH  20  23
HETATM   23  N   UNL     1      -8.517   6.421  68.417  1.00  0.00    -0.116 N  
HETATM   24  H   UNL     1      -7.851   6.804  67.745  1.00  0.00     0.000 HD 
BRANCH  23  25
HETATM   25  C   UNL     1      -8.016   5.923  69.606  1.00  0.00    -0.101 C  
HETATM   26  O   UNL     1      -7.331   4.916  69.675  1.00  0.00    -0.054 OA 
BRANCH  25  27
HETATM   27  N   UNL     1      -8.345   6.682  70.694  1.00  0.00    -0.128 N  
HETATM   28  H   UNL     1      -8.566   7.670  70.571  1.00  0.00     0.000 HD 
BRANCH  27  29
HETATM   29  C   UNL     1      -8.382   6.094  72.029  1.00  0.00    -0.114 C  
HETATM   30  C   UNL     1      -8.226   7.163  73.117  1.00  0.00    -0.127 C  
HETATM   31  C   UNL     1      -9.486   8.002  73.319  1.00  0.00    -0.336 C  
HETATM   32  C   UNL     1     -10.713   7.130  73.556  1.00  0.00    -0.375 C  
HETATM   33  C   UNL     1     -10.900   6.107  72.441  1.00  0.00    -0.281 C  
HETATM   34  C   UNL     1      -9.649   5.253  72.245  1.00  0.00    -0.180 C  
ENDBRANCH  27  29
ENDBRANCH  25  27
ENDBRANCH  23  25
ENDBRANCH  20  23
ENDBRANCH  17  20
ENDBRANCH  13  14
ENDBRANCH  12  13
ENDBRANCH  10  12
ENDBRANCH   5   8
TORSDOF 9
ENDMDL
MODEL      233
REMARK 921   NORMALIZED FREE ENERGY PREDICTED BY IDOCK:   -4.41 KCAL/MOL
REMARK 922        TOTAL FREE ENERGY PREDICTED BY IDOCK:   -8.22 KCAL/MOL
REMARK 923 INTER-LIGAND FREE ENERGY PREDICTED BY IDOCK:   -7.13 KCAL/MOL
REMARK 924 INTRA-LIGAND FREE ENERGY PREDICTED BY IDOCK:   -1.09 KCAL/MOL
REMARK 927      BINDING AFFINITY PREDICTED BY RF-SCORE:    0.00 PKD
ROOT
HETATM    1  C   UNL     1     -12.697  13.468  65.547  1.00  0.00    -0.493 C  
HETATM    2  C   UNL     1     -11.593  12.625  64.991  1.00  0.00    -0.345 A  
HETATM    3  N   UNL     1     -10.918  11.825  65.853  1.00  0.00    -0.302 NA 
HETATM    4  C   UNL     1      -9.902  11.102  65.317  1.00  0.00    -0.249 A  
HETATM    5  C   UNL     1      -9.572  11.169  63.972  1.00  0.00    -0.254 A  
HETATM    6  C   UNL     1     -11.263  12.674  63.636  1.00  0.00    -0.466 A  
HETATM    7  N   UNL     1     -10.251  11.954  63.087  1.00  0.00    -0.381 NA 
ENDROOT
BRANCH   5   8
HETATM    8  C   UNL     1      -8.410  10.387  63.467  1.00  0.00    -0.154 C  
HETATM    9  O   UNL     1      -8.509   9.695  62.459  1.00  0.00    -0.147 OA 
HETATM   10  N   UNL     1      -7.253  10.484  64.216  1.00  0.00    -0.348 N  
HETATM   11  H   UNL     1      -7.217  11.140  64.995  1.00  0.00     0.000 HD 
BRANCH  10  12
HETATM   12  C   UNL     1      -6.088   9.673  63.920  1.00  0.00    -0.102 C  
BRANCH  12  13
HETATM   13  C   UNL     1      -5.641   8.806  65.108  1.00  0.00    -0.047 C  
BRANCH  13  14
HETATM   14  C   UNL     1      -6.583   7.666  65.451  1.00  0.00    -0.045 A  
HETATM   15  C   UNL     1      -7.386   7.056  64.476  1.00  0.00    -0.084 A  
HETATM   16  C   UNL     1      -8.283   6.040  64.814  1.00  0.00    -0.123 A  
HETATM   17  C   UNL     1      -8.345   5.574  66.125  1.00  0.00    -0.119 A  
HETATM   18  C   UNL     1      -7.519   6.132  67.105  1.00  0.00    -0.081 A  
HETATM   19  C   UNL     1      -6.640   7.167  66.765  1.00  0.00    -0.055 A  
BRANCH  17  20
HETATM   20  S   UNL     1      -9.585   4.376  66.560  1.00  0.00    -0.213 S  
HETATM   21  O   UNL     1      -8.933   3.157  66.986  1.00  0.00    -0.137 OA 
HETATM   22  O   UNL     1     -10.553   4.348  65.481  1.00  0.00    -0.265 OA 
BRANCH  20  23
HETATM   23  N   UNL     1     -10.399   5.059  67.842  1.00  0.00    -0.086 N  
HETATM   24  H   UNL     1     -10.724   4.437  68.582  1.00  0.00     0.000 HD 
BRANCH  23  25
HETATM   25  C   UNL     1     -10.667   6.409  67.973  1.00  0.00    -0.291 C  
HETATM   26  O   UNL     1     -11.166   7.083  67.086  1.00  0.00    -0.315 OA 
BRANCH  25  27
HETATM   27  N   UNL     1     -10.337   6.912  69.200  1.00  0.00    -0.187 N  
HETATM   28  H   UNL     1      -9.409   6.736  69.584  1.00  0.00     0.000 HD 
BRANCH  27  29
HETATM   29  C   UNL     1     -11.299   7.697  69.968  1.00  0.00    -0.067 C  
HETATM   30  C   UNL     1     -12.002   6.840  71.027  1.00  0.00    -0.431 C  
HETATM   31  C   UNL     1     -11.116   6.525  72.230  1.00  0.00    -0.297 C  
HETATM   32  C   UNL     1     -10.514   7.790  72.834  1.00  0.00    -0.412 C  
HETATM   33  C   UNL     1      -9.764   8.609  71.790  1.00  0.00    -0.361 C  
HETATM   34  C   UNL     1     -10.651   8.940  70.591  1.00  0.00    -0.277 C  
ENDBRANCH  27  29
ENDBRANCH  25  27
ENDBRANCH  23  25
ENDBRANCH  20  23
ENDBRANCH  17  20
ENDBRANCH  13  14
ENDBRANCH  12  13
ENDBRANCH  10  12
ENDBRANCH   5   8
TORSDOF 9
ENDMDL
MODEL      234
REMARK 921   NORMALIZED FREE ENERGY PREDICTED BY IDOCK:   -4.40 KCAL/MOL
REMARK 922        TOTAL FREE ENERGY PREDICTED BY IDOCK:   -8.21 KCAL/MOL
REMARK 923 INTER-LIGAND FREE ENERGY PREDICTED BY IDOCK:   -7.75 KCAL/MOL
REMARK 924 INTRA-LIGAND FREE ENERGY PREDICTED BY IDOCK:   -0.46 KCAL/MOL
REMARK 927      BINDING AFFINITY PREDICTED BY RF-SCORE:    0.00 PKD
ROOT
HETATM    1  C   UNL     1     -10.267  18.758  66.219  1.00  0.00    -0.466 C  
HETATM    2  C   UNL     1     -10.687  17.336  66.421  1.00  0.00    -0.072 A  
HETATM    3  N   UNL     1     -11.027  16.954  67.677  1.00  0.00    -0.233 NA 
HETATM    4  C   UNL     1     -11.368  15.649  67.826  1.00  0.00    -0.261 A  
HETATM    5  C   UNL     1     -11.377  14.758  66.764  1.00  0.00    -0.346 A  
HETATM    6  C   UNL     1     -10.713  16.436  65.355  1.00  0.00    -0.296 A  
HETATM    7  N   UNL     1     -11.056  15.129  65.491  1.00  0.00    -0.345 NA 
ENDROOT
BRANCH   5   8
HETATM    8  C   UNL     1     -11.711  13.328  67.014  1.00  0.00    -0.389 C  
HETATM    9  O   UNL     1     -12.355  12.682  66.195  1.00  0.00    -0.570 OA 
HETATM   10  N   UNL     1     -11.269  12.812  68.217  1.00  0.00    -0.252 N  
HETATM   11  H   UNL     1     -10.669  13.382  68.813  1.00  0.00     0.000 HD 
BRANCH  10  12
HETATM   12  C   UNL     1     -11.638  11.479  68.651  1.00  0.00    -0.313 C  
BRANCH  12  13
HETATM   13  C   UNL     1     -12.101  11.431  70.116  1.00  0.00    -0.439 C  
BRANCH  13  14
HETATM   14  C   UNL     1     -11.742  10.153  70.853  1.00  0.00    -0.468 A  
HETATM   15  C   UNL     1     -10.445   9.620  70.811  1.00  0.00    -0.375 A  
HETATM   16  C   UNL     1     -10.138   8.419  71.454  1.00  0.00    -0.278 A  
HETATM   17  C   UNL     1     -11.111   7.763  72.205  1.00  0.00    -0.279 A  
HETATM   18  C   UNL     1     -12.398   8.300  72.302  1.00  0.00    -0.410 A  
HETATM   19  C   UNL     1     -12.706   9.492  71.635  1.00  0.00    -0.478 A  
BRANCH  17  20
HETATM   20  S   UNL     1     -10.740   6.171  72.904  1.00  0.00    -0.260 S  
HETATM   21  O   UNL     1     -11.835   5.268  72.629  1.00  0.00    -0.208 OA 
HETATM   22  O   UNL     1     -10.302   6.393  74.269  1.00  0.00    -0.332 OA 
BRANCH  20  23
HETATM   23  N   UNL     1      -9.374   5.665  72.098  1.00  0.00    -0.146 N  
HETATM   24  H   UNL     1      -9.422   5.594  71.082  1.00  0.00     0.000 HD 
BRANCH  23  25
HETATM   25  C   UNL     1      -8.178   5.334  72.710  1.00  0.00    -0.109 C  
HETATM   26  O   UNL     1      -7.143   5.957  72.540  1.00  0.00    -0.081 OA 
BRANCH  25  27
HETATM   27  N   UNL     1      -8.274   4.253  73.540  1.00  0.00    -0.090 N  
HETATM   28  H   UNL     1      -8.153   4.376  74.545  1.00  0.00     0.000 HD 
BRANCH  27  29
HETATM   29  C   UNL     1      -8.550   2.923  73.004  1.00  0.00    -0.079 C  
HETATM   30  C   UNL     1      -8.348   2.879  71.485  1.00  0.00    -0.081 C  
HETATM   31  C   UNL     1      -6.876   2.872  71.076  1.00  0.00    -0.032 C  
HETATM   32  C   UNL     1      -6.099   1.767  71.782  1.00  0.00    -0.013 C  
HETATM   33  C   UNL     1      -6.253   1.850  73.296  1.00  0.00    -0.008 C  
HETATM   34  C   UNL     1      -7.723   1.841  73.713  1.00  0.00    -0.041 C  
ENDBRANCH  27  29
ENDBRANCH  25  27
ENDBRANCH  23  25
ENDBRANCH  20  23
ENDBRANCH  17  20
ENDBRANCH  13  14
ENDBRANCH  12  13
ENDBRANCH  10  12
ENDBRANCH   5   8
TORSDOF 9
ENDMDL
MODEL      235
REMARK 921   NORMALIZED FREE ENERGY PREDICTED BY IDOCK:   -4.40 KCAL/MOL
REMARK 922        TOTAL FREE ENERGY PREDICTED BY IDOCK:   -8.21 KCAL/MOL
REMARK 923 INTER-LIGAND FREE ENERGY PREDICTED BY IDOCK:   -7.00 KCAL/MOL
REMARK 924 INTRA-LIGAND FREE ENERGY PREDICTED BY IDOCK:   -1.21 KCAL/MOL
REMARK 927      BINDING AFFINITY PREDICTED BY RF-SCORE:    0.00 PKD
ROOT
HETATM    1  C   UNL     1      -5.413  20.180  71.621  1.00  0.00    -0.432 C  
HETATM    2  C   UNL     1      -5.922  19.469  70.408  1.00  0.00    -0.227 A  
HETATM    3  N   UNL     1      -6.553  20.210  69.463  1.00  0.00    -0.295 NA 
HETATM    4  C   UNL     1      -7.030  19.523  68.394  1.00  0.00    -0.295 A  
HETATM    5  C   UNL     1      -6.881  18.151  68.266  1.00  0.00    -0.229 A  
HETATM    6  C   UNL     1      -5.763  18.090  70.263  1.00  0.00    -0.203 A  
HETATM    7  N   UNL     1      -6.234  17.392  69.197  1.00  0.00    -0.215 NA 
ENDROOT
BRANCH   5   8
HETATM    8  C   UNL     1      -7.478  17.459  67.090  1.00  0.00    -0.192 C  
HETATM    9  O   UNL     1      -6.803  17.212  66.097  1.00  0.00    -0.235 OA 
HETATM   10  N   UNL     1      -8.820  17.147  67.198  1.00  0.00    -0.215 N  
HETATM   11  H   UNL     1      -9.299  17.307  68.084  1.00  0.00     0.000 HD 
BRANCH  10  12
HETATM   12  C   UNL     1      -9.562  16.596  66.081  1.00  0.00    -0.294 C  
BRANCH  12  13
HETATM   13  C   UNL     1     -10.815  15.818  66.516  1.00  0.00    -0.230 C  
BRANCH  13  14
HETATM   14  C   UNL     1     -10.574  14.351  66.825  1.00  0.00    -0.282 A  
HETATM   15  C   UNL     1     -10.065  13.470  65.859  1.00  0.00    -0.311 A  
HETATM   16  C   UNL     1      -9.892  12.113  66.142  1.00  0.00    -0.254 A  
HETATM   17  C   UNL     1     -10.166  11.628  67.419  1.00  0.00    -0.203 A  
HETATM   18  C   UNL     1     -10.627  12.496  68.413  1.00  0.00    -0.256 A  
HETATM   19  C   UNL     1     -10.822  13.850  68.116  1.00  0.00    -0.262 A  
BRANCH  17  20
HETATM   20  S   UNL     1     -10.067   9.878  67.720  1.00  0.00    -0.192 S  
HETATM   21  O   UNL     1     -10.116   9.178  66.455  1.00  0.00    -0.283 OA 
HETATM   22  O   UNL     1     -11.025   9.567  68.763  1.00  0.00    -0.181 OA 
BRANCH  20  23
HETATM   23  N   UNL     1      -8.578   9.656  68.431  1.00  0.00    -0.119 N  
HETATM   24  H   UNL     1      -8.129  10.469  68.854  1.00  0.00     0.000 HD 
BRANCH  23  25
HETATM   25  C   UNL     1      -7.908   8.448  68.489  1.00  0.00    -0.120 C  
HETATM   26  O   UNL     1      -6.717   8.331  68.251  1.00  0.00    -0.062 OA 
BRANCH  25  27
HETATM   27  N   UNL     1      -8.705   7.402  68.860  1.00  0.00    -0.132 N  
HETATM   28  H   UNL     1      -9.469   7.109  68.251  1.00  0.00     0.000 HD 
BRANCH  27  29
HETATM   29  C   UNL     1      -8.475   6.699  70.119  1.00  0.00    -0.136 C  
HETATM   30  C   UNL     1      -9.072   7.464  71.305  1.00  0.00    -0.145 C  
HETATM   31  C   UNL     1     -10.594   7.358  71.383  1.00  0.00    -0.232 C  
HETATM   32  C   UNL     1     -11.061   5.907  71.355  1.00  0.00    -0.313 C  
HETATM   33  C   UNL     1     -10.514   5.164  70.140  1.00  0.00    -0.305 C  
HETATM   34  C   UNL     1      -8.991   5.254  70.065  1.00  0.00    -0.154 C  
ENDBRANCH  27  29
ENDBRANCH  25  27
ENDBRANCH  23  25
ENDBRANCH  20  23
ENDBRANCH  17  20
ENDBRANCH  13  14
ENDBRANCH  12  13
ENDBRANCH  10  12
ENDBRANCH   5   8
TORSDOF 9
ENDMDL
MODEL      236
REMARK 921   NORMALIZED FREE ENERGY PREDICTED BY IDOCK:   -4.39 KCAL/MOL
REMARK 922        TOTAL FREE ENERGY PREDICTED BY IDOCK:   -8.20 KCAL/MOL
REMARK 923 INTER-LIGAND FREE ENERGY PREDICTED BY IDOCK:   -7.40 KCAL/MOL
REMARK 924 INTRA-LIGAND FREE ENERGY PREDICTED BY IDOCK:   -0.80 KCAL/MOL
REMARK 927      BINDING AFFINITY PREDICTED BY RF-SCORE:    0.00 PKD
ROOT
HETATM    1  C   UNL     1     -10.506  19.930  65.922  1.00  0.00    -0.567 C  
HETATM    2  C   UNL     1      -9.501  19.108  66.666  1.00  0.00    -0.344 A  
HETATM    3  N   UNL     1      -8.380  18.733  66.001  1.00  0.00    -0.486 NA 
HETATM    4  C   UNL     1      -7.509  17.960  66.698  1.00  0.00    -0.227 A  
HETATM    5  C   UNL     1      -7.741  17.579  68.011  1.00  0.00    -0.211 A  
HETATM    6  C   UNL     1      -9.719  18.732  67.992  1.00  0.00    -0.325 A  
HETATM    7  N   UNL     1      -8.854  17.961  68.701  1.00  0.00    -0.289 NA 
ENDROOT
BRANCH   5   8
HETATM    8  C   UNL     1      -6.766  16.685  68.694  1.00  0.00    -0.163 C  
HETATM    9  O   UNL     1      -6.326  16.967  69.804  1.00  0.00    -0.234 OA 
HETATM   10  N   UNL     1      -6.391  15.558  67.989  1.00  0.00    -0.126 N  
HETATM   11  H   UNL     1      -6.858  15.343  67.108  1.00  0.00     0.000 HD 
BRANCH  10  12
HETATM   12  C   UNL     1      -5.350  14.672  68.472  1.00  0.00    -0.103 C  
BRANCH  12  13
HETATM   13  C   UNL     1      -5.870  13.615  69.460  1.00  0.00    -0.102 C  
BRANCH  13  14
HETATM   14  C   UNL     1      -6.863  12.630  68.869  1.00  0.00    -0.097 A  
HETATM   15  C   UNL     1      -8.055  13.059  68.265  1.00  0.00    -0.151 A  
HETATM   16  C   UNL     1      -8.981  12.141  67.766  1.00  0.00    -0.179 A  
HETATM   17  C   UNL     1      -8.702  10.777  67.808  1.00  0.00    -0.130 A  
HETATM   18  C   UNL     1      -7.499  10.327  68.361  1.00  0.00    -0.090 A  
HETATM   19  C   UNL     1      -6.585  11.252  68.881  1.00  0.00    -0.068 A  
BRANCH  17  20
HETATM   20  S   UNL     1      -9.949   9.621  67.292  1.00  0.00    -0.211 S  
HETATM   21  O   UNL     1      -9.596   8.302  67.770  1.00  0.00    -0.143 OA 
HETATM   22  O   UNL     1     -10.186   9.846  65.879  1.00  0.00    -0.261 OA 
BRANCH  20  23
HETATM   23  N   UNL     1     -11.342  10.140  68.043  1.00  0.00    -0.523 N  
HETATM   24  H   UNL     1     -12.140  10.373  67.452  1.00  0.00     0.000 HD 
BRANCH  23  25
HETATM   25  C   UNL     1     -11.492  10.278  69.411  1.00  0.00    -0.186 C  
HETATM   26  O   UNL     1     -12.281  11.054  69.923  1.00  0.00    -0.325 OA 
BRANCH  25  27
HETATM   27  N   UNL     1     -10.685   9.444  70.133  1.00  0.00    -0.228 N  
HETATM   28  H   UNL     1      -9.709   9.326  69.860  1.00  0.00     0.000 HD 
BRANCH  27  29
HETATM   29  C   UNL     1     -11.204   8.720  71.290  1.00  0.00    -0.284 C  
HETATM   30  C   UNL     1     -11.798   7.367  70.883  1.00  0.00    -0.320 C  
HETATM   31  C   UNL     1     -10.736   6.320  70.553  1.00  0.00    -0.327 C  
HETATM   32  C   UNL     1      -9.717   6.176  71.678  1.00  0.00    -0.177 C  
HETATM   33  C   UNL     1      -9.084   7.515  72.039  1.00  0.00    -0.157 C  
HETATM   34  C   UNL     1     -10.142   8.562  72.386  1.00  0.00    -0.365 C  
ENDBRANCH  27  29
ENDBRANCH  25  27
ENDBRANCH  23  25
ENDBRANCH  20  23
ENDBRANCH  17  20
ENDBRANCH  13  14
ENDBRANCH  12  13
ENDBRANCH  10  12
ENDBRANCH   5   8
TORSDOF 9
ENDMDL
MODEL      237
REMARK 921   NORMALIZED FREE ENERGY PREDICTED BY IDOCK:   -4.38 KCAL/MOL
REMARK 922        TOTAL FREE ENERGY PREDICTED BY IDOCK:   -8.17 KCAL/MOL
REMARK 923 INTER-LIGAND FREE ENERGY PREDICTED BY IDOCK:   -6.85 KCAL/MOL
REMARK 924 INTRA-LIGAND FREE ENERGY PREDICTED BY IDOCK:   -1.33 KCAL/MOL
REMARK 927      BINDING AFFINITY PREDICTED BY RF-SCORE:    0.00 PKD
ROOT
HETATM    1  C   UNL     1      -6.595   7.777  62.894  1.00  0.00    -0.075 C  
HETATM    2  C   UNL     1      -7.364   6.909  63.839  1.00  0.00    -0.080 A  
HETATM    3  N   UNL     1      -7.898   7.496  64.939  1.00  0.00    -0.122 NA 
HETATM    4  C   UNL     1      -8.558   6.670  65.789  1.00  0.00    -0.140 A  
HETATM    5  C   UNL     1      -8.689   5.310  65.551  1.00  0.00    -0.149 A  
HETATM    6  C   UNL     1      -7.513   5.542  63.601  1.00  0.00    -0.058 A  
HETATM    7  N   UNL     1      -8.174   4.706  64.442  1.00  0.00    -0.106 NA 
ENDROOT
BRANCH   5   8
HETATM    8  C   UNL     1      -9.382   4.457  66.556  1.00  0.00    -0.159 C  
HETATM    9  O   UNL     1     -10.604   4.365  66.565  1.00  0.00    -0.057 OA 
HETATM   10  N   UNL     1      -8.561   3.815  67.463  1.00  0.00    -0.099 N  
HETATM   11  H   UNL     1      -7.549   3.871  67.347  1.00  0.00     0.000 HD 
BRANCH  10  12
HETATM   12  C   UNL     1      -9.105   3.063  68.577  1.00  0.00    -0.158 C  
BRANCH  12  13
HETATM   13  C   UNL     1      -8.986   3.805  69.919  1.00  0.00    -0.166 C  
BRANCH  13  14
HETATM   14  C   UNL     1      -9.395   5.267  69.872  1.00  0.00    -0.190 A  
HETATM   15  C   UNL     1     -10.734   5.661  70.012  1.00  0.00    -0.390 A  
HETATM   16  C   UNL     1     -11.102   7.005  69.921  1.00  0.00    -0.301 A  
HETATM   17  C   UNL     1     -10.127   7.985  69.752  1.00  0.00    -0.196 A  
HETATM   18  C   UNL     1      -8.780   7.621  69.660  1.00  0.00    -0.136 A  
HETATM   19  C   UNL     1      -8.419   6.270  69.727  1.00  0.00    -0.126 A  
BRANCH  17  20
HETATM   20  S   UNL     1     -10.627   9.673  69.505  1.00  0.00    -0.239 S  
HETATM   21  O   UNL     1      -9.519  10.545  69.827  1.00  0.00    -0.102 OA 
HETATM   22  O   UNL     1     -11.906   9.843  70.167  1.00  0.00    -0.216 OA 
BRANCH  20  23
HETATM   23  N   UNL     1     -10.974   9.776  67.880  1.00  0.00    -0.466 N  
HETATM   24  H   UNL     1     -11.832   9.333  67.549  1.00  0.00     0.000 HD 
BRANCH  23  25
HETATM   25  C   UNL     1     -10.182  10.420  66.947  1.00  0.00    -0.227 C  
HETATM   26  O   UNL     1      -9.046  10.067  66.674  1.00  0.00    -0.144 OA 
BRANCH  25  27
HETATM   27  N   UNL     1     -10.803  11.478  66.344  1.00  0.00    -0.278 N  
HETATM   28  H   UNL     1     -11.715  11.786  66.681  1.00  0.00     0.000 HD 
BRANCH  27  29
HETATM   29  C   UNL     1     -10.175  12.171  65.223  1.00  0.00    -0.274 C  
HETATM   30  C   UNL     1     -10.811  11.766  63.888  1.00  0.00    -0.468 C  
HETATM   31  C   UNL     1     -12.186  12.393  63.663  1.00  0.00    -0.653 C  
HETATM   32  C   UNL     1     -12.151  13.907  63.837  1.00  0.00    -0.387 C  
HETATM   33  C   UNL     1     -11.573  14.305  65.191  1.00  0.00    -0.355 C  
HETATM   34  C   UNL     1     -10.191  13.693  65.415  1.00  0.00    -0.330 C  
ENDBRANCH  27  29
ENDBRANCH  25  27
ENDBRANCH  23  25
ENDBRANCH  20  23
ENDBRANCH  17  20
ENDBRANCH  13  14
ENDBRANCH  12  13
ENDBRANCH  10  12
ENDBRANCH   5   8
TORSDOF 9
ENDMDL
MODEL      238
REMARK 921   NORMALIZED FREE ENERGY PREDICTED BY IDOCK:   -4.37 KCAL/MOL
REMARK 922        TOTAL FREE ENERGY PREDICTED BY IDOCK:   -8.17 KCAL/MOL
REMARK 923 INTER-LIGAND FREE ENERGY PREDICTED BY IDOCK:   -6.37 KCAL/MOL
REMARK 924 INTRA-LIGAND FREE ENERGY PREDICTED BY IDOCK:   -1.80 KCAL/MOL
REMARK 927      BINDING AFFINITY PREDICTED BY RF-SCORE:    0.00 PKD
ROOT
HETATM    1  C   UNL     1     -11.933  14.439  68.705  1.00  0.00    -0.331 C  
HETATM    2  C   UNL     1     -11.351  13.295  67.938  1.00  0.00    -0.284 A  
HETATM    3  N   UNL     1     -10.525  12.448  68.603  1.00  0.00    -0.225 NA 
HETATM    4  C   UNL     1      -9.989  11.443  67.864  1.00  0.00    -0.177 A  
HETATM    5  C   UNL     1     -10.269  11.282  66.516  1.00  0.00    -0.228 A  
HETATM    6  C   UNL     1     -11.638  13.115  66.585  1.00  0.00    -0.356 A  
HETATM    7  N   UNL     1     -11.111  12.113  65.836  1.00  0.00    -0.306 NA 
ENDROOT
BRANCH   5   8
HETATM    8  C   UNL     1      -9.602  10.187  65.758  1.00  0.00    -0.230 C  
HETATM    9  O   UNL     1      -9.800  10.044  64.557  1.00  0.00    -0.305 OA 
HETATM   10  N   UNL     1      -8.785   9.357  66.502  1.00  0.00    -0.133 N  
HETATM   11  H   UNL     1      -8.602   9.583  67.479  1.00  0.00     0.000 HD 
BRANCH  10  12
HETATM   12  C   UNL     1      -8.182   8.172  65.924  1.00  0.00    -0.122 C  
BRANCH  12  13
HETATM   13  C   UNL     1      -9.127   6.959  65.915  1.00  0.00    -0.045 C  
BRANCH  13  14
HETATM   14  C   UNL     1      -8.911   5.980  67.055  1.00  0.00    -0.113 A  
HETATM   15  C   UNL     1      -9.759   4.878  67.249  1.00  0.00    -0.194 A  
HETATM   16  C   UNL     1      -9.577   4.011  68.327  1.00  0.00    -0.188 A  
HETATM   17  C   UNL     1      -8.504   4.195  69.197  1.00  0.00    -0.077 A  
HETATM   18  C   UNL     1      -7.617   5.257  68.996  1.00  0.00    -0.078 A  
HETATM   19  C   UNL     1      -7.819   6.138  67.926  1.00  0.00    -0.106 A  
BRANCH  17  20
HETATM   20  S   UNL     1      -8.369   3.163  70.638  1.00  0.00    -0.057 S  
HETATM   21  O   UNL     1      -7.080   2.507  70.628  1.00  0.00    -0.033 OA 
HETATM   22  O   UNL     1      -9.586   2.378  70.720  1.00  0.00    -0.143 OA 
BRANCH  20  23
HETATM   23  N   UNL     1      -8.457   4.218  71.922  1.00  0.00    -0.104 N  
HETATM   24  H   UNL     1      -7.612   4.731  72.173  1.00  0.00     0.000 HD 
BRANCH  23  25
HETATM   25  C   UNL     1      -9.595   4.447  72.674  1.00  0.00    -0.137 C  
HETATM   26  O   UNL     1      -9.680   4.180  73.861  1.00  0.00    -0.111 OA 
BRANCH  25  27
HETATM   27  N   UNL     1     -10.610   5.023  71.961  1.00  0.00    -0.203 N  
HETATM   28  H   UNL     1     -11.526   4.576  71.936  1.00  0.00     0.000 HD 
BRANCH  27  29
HETATM   29  C   UNL     1     -10.396   6.271  71.235  1.00  0.00    -0.212 C  
HETATM   30  C   UNL     1     -11.640   6.675  70.437  1.00  0.00    -0.457 C  
HETATM   31  C   UNL     1     -12.760   7.235  71.312  1.00  0.00    -0.400 C  
HETATM   32  C   UNL     1     -12.266   8.370  72.202  1.00  0.00    -0.434 C  
HETATM   33  C   UNL     1     -11.065   7.946  73.040  1.00  0.00    -0.379 C  
HETATM   34  C   UNL     1      -9.935   7.400  72.168  1.00  0.00    -0.203 C  
ENDBRANCH  27  29
ENDBRANCH  25  27
ENDBRANCH  23  25
ENDBRANCH  20  23
ENDBRANCH  17  20
ENDBRANCH  13  14
ENDBRANCH  12  13
ENDBRANCH  10  12
ENDBRANCH   5   8
TORSDOF 9
ENDMDL
MODEL      239
REMARK 921   NORMALIZED FREE ENERGY PREDICTED BY IDOCK:   -4.36 KCAL/MOL
REMARK 922        TOTAL FREE ENERGY PREDICTED BY IDOCK:   -8.15 KCAL/MOL
REMARK 923 INTER-LIGAND FREE ENERGY PREDICTED BY IDOCK:   -6.99 KCAL/MOL
REMARK 924 INTRA-LIGAND FREE ENERGY PREDICTED BY IDOCK:   -1.17 KCAL/MOL
REMARK 927      BINDING AFFINITY PREDICTED BY RF-SCORE:    0.00 PKD
ROOT
HETATM    1  C   UNL     1     -10.983  19.439  65.630  1.00  0.00    -0.184 C  
HETATM    2  C   UNL     1     -10.661  17.979  65.588  1.00  0.00    -0.099 A  
HETATM    3  N   UNL     1     -11.406  17.194  64.770  1.00  0.00    -0.702 NA 
HETATM    4  C   UNL     1     -11.106  15.871  64.785  1.00  0.00    -0.384 A  
HETATM    5  C   UNL     1     -10.098  15.347  65.580  1.00  0.00    -0.376 A  
HETATM    6  C   UNL     1      -9.638  17.445  66.373  1.00  0.00    -0.276 A  
HETATM    7  N   UNL     1      -9.327  16.123  66.395  1.00  0.00    -0.272 NA 
ENDROOT
BRANCH   5   8
HETATM    8  C   UNL     1      -9.862  13.877  65.584  1.00  0.00    -0.205 C  
HETATM    9  O   UNL     1      -9.362  13.324  66.558  1.00  0.00    -0.253 OA 
HETATM   10  N   UNL     1     -10.221  13.210  64.428  1.00  0.00    -0.590 N  
HETATM   11  H   UNL     1     -10.707  13.719  63.690  1.00  0.00     0.000 HD 
BRANCH  10  12
HETATM   12  C   UNL     1      -9.924  11.804  64.241  1.00  0.00    -0.257 C  
BRANCH  12  13
HETATM   13  C   UNL     1     -10.975  10.878  64.874  1.00  0.00    -0.038 C  
BRANCH  13  14
HETATM   14  C   UNL     1     -10.450   9.994  65.991  1.00  0.00    -0.145 A  
HETATM   15  C   UNL     1      -9.539   8.956  65.743  1.00  0.00    -0.245 A  
HETATM   16  C   UNL     1      -9.100   8.121  66.772  1.00  0.00    -0.191 A  
HETATM   17  C   UNL     1      -9.518   8.350  68.081  1.00  0.00    -0.138 A  
HETATM   18  C   UNL     1     -10.387   9.409  68.361  1.00  0.00    -0.238 A  
HETATM   19  C   UNL     1     -10.843  10.227  67.321  1.00  0.00    -0.312 A  
BRANCH  17  20
HETATM   20  S   UNL     1      -9.055   7.197  69.352  1.00  0.00    -0.144 S  
HETATM   21  O   UNL     1      -7.820   7.638  69.962  1.00  0.00    -0.097 OA 
HETATM   22  O   UNL     1      -9.153   5.867  68.783  1.00  0.00    -0.116 OA 
BRANCH  20  23
HETATM   23  N   UNL     1     -10.293   7.275  70.463  1.00  0.00    -0.204 N  
HETATM   24  H   UNL     1     -11.247   7.180  70.116  1.00  0.00     0.000 HD 
BRANCH  23  25
HETATM   25  C   UNL     1     -10.117   7.459  71.822  1.00  0.00    -0.175 C  
HETATM   26  O   UNL     1     -10.639   8.368  72.448  1.00  0.00    -0.316 OA 
BRANCH  25  27
HETATM   27  N   UNL     1      -9.320   6.512  72.401  1.00  0.00    -0.137 N  
HETATM   28  H   UNL     1      -8.325   6.487  72.180  1.00  0.00     0.000 HD 
BRANCH  27  29
HETATM   29  C   UNL     1      -9.878   5.534  73.331  1.00  0.00    -0.162 C  
HETATM   30  C   UNL     1     -10.785   4.530  72.610  1.00  0.00    -0.229 C  
HETATM   31  C   UNL     1     -10.008   3.495  71.799  1.00  0.00    -0.202 C  
HETATM   32  C   UNL     1      -8.948   2.796  72.643  1.00  0.00    -0.111 C  
HETATM   33  C   UNL     1      -8.010   3.796  73.310  1.00  0.00    -0.083 C  
HETATM   34  C   UNL     1      -8.781   4.825  74.136  1.00  0.00    -0.107 C  
ENDBRANCH  27  29
ENDBRANCH  25  27
ENDBRANCH  23  25
ENDBRANCH  20  23
ENDBRANCH  17  20
ENDBRANCH  13  14
ENDBRANCH  12  13
ENDBRANCH  10  12
ENDBRANCH   5   8
TORSDOF 9
ENDMDL
MODEL      240
REMARK 921   NORMALIZED FREE ENERGY PREDICTED BY IDOCK:   -4.35 KCAL/MOL
REMARK 922        TOTAL FREE ENERGY PREDICTED BY IDOCK:   -8.13 KCAL/MOL
REMARK 923 INTER-LIGAND FREE ENERGY PREDICTED BY IDOCK:   -6.54 KCAL/MOL
REMARK 924 INTRA-LIGAND FREE ENERGY PREDICTED BY IDOCK:   -1.59 KCAL/MOL
REMARK 927      BINDING AFFINITY PREDICTED BY RF-SCORE:    0.00 PKD
ROOT
HETATM    1  C   UNL     1     -12.736  12.217  63.395  1.00  0.00    -0.461 C  
HETATM    2  C   UNL     1     -11.464  11.969  64.142  1.00  0.00    -0.383 A  
HETATM    3  N   UNL     1     -10.535  11.175  63.554  1.00  0.00    -0.373 NA 
HETATM    4  C   UNL     1      -9.410  10.945  64.278  1.00  0.00    -0.228 A  
HETATM    5  C   UNL     1      -9.213  11.489  65.538  1.00  0.00    -0.142 A  
HETATM    6  C   UNL     1     -11.251  12.524  65.404  1.00  0.00    -0.307 A  
HETATM    7  N   UNL     1     -10.129  12.304  66.137  1.00  0.00    -0.239 NA 
ENDROOT
BRANCH   5   8
HETATM    8  C   UNL     1      -7.976  11.149  66.294  1.00  0.00    -0.125 C  
HETATM    9  O   UNL     1      -7.950  11.219  67.518  1.00  0.00    -0.116 OA 
HETATM   10  N   UNL     1      -6.888  10.781  65.526  1.00  0.00    -0.350 N  
HETATM   11  H   UNL     1      -7.005  10.665  64.520  1.00  0.00     0.000 HD 
BRANCH  10  12
HETATM   12  C   UNL     1      -5.584  10.555  66.119  1.00  0.00    -0.083 C  
BRANCH  12  13
HETATM   13  C   UNL     1      -5.128   9.090  66.027  1.00  0.00    -0.032 C  
BRANCH  13  14
HETATM   14  C   UNL     1      -6.154   8.076  66.501  1.00  0.00    -0.049 A  
HETATM   15  C   UNL     1      -6.466   7.924  67.860  1.00  0.00    -0.052 A  
HETATM   16  C   UNL     1      -7.377   6.956  68.287  1.00  0.00    -0.097 A  
HETATM   17  C   UNL     1      -8.039   6.164  67.353  1.00  0.00    -0.109 A  
HETATM   18  C   UNL     1      -7.782   6.330  65.988  1.00  0.00    -0.092 A  
HETATM   19  C   UNL     1      -6.850   7.285  65.568  1.00  0.00    -0.052 A  
BRANCH  17  20
HETATM   20  S   UNL     1      -9.093   4.850  67.922  1.00  0.00    -0.118 S  
HETATM   21  O   UNL     1      -8.710   4.489  69.270  1.00  0.00    -0.084 OA 
HETATM   22  O   UNL     1      -9.125   3.842  66.879  1.00  0.00    -0.128 OA 
BRANCH  20  23
HETATM   23  N   UNL     1     -10.622   5.506  67.925  1.00  0.00    -0.183 N  
HETATM   24  H   UNL     1     -11.403   4.889  67.700  1.00  0.00     0.000 HD 
BRANCH  23  25
HETATM   25  C   UNL     1     -10.909   6.829  68.210  1.00  0.00    -0.226 C  
HETATM   26  O   UNL     1     -10.911   7.711  67.367  1.00  0.00    -0.258 OA 
BRANCH  25  27
HETATM   27  N   UNL     1     -11.212   7.047  69.525  1.00  0.00    -0.469 N  
HETATM   28  H   UNL     1     -12.018   6.582  69.941  1.00  0.00     0.000 HD 
BRANCH  27  29
HETATM   29  C   UNL     1     -10.392   7.939  70.340  1.00  0.00    -0.212 C  
HETATM   30  C   UNL     1     -11.259   8.858  71.208  1.00  0.00    -0.368 C  
HETATM   31  C   UNL     1     -11.884   8.142  72.403  1.00  0.00    -0.448 C  
HETATM   32  C   UNL     1     -10.836   7.406  73.231  1.00  0.00    -0.417 C  
HETATM   33  C   UNL     1     -10.015   6.447  72.375  1.00  0.00    -0.183 C  
HETATM   34  C   UNL     1      -9.375   7.162  71.186  1.00  0.00    -0.157 C  
ENDBRANCH  27  29
ENDBRANCH  25  27
ENDBRANCH  23  25
ENDBRANCH  20  23
ENDBRANCH  17  20
ENDBRANCH  13  14
ENDBRANCH  12  13
ENDBRANCH  10  12
ENDBRANCH   5   8
TORSDOF 9
ENDMDL
MODEL      241
REMARK 921   NORMALIZED FREE ENERGY PREDICTED BY IDOCK:   -4.35 KCAL/MOL
REMARK 922        TOTAL FREE ENERGY PREDICTED BY IDOCK:   -8.13 KCAL/MOL
REMARK 923 INTER-LIGAND FREE ENERGY PREDICTED BY IDOCK:   -6.59 KCAL/MOL
REMARK 924 INTRA-LIGAND FREE ENERGY PREDICTED BY IDOCK:   -1.54 KCAL/MOL
REMARK 927      BINDING AFFINITY PREDICTED BY RF-SCORE:    0.00 PKD
ROOT
HETATM    1  C   UNL     1     -11.111  15.724  64.458  1.00  0.00    -0.293 C  
HETATM    2  C   UNL     1     -11.304  14.792  65.612  1.00  0.00    -0.343 A  
HETATM    3  N   UNL     1     -11.003  15.255  66.851  1.00  0.00    -0.322 NA 
HETATM    4  C   UNL     1     -11.159  14.369  67.867  1.00  0.00    -0.274 A  
HETATM    5  C   UNL     1     -11.602  13.072  67.660  1.00  0.00    -0.355 A  
HETATM    6  C   UNL     1     -11.764  13.489  65.415  1.00  0.00    -0.332 A  
HETATM    7  N   UNL     1     -11.927  12.595  66.424  1.00  0.00    -0.540 NA 
ENDROOT
BRANCH   5   8
HETATM    8  C   UNL     1     -11.697  12.140  68.818  1.00  0.00    -0.321 C  
HETATM    9  O   UNL     1     -12.200  12.503  69.876  1.00  0.00    -0.253 OA 
HETATM   10  N   UNL     1     -11.169  10.879  68.616  1.00  0.00    -0.245 N  
HETATM   11  H   UNL     1     -10.841  10.620  67.686  1.00  0.00     0.000 HD 
BRANCH  10  12
HETATM   12  C   UNL     1     -11.071   9.917  69.696  1.00  0.00    -0.241 C  
BRANCH  12  13
HETATM   13  C   UNL     1     -10.513   8.558  69.241  1.00  0.00    -0.224 C  
BRANCH  13  14
HETATM   14  C   UNL     1     -10.324   7.546  70.356  1.00  0.00    -0.216 A  
HETATM   15  C   UNL     1      -9.069   7.320  70.941  1.00  0.00    -0.151 A  
HETATM   16  C   UNL     1      -8.900   6.353  71.934  1.00  0.00    -0.138 A  
HETATM   17  C   UNL     1      -9.999   5.637  72.403  1.00  0.00    -0.170 A  
HETATM   18  C   UNL     1     -11.269   5.879  71.871  1.00  0.00    -0.323 A  
HETATM   19  C   UNL     1     -11.428   6.832  70.858  1.00  0.00    -0.384 A  
BRANCH  17  20
HETATM   20  S   UNL     1      -9.741   4.320  73.569  1.00  0.00    -0.118 S  
HETATM   21  O   UNL     1     -11.026   3.819  74.006  1.00  0.00    -0.208 OA 
HETATM   22  O   UNL     1      -8.772   4.790  74.541  1.00  0.00    -0.111 OA 
BRANCH  20  23
HETATM   23  N   UNL     1      -8.939   3.144  72.706  1.00  0.00    -0.087 N  
HETATM   24  H   UNL     1      -8.070   2.779  73.096  1.00  0.00     0.000 HD 
BRANCH  23  25
HETATM   25  C   UNL     1      -9.368   2.627  71.497  1.00  0.00    -0.129 C  
HETATM   26  O   UNL     1     -10.240   1.778  71.403  1.00  0.00    -0.073 OA 
BRANCH  25  27
HETATM   27  N   UNL     1      -8.735   3.175  70.417  1.00  0.00    -0.064 N  
HETATM   28  H   UNL     1      -7.840   3.648  70.543  1.00  0.00     0.000 HD 
BRANCH  27  29
HETATM   29  C   UNL     1      -9.326   3.091  69.085  1.00  0.00    -0.149 C  
HETATM   30  C   UNL     1      -9.528   4.482  68.473  1.00  0.00    -0.213 C  
HETATM   31  C   UNL     1      -8.226   5.119  67.988  1.00  0.00    -0.098 C  
HETATM   32  C   UNL     1      -7.461   4.193  67.049  1.00  0.00    -0.077 C  
HETATM   33  C   UNL     1      -7.210   2.830  67.684  1.00  0.00    -0.053 C  
HETATM   34  C   UNL     1      -8.510   2.182  68.156  1.00  0.00    -0.089 C  
ENDBRANCH  27  29
ENDBRANCH  25  27
ENDBRANCH  23  25
ENDBRANCH  20  23
ENDBRANCH  17  20
ENDBRANCH  13  14
ENDBRANCH  12  13
ENDBRANCH  10  12
ENDBRANCH   5   8
TORSDOF 9
ENDMDL
MODEL      242
REMARK 921   NORMALIZED FREE ENERGY PREDICTED BY IDOCK:   -4.35 KCAL/MOL
REMARK 922        TOTAL FREE ENERGY PREDICTED BY IDOCK:   -8.13 KCAL/MOL
REMARK 923 INTER-LIGAND FREE ENERGY PREDICTED BY IDOCK:   -7.03 KCAL/MOL
REMARK 924 INTRA-LIGAND FREE ENERGY PREDICTED BY IDOCK:   -1.10 KCAL/MOL
REMARK 927      BINDING AFFINITY PREDICTED BY RF-SCORE:    0.00 PKD
ROOT
HETATM    1  C   UNL     1      -5.146  19.795  71.436  1.00  0.00    -0.334 C  
HETATM    2  C   UNL     1      -5.862  19.091  70.328  1.00  0.00    -0.208 A  
HETATM    3  N   UNL     1      -6.683  19.830  69.541  1.00  0.00    -0.349 NA 
HETATM    4  C   UNL     1      -7.341  19.149  68.569  1.00  0.00    -0.313 A  
HETATM    5  C   UNL     1      -7.185  17.784  68.382  1.00  0.00    -0.250 A  
HETATM    6  C   UNL     1      -5.700  17.721  70.123  1.00  0.00    -0.230 A  
HETATM    7  N   UNL     1      -6.350  17.029  69.152  1.00  0.00    -0.198 NA 
ENDROOT
BRANCH   5   8
HETATM    8  C   UNL     1      -7.981  17.096  67.329  1.00  0.00    -0.179 C  
HETATM    9  O   UNL     1      -7.574  17.036  66.173  1.00  0.00    -0.305 OA 
HETATM   10  N   UNL     1      -9.189  16.567  67.742  1.00  0.00    -0.201 N  
HETATM   11  H   UNL     1      -9.426  16.582  68.733  1.00  0.00     0.000 HD 
BRANCH  10  12
HETATM   12  C   UNL     1     -10.126  15.991  66.798  1.00  0.00    -0.268 C  
BRANCH  12  13
HETATM   13  C   UNL     1     -11.386  15.423  67.472  1.00  0.00    -0.269 C  
BRANCH  13  14
HETATM   14  C   UNL     1     -11.223  14.027  68.046  1.00  0.00    -0.302 A  
HETATM   15  C   UNL     1     -11.866  13.638  69.230  1.00  0.00    -0.395 A  
HETATM   16  C   UNL     1     -11.671  12.366  69.772  1.00  0.00    -0.361 A  
HETATM   17  C   UNL     1     -10.876  11.438  69.102  1.00  0.00    -0.213 A  
HETATM   18  C   UNL     1     -10.263  11.786  67.895  1.00  0.00    -0.203 A  
HETATM   19  C   UNL     1     -10.443  13.071  67.369  1.00  0.00    -0.235 A  
BRANCH  17  20
HETATM   20  S   UNL     1     -10.533   9.874  69.874  1.00  0.00    -0.286 S  
HETATM   21  O   UNL     1     -10.706   8.819  68.900  1.00  0.00    -0.187 OA 
HETATM   22  O   UNL     1     -11.268   9.841  71.124  1.00  0.00    -0.346 OA 
BRANCH  20  23
HETATM   23  N   UNL     1      -8.933   9.969  70.326  1.00  0.00    -0.341 N  
HETATM   24  H   UNL     1      -8.439  10.841  70.139  1.00  0.00     0.000 HD 
BRANCH  23  25
HETATM   25  C   UNL     1      -8.227   8.947  70.936  1.00  0.00    -0.175 C  
HETATM   26  O   UNL     1      -7.583   9.097  71.961  1.00  0.00    -0.335 OA 
BRANCH  25  27
HETATM   27  N   UNL     1      -8.340   7.748  70.289  1.00  0.00    -0.126 N  
HETATM   28  H   UNL     1      -9.150   7.154  70.465  1.00  0.00     0.000 HD 
BRANCH  27  29
HETATM   29  C   UNL     1      -7.313   7.309  69.349  1.00  0.00    -0.089 C  
HETATM   30  C   UNL     1      -6.264   6.428  70.037  1.00  0.00    -0.035 C  
HETATM   31  C   UNL     1      -6.768   5.016  70.335  1.00  0.00    -0.040 C  
HETATM   32  C   UNL     1      -7.340   4.347  69.090  1.00  0.00    -0.055 C  
HETATM   33  C   UNL     1      -8.425   5.199  68.442  1.00  0.00    -0.095 C  
HETATM   34  C   UNL     1      -7.922   6.607  68.128  1.00  0.00    -0.110 C  
ENDBRANCH  27  29
ENDBRANCH  25  27
ENDBRANCH  23  25
ENDBRANCH  20  23
ENDBRANCH  17  20
ENDBRANCH  13  14
ENDBRANCH  12  13
ENDBRANCH  10  12
ENDBRANCH   5   8
TORSDOF 9
ENDMDL
MODEL      243
REMARK 921   NORMALIZED FREE ENERGY PREDICTED BY IDOCK:   -4.34 KCAL/MOL
REMARK 922        TOTAL FREE ENERGY PREDICTED BY IDOCK:   -8.11 KCAL/MOL
REMARK 923 INTER-LIGAND FREE ENERGY PREDICTED BY IDOCK:   -7.34 KCAL/MOL
REMARK 924 INTRA-LIGAND FREE ENERGY PREDICTED BY IDOCK:   -0.77 KCAL/MOL
REMARK 927      BINDING AFFINITY PREDICTED BY RF-SCORE:    0.00 PKD
ROOT
HETATM    1  C   UNL     1      -5.268  20.392  71.611  1.00  0.00    -0.371 C  
HETATM    2  C   UNL     1      -5.788  19.443  70.578  1.00  0.00    -0.202 A  
HETATM    3  N   UNL     1      -6.603  19.946  69.617  1.00  0.00    -0.351 NA 
HETATM    4  C   UNL     1      -7.082  19.049  68.719  1.00  0.00    -0.318 A  
HETATM    5  C   UNL     1      -6.758  17.701  68.770  1.00  0.00    -0.230 A  
HETATM    6  C   UNL     1      -5.456  18.089  70.612  1.00  0.00    -0.220 A  
HETATM    7  N   UNL     1      -5.926  17.181  69.718  1.00  0.00    -0.233 NA 
ENDROOT
BRANCH   5   8
HETATM    8  C   UNL     1      -7.365  16.767  67.781  1.00  0.00    -0.151 C  
HETATM    9  O   UNL     1      -6.689  16.280  66.881  1.00  0.00    -0.201 OA 
HETATM   10  N   UNL     1      -8.715  16.520  67.942  1.00  0.00    -0.186 N  
HETATM   11  H   UNL     1      -9.196  16.894  68.760  1.00  0.00     0.000 HD 
BRANCH  10  12
HETATM   12  C   UNL     1      -9.463  15.740  66.976  1.00  0.00    -0.223 C  
BRANCH  12  13
HETATM   13  C   UNL     1     -10.954  15.616  67.329  1.00  0.00    -0.275 C  
BRANCH  13  14
HETATM   14  C   UNL     1     -11.305  14.407  68.177  1.00  0.00    -0.317 A  
HETATM   15  C   UNL     1     -11.568  13.155  67.602  1.00  0.00    -0.392 A  
HETATM   16  C   UNL     1     -11.935  12.062  68.390  1.00  0.00    -0.256 A  
HETATM   17  C   UNL     1     -11.985  12.189  69.776  1.00  0.00    -0.302 A  
HETATM   18  C   UNL     1     -11.680  13.414  70.377  1.00  0.00    -0.184 A  
HETATM   19  C   UNL     1     -11.336  14.512  69.580  1.00  0.00    -0.313 A  
BRANCH  17  20
HETATM   20  S   UNL     1     -12.583  10.827  70.750  1.00  0.00    -0.386 S  
HETATM   21  O   UNL     1     -13.497  10.041  69.950  1.00  0.00     0.333 OA 
HETATM   22  O   UNL     1     -13.011  11.367  72.027  1.00  0.00    -0.442 OA 
BRANCH  20  23
HETATM   23  N   UNL     1     -11.225   9.932  71.102  1.00  0.00    -0.362 N  
HETATM   24  H   UNL     1     -10.699  10.178  71.941  1.00  0.00     0.000 HD 
BRANCH  23  25
HETATM   25  C   UNL     1     -10.760   8.877  70.338  1.00  0.00    -0.227 C  
HETATM   26  O   UNL     1     -11.315   7.792  70.284  1.00  0.00    -0.252 OA 
BRANCH  25  27
HETATM   27  N   UNL     1      -9.628   9.176  69.632  1.00  0.00    -0.169 N  
HETATM   28  H   UNL     1      -8.719   8.887  69.991  1.00  0.00     0.000 HD 
BRANCH  27  29
HETATM   29  C   UNL     1      -9.707   9.906  68.370  1.00  0.00    -0.149 C  
HETATM   30  C   UNL     1      -8.317  10.312  67.869  1.00  0.00    -0.114 C  
HETATM   31  C   UNL     1      -7.524   9.144  67.285  1.00  0.00    -0.088 C  
HETATM   32  C   UNL     1      -8.317   8.405  66.212  1.00  0.00    -0.123 C  
HETATM   33  C   UNL     1      -9.676   7.949  66.732  1.00  0.00    -0.303 C  
HETATM   34  C   UNL     1     -10.480   9.116  67.304  1.00  0.00    -0.335 C  
ENDBRANCH  27  29
ENDBRANCH  25  27
ENDBRANCH  23  25
ENDBRANCH  20  23
ENDBRANCH  17  20
ENDBRANCH  13  14
ENDBRANCH  12  13
ENDBRANCH  10  12
ENDBRANCH   5   8
TORSDOF 9
ENDMDL
MODEL      244
REMARK 921   NORMALIZED FREE ENERGY PREDICTED BY IDOCK:   -4.29 KCAL/MOL
REMARK 922        TOTAL FREE ENERGY PREDICTED BY IDOCK:   -8.04 KCAL/MOL
REMARK 923 INTER-LIGAND FREE ENERGY PREDICTED BY IDOCK:   -8.05 KCAL/MOL
REMARK 924 INTRA-LIGAND FREE ENERGY PREDICTED BY IDOCK:    0.01 KCAL/MOL
REMARK 927      BINDING AFFINITY PREDICTED BY RF-SCORE:    0.00 PKD
ROOT
HETATM    1  C   UNL     1      -7.903   7.144  66.493  1.00  0.00    -0.106 C  
HETATM    2  C   UNL     1      -8.857   7.697  67.505  1.00  0.00    -0.124 A  
HETATM    3  N   UNL     1      -9.693   8.688  67.104  1.00  0.00    -0.174 NA 
HETATM    4  C   UNL     1     -10.518   9.187  68.059  1.00  0.00    -0.224 A  
HETATM    5  C   UNL     1     -10.516   8.715  69.363  1.00  0.00    -0.218 A  
HETATM    6  C   UNL     1      -8.873   7.219  68.815  1.00  0.00    -0.127 A  
HETATM    7  N   UNL     1      -9.696   7.708  69.778  1.00  0.00    -0.171 NA 
ENDROOT
BRANCH   5   8
HETATM    8  C   UNL     1     -11.413   9.349  70.368  1.00  0.00    -0.223 C  
HETATM    9  O   UNL     1     -11.914   8.685  71.269  1.00  0.00    -0.284 OA 
HETATM   10  N   UNL     1     -11.645  10.700  70.196  1.00  0.00    -0.303 N  
HETATM   11  H   UNL     1     -11.132  11.206  69.474  1.00  0.00     0.000 HD 
BRANCH  10  12
HETATM   12  C   UNL     1     -12.602  11.416  71.017  1.00  0.00    -0.386 C  
BRANCH  12  13
HETATM   13  C   UNL     1     -12.420  12.942  70.960  1.00  0.00    -0.374 C  
BRANCH  13  14
HETATM   14  C   UNL     1     -12.054  13.486  69.591  1.00  0.00    -0.365 A  
HETATM   15  C   UNL     1     -11.957  12.650  68.469  1.00  0.00    -0.258 A  
HETATM   16  C   UNL     1     -11.575  13.156  67.225  1.00  0.00    -0.404 A  
HETATM   17  C   UNL     1     -11.343  14.521  67.069  1.00  0.00    -0.349 A  
HETATM   18  C   UNL     1     -11.481  15.382  68.162  1.00  0.00    -0.352 A  
HETATM   19  C   UNL     1     -11.842  14.865  69.412  1.00  0.00    -0.356 A  
BRANCH  17  20
HETATM   20  S   UNL     1     -10.728  15.124  65.514  1.00  0.00    -0.392 S  
HETATM   21  O   UNL     1     -11.245  16.455  65.287  1.00  0.00    -0.147 OA 
HETATM   22  O   UNL     1     -10.947  14.079  64.532  1.00  0.00    -0.389 OA 
BRANCH  20  23
HETATM   23  N   UNL     1      -9.076  15.184  65.708  1.00  0.00    -0.414 N  
HETATM   24  H   UNL     1      -8.495  14.963  64.899  1.00  0.00     0.000 HD 
BRANCH  23  25
HETATM   25  C   UNL     1      -8.435  15.512  66.889  1.00  0.00    -0.254 C  
HETATM   26  O   UNL     1      -8.198  14.703  67.770  1.00  0.00    -0.141 OA 
BRANCH  25  27
HETATM   27  N   UNL     1      -8.075  16.829  66.964  1.00  0.00    -0.179 N  
HETATM   28  H   UNL     1      -8.742  17.515  67.316  1.00  0.00     0.000 HD 
BRANCH  27  29
HETATM   29  C   UNL     1      -6.746  17.263  66.544  1.00  0.00    -0.251 C  
HETATM   30  C   UNL     1      -6.824  18.432  65.557  1.00  0.00    -0.218 C  
HETATM   31  C   UNL     1      -7.180  19.759  66.225  1.00  0.00    -0.276 C  
HETATM   32  C   UNL     1      -6.252  20.068  67.395  1.00  0.00    -0.211 C  
HETATM   33  C   UNL     1      -6.222  18.927  68.406  1.00  0.00    -0.236 C  
HETATM   34  C   UNL     1      -5.852  17.600  67.746  1.00  0.00    -0.146 C  
ENDBRANCH  27  29
ENDBRANCH  25  27
ENDBRANCH  23  25
ENDBRANCH  20  23
ENDBRANCH  17  20
ENDBRANCH  13  14
ENDBRANCH  12  13
ENDBRANCH  10  12
ENDBRANCH   5   8
TORSDOF 9
ENDMDL
MODEL      245
REMARK 921   NORMALIZED FREE ENERGY PREDICTED BY IDOCK:   -4.29 KCAL/MOL
REMARK 922        TOTAL FREE ENERGY PREDICTED BY IDOCK:   -8.04 KCAL/MOL
REMARK 923 INTER-LIGAND FREE ENERGY PREDICTED BY IDOCK:   -6.70 KCAL/MOL
REMARK 924 INTRA-LIGAND FREE ENERGY PREDICTED BY IDOCK:   -1.33 KCAL/MOL
REMARK 927      BINDING AFFINITY PREDICTED BY RF-SCORE:    0.00 PKD
ROOT
HETATM    1  C   UNL     1      -9.225  17.605  68.472  1.00  0.00    -0.281 C  
HETATM    2  C   UNL     1      -9.751  16.381  67.792  1.00  0.00    -0.235 A  
HETATM    3  N   UNL     1     -10.963  15.915  68.186  1.00  0.00    -0.322 NA 
HETATM    4  C   UNL     1     -11.390  14.784  67.571  1.00  0.00    -0.344 A  
HETATM    5  C   UNL     1     -10.643  14.141  66.596  1.00  0.00    -0.278 A  
HETATM    6  C   UNL     1      -9.013  15.735  66.800  1.00  0.00    -0.260 A  
HETATM    7  N   UNL     1      -9.431  14.604  66.175  1.00  0.00    -0.296 NA 
ENDROOT
BRANCH   5   8
HETATM    8  C   UNL     1     -11.153  12.873  66.004  1.00  0.00    -0.281 C  
HETATM    9  O   UNL     1     -12.353  12.622  65.996  1.00  0.00    -0.587 OA 
HETATM   10  N   UNL     1     -10.191  12.019  65.499  1.00  0.00    -0.250 N  
HETATM   11  H   UNL     1      -9.219  12.328  65.465  1.00  0.00     0.000 HD 
BRANCH  10  12
HETATM   12  C   UNL     1     -10.531  10.695  65.018  1.00  0.00    -0.208 C  
BRANCH  12  13
HETATM   13  C   UNL     1      -9.302   9.790  64.827  1.00  0.00    -0.327 C  
BRANCH  13  14
HETATM   14  C   UNL     1      -9.141   8.710  65.881  1.00  0.00    -0.259 A  
HETATM   15  C   UNL     1     -10.225   8.270  66.656  1.00  0.00    -0.333 A  
HETATM   16  C   UNL     1     -10.054   7.308  67.653  1.00  0.00    -0.232 A  
HETATM   17  C   UNL     1      -8.805   6.724  67.851  1.00  0.00    -0.118 A  
HETATM   18  C   UNL     1      -7.720   7.110  67.058  1.00  0.00    -0.107 A  
HETATM   19  C   UNL     1      -7.892   8.092  66.076  1.00  0.00    -0.094 A  
BRANCH  17  20
HETATM   20  S   UNL     1      -8.579   5.602  69.212  1.00  0.00    -0.105 S  
HETATM   21  O   UNL     1      -8.854   6.299  70.449  1.00  0.00    -0.144 OA 
HETATM   22  O   UNL     1      -7.303   4.940  69.016  1.00  0.00    -0.053 OA 
BRANCH  20  23
HETATM   23  N   UNL     1      -9.716   4.410  68.970  1.00  0.00    -0.172 N  
HETATM   24  H   UNL     1     -10.680   4.615  69.232  1.00  0.00     0.000 HD 
BRANCH  23  25
HETATM   25  C   UNL     1      -9.445   3.162  68.438  1.00  0.00    -0.147 C  
HETATM   26  O   UNL     1      -8.954   2.251  69.084  1.00  0.00    -0.085 OA 
BRANCH  25  27
HETATM   27  N   UNL     1      -9.801   3.043  67.124  1.00  0.00    -0.268 N  
HETATM   28  H   UNL     1     -10.750   2.758  66.883  1.00  0.00     0.000 HD 
BRANCH  27  29
HETATM   29  C   UNL     1      -8.838   3.319  66.062  1.00  0.00    -0.138 C  
HETATM   30  C   UNL     1      -8.418   2.034  65.340  1.00  0.00    -0.097 C  
HETATM   31  C   UNL     1      -9.490   1.498  64.394  1.00  0.00    -0.128 C  
HETATM   32  C   UNL     1      -9.965   2.567  63.416  1.00  0.00    -0.123 C  
HETATM   33  C   UNL     1     -10.440   3.821  64.140  1.00  0.00    -0.267 C  
HETATM   34  C   UNL     1      -9.365   4.371  65.076  1.00  0.00    -0.164 C  
ENDBRANCH  27  29
ENDBRANCH  25  27
ENDBRANCH  23  25
ENDBRANCH  20  23
ENDBRANCH  17  20
ENDBRANCH  13  14
ENDBRANCH  12  13
ENDBRANCH  10  12
ENDBRANCH   5   8
TORSDOF 9
ENDMDL
MODEL      246
REMARK 921   NORMALIZED FREE ENERGY PREDICTED BY IDOCK:   -4.28 KCAL/MOL
REMARK 922        TOTAL FREE ENERGY PREDICTED BY IDOCK:   -8.02 KCAL/MOL
REMARK 923 INTER-LIGAND FREE ENERGY PREDICTED BY IDOCK:   -6.43 KCAL/MOL
REMARK 924 INTRA-LIGAND FREE ENERGY PREDICTED BY IDOCK:   -1.59 KCAL/MOL
REMARK 927      BINDING AFFINITY PREDICTED BY RF-SCORE:    0.00 PKD
ROOT
HETATM    1  C   UNL     1     -12.157  15.590  64.222  1.00  0.00    -0.126 C  
HETATM    2  C   UNL     1     -11.712  14.511  65.157  1.00  0.00    -0.376 A  
HETATM    3  N   UNL     1     -10.508  14.660  65.762  1.00  0.00    -0.306 NA 
HETATM    4  C   UNL     1     -10.124  13.644  66.576  1.00  0.00    -0.286 A  
HETATM    5  C   UNL     1     -10.912  12.523  66.785  1.00  0.00    -0.265 A  
HETATM    6  C   UNL     1     -12.505  13.385  65.386  1.00  0.00    -0.494 A  
HETATM    7  N   UNL     1     -12.134  12.364  66.200  1.00  0.00    -0.641 NA 
ENDROOT
BRANCH   5   8
HETATM    8  C   UNL     1     -10.401  11.424  67.651  1.00  0.00    -0.183 C  
HETATM    9  O   UNL     1      -9.487  11.622  68.443  1.00  0.00    -0.189 OA 
HETATM   10  N   UNL     1     -11.008  10.194  67.476  1.00  0.00    -0.315 N  
HETATM   11  H   UNL     1     -11.817  10.121  66.859  1.00  0.00     0.000 HD 
BRANCH  10  12
HETATM   12  C   UNL     1     -10.523   9.007  68.152  1.00  0.00    -0.207 C  
BRANCH  12  13
HETATM   13  C   UNL     1     -10.471   7.773  67.236  1.00  0.00    -0.392 C  
BRANCH  13  14
HETATM   14  C   UNL     1      -9.899   6.526  67.885  1.00  0.00    -0.134 A  
HETATM   15  C   UNL     1      -8.593   6.088  67.615  1.00  0.00    -0.106 A  
HETATM   16  C   UNL     1      -8.095   4.914  68.183  1.00  0.00    -0.086 A  
HETATM   17  C   UNL     1      -8.874   4.190  69.081  1.00  0.00    -0.097 A  
HETATM   18  C   UNL     1     -10.161   4.632  69.405  1.00  0.00    -0.194 A  
HETATM   19  C   UNL     1     -10.664   5.797  68.814  1.00  0.00    -0.318 A  
BRANCH  17  20
HETATM   20  S   UNL     1      -8.274   2.630  69.688  1.00  0.00    -0.044 S  
HETATM   21  O   UNL     1      -6.968   2.374  69.121  1.00  0.00    -0.039 OA 
HETATM   22  O   UNL     1      -9.343   1.664  69.523  1.00  0.00    -0.100 OA 
BRANCH  20  23
HETATM   23  N   UNL     1      -8.143   2.840  71.334  1.00  0.00    -0.057 N  
HETATM   24  H   UNL     1      -8.574   2.139  71.937  1.00  0.00     0.000 HD 
BRANCH  23  25
HETATM   25  C   UNL     1      -7.493   3.898  71.942  1.00  0.00    -0.060 C  
HETATM   26  O   UNL     1      -6.280   4.034  71.934  1.00  0.00    -0.013 OA 
BRANCH  25  27
HETATM   27  N   UNL     1      -8.343   4.790  72.535  1.00  0.00    -0.114 N  
HETATM   28  H   UNL     1      -9.311   4.523  72.710  1.00  0.00     0.000 HD 
BRANCH  27  29
HETATM   29  C   UNL     1      -7.879   6.119  72.921  1.00  0.00    -0.105 C  
HETATM   30  C   UNL     1      -7.987   7.110  71.756  1.00  0.00    -0.097 C  
HETATM   31  C   UNL     1      -9.421   7.557  71.481  1.00  0.00    -0.166 C  
HETATM   32  C   UNL     1     -10.098   8.088  72.740  1.00  0.00    -0.378 C  
HETATM   33  C   UNL     1     -10.041   7.076  73.878  1.00  0.00    -0.386 C  
HETATM   34  C   UNL     1      -8.607   6.636  74.169  1.00  0.00    -0.157 C  
ENDBRANCH  27  29
ENDBRANCH  25  27
ENDBRANCH  23  25
ENDBRANCH  20  23
ENDBRANCH  17  20
ENDBRANCH  13  14
ENDBRANCH  12  13
ENDBRANCH  10  12
ENDBRANCH   5   8
TORSDOF 9
ENDMDL
MODEL      247
REMARK 921   NORMALIZED FREE ENERGY PREDICTED BY IDOCK:   -4.27 KCAL/MOL
REMARK 922        TOTAL FREE ENERGY PREDICTED BY IDOCK:   -8.02 KCAL/MOL
REMARK 923 INTER-LIGAND FREE ENERGY PREDICTED BY IDOCK:   -7.21 KCAL/MOL
REMARK 924 INTRA-LIGAND FREE ENERGY PREDICTED BY IDOCK:   -0.81 KCAL/MOL
REMARK 927      BINDING AFFINITY PREDICTED BY RF-SCORE:    0.00 PKD
ROOT
HETATM    1  C   UNL     1      -5.185  18.112  66.735  1.00  0.00    -0.158 C  
HETATM    2  C   UNL     1      -6.446  17.311  66.664  1.00  0.00    -0.228 A  
HETATM    3  N   UNL     1      -6.499  16.158  67.377  1.00  0.00    -0.169 NA 
HETATM    4  C   UNL     1      -7.646  15.442  67.259  1.00  0.00    -0.212 A  
HETATM    5  C   UNL     1      -8.704  15.860  66.466  1.00  0.00    -0.315 A  
HETATM    6  C   UNL     1      -7.521  17.731  65.880  1.00  0.00    -0.165 A  
HETATM    7  N   UNL     1      -8.675  17.025  65.756  1.00  0.00    -0.487 NA 
ENDROOT
BRANCH   5   8
HETATM    8  C   UNL     1      -9.910  14.995  66.344  1.00  0.00    -0.272 C  
HETATM    9  O   UNL     1     -10.411  14.767  65.248  1.00  0.00    -0.350 OA 
HETATM   10  N   UNL     1     -10.417  14.505  67.532  1.00  0.00    -0.252 N  
HETATM   11  H   UNL     1      -9.903  14.667  68.398  1.00  0.00     0.000 HD 
BRANCH  10  12
HETATM   12  C   UNL     1     -11.662  13.763  67.576  1.00  0.00    -0.375 C  
BRANCH  12  13
HETATM   13  C   UNL     1     -12.034  13.297  68.993  1.00  0.00    -0.336 C  
BRANCH  13  14
HETATM   14  C   UNL     1     -11.671  11.855  69.302  1.00  0.00    -0.389 A  
HETATM   15  C   UNL     1     -10.919  11.078  68.407  1.00  0.00    -0.281 A  
HETATM   16  C   UNL     1     -10.631   9.740  68.682  1.00  0.00    -0.249 A  
HETATM   17  C   UNL     1     -11.038   9.173  69.888  1.00  0.00    -0.159 A  
HETATM   18  C   UNL     1     -11.746   9.941  70.817  1.00  0.00    -0.424 A  
HETATM   19  C   UNL     1     -12.052  11.276  70.525  1.00  0.00    -0.481 A  
BRANCH  17  20
HETATM   20  S   UNL     1     -10.780   7.435  70.159  1.00  0.00    -0.244 S  
HETATM   21  O   UNL     1     -11.442   6.690  69.112  1.00  0.00    -0.244 OA 
HETATM   22  O   UNL     1     -11.087   7.168  71.551  1.00  0.00    -0.235 OA 
BRANCH  20  23
HETATM   23  N   UNL     1      -9.132   7.231  70.043  1.00  0.00    -0.149 N  
HETATM   24  H   UNL     1      -8.570   7.424  70.873  1.00  0.00     0.000 HD 
BRANCH  23  25
HETATM   25  C   UNL     1      -8.470   6.819  68.900  1.00  0.00    -0.120 C  
HETATM   26  O   UNL     1      -8.491   7.443  67.852  1.00  0.00    -0.122 OA 
BRANCH  25  27
HETATM   27  N   UNL     1      -7.772   5.655  69.067  1.00  0.00    -0.087 N  
HETATM   28  H   UNL     1      -6.952   5.642  69.673  1.00  0.00     0.000 HD 
BRANCH  27  29
HETATM   29  C   UNL     1      -8.188   4.433  68.386  1.00  0.00    -0.085 C  
HETATM   30  C   UNL     1      -7.071   3.383  68.389  1.00  0.00    -0.050 C  
HETATM   31  C   UNL     1      -6.885   2.708  69.747  1.00  0.00    -0.034 C  
HETATM   32  C   UNL     1      -8.195   2.140  70.280  1.00  0.00    -0.062 C  
HETATM   33  C   UNL     1      -9.288   3.203  70.332  1.00  0.00    -0.232 C  
HETATM   34  C   UNL     1      -9.490   3.870  68.973  1.00  0.00    -0.240 C  
ENDBRANCH  27  29
ENDBRANCH  25  27
ENDBRANCH  23  25
ENDBRANCH  20  23
ENDBRANCH  17  20
ENDBRANCH  13  14
ENDBRANCH  12  13
ENDBRANCH  10  12
ENDBRANCH   5   8
TORSDOF 9
ENDMDL
MODEL      248
REMARK 921   NORMALIZED FREE ENERGY PREDICTED BY IDOCK:   -4.26 KCAL/MOL
REMARK 922        TOTAL FREE ENERGY PREDICTED BY IDOCK:   -7.99 KCAL/MOL
REMARK 923 INTER-LIGAND FREE ENERGY PREDICTED BY IDOCK:   -6.73 KCAL/MOL
REMARK 924 INTRA-LIGAND FREE ENERGY PREDICTED BY IDOCK:   -1.26 KCAL/MOL
REMARK 927      BINDING AFFINITY PREDICTED BY RF-SCORE:    0.00 PKD
ROOT
HETATM    1  C   UNL     1      -5.235  19.788  71.312  1.00  0.00    -0.323 C  
HETATM    2  C   UNL     1      -5.930  19.188  70.131  1.00  0.00    -0.223 A  
HETATM    3  N   UNL     1      -6.750  19.991  69.409  1.00  0.00    -0.312 NA 
HETATM    4  C   UNL     1      -7.388  19.402  68.367  1.00  0.00    -0.312 A  
HETATM    5  C   UNL     1      -7.214  18.063  68.050  1.00  0.00    -0.230 A  
HETATM    6  C   UNL     1      -5.749  17.845  69.796  1.00  0.00    -0.240 A  
HETATM    7  N   UNL     1      -6.380  17.244  68.754  1.00  0.00    -0.173 NA 
ENDROOT
BRANCH   5   8
HETATM    8  C   UNL     1      -7.989  17.473  66.924  1.00  0.00    -0.226 C  
HETATM    9  O   UNL     1      -7.558  17.510  65.777  1.00  0.00    -0.514 OA 
HETATM   10  N   UNL     1      -9.207  16.916  67.264  1.00  0.00    -0.224 N  
HETATM   11  H   UNL     1      -9.466  16.846  68.248  1.00  0.00     0.000 HD 
BRANCH  10  12
HETATM   12  C   UNL     1     -10.126  16.428  66.254  1.00  0.00    -0.331 C  
BRANCH  12  13
HETATM   13  C   UNL     1     -11.229  15.526  66.831  1.00  0.00    -0.159 C  
BRANCH  13  14
HETATM   14  C   UNL     1     -10.803  14.092  67.091  1.00  0.00    -0.288 A  
HETATM   15  C   UNL     1     -11.378  13.329  68.119  1.00  0.00    -0.323 A  
HETATM   16  C   UNL     1     -10.945  12.027  68.377  1.00  0.00    -0.276 A  
HETATM   17  C   UNL     1      -9.971  11.443  67.570  1.00  0.00    -0.182 A  
HETATM   18  C   UNL     1      -9.418  12.167  66.509  1.00  0.00    -0.235 A  
HETATM   19  C   UNL     1      -9.839  13.480  66.270  1.00  0.00    -0.306 A  
BRANCH  17  20
HETATM   20  S   UNL     1      -9.338   9.838  67.998  1.00  0.00    -0.127 S  
HETATM   21  O   UNL     1      -9.466   9.645  69.425  1.00  0.00    -0.170 OA 
HETATM   22  O   UNL     1      -8.045   9.700  67.355  1.00  0.00    -0.109 OA 
BRANCH  20  23
HETATM   23  N   UNL     1     -10.327   8.767  67.193  1.00  0.00    -0.281 N  
HETATM   24  H   UNL     1     -10.988   9.149  66.516  1.00  0.00     0.000 HD 
BRANCH  23  25
HETATM   25  C   UNL     1     -10.316   7.397  67.377  1.00  0.00    -0.270 C  
HETATM   26  O   UNL     1     -11.264   6.677  67.111  1.00  0.00    -0.392 OA 
BRANCH  25  27
HETATM   27  N   UNL     1      -9.131   6.924  67.867  1.00  0.00    -0.123 N  
HETATM   28  H   UNL     1      -8.607   7.480  68.542  1.00  0.00     0.000 HD 
BRANCH  27  29
HETATM   29  C   UNL     1      -8.607   5.632  67.434  1.00  0.00    -0.109 C  
HETATM   30  C   UNL     1      -7.771   5.767  66.157  1.00  0.00    -0.095 C  
HETATM   31  C   UNL     1      -6.393   6.379  66.402  1.00  0.00    -0.042 C  
HETATM   32  C   UNL     1      -5.635   5.641  67.499  1.00  0.00    -0.012 C  
HETATM   33  C   UNL     1      -6.445   5.561  68.788  1.00  0.00    -0.043 C  
HETATM   34  C   UNL     1      -7.818   4.935  68.551  1.00  0.00    -0.081 C  
ENDBRANCH  27  29
ENDBRANCH  25  27
ENDBRANCH  23  25
ENDBRANCH  20  23
ENDBRANCH  17  20
ENDBRANCH  13  14
ENDBRANCH  12  13
ENDBRANCH  10  12
ENDBRANCH   5   8
TORSDOF 9
ENDMDL
MODEL      249
REMARK 921   NORMALIZED FREE ENERGY PREDICTED BY IDOCK:   -4.24 KCAL/MOL
REMARK 922        TOTAL FREE ENERGY PREDICTED BY IDOCK:   -7.96 KCAL/MOL
REMARK 923 INTER-LIGAND FREE ENERGY PREDICTED BY IDOCK:   -7.09 KCAL/MOL
REMARK 924 INTRA-LIGAND FREE ENERGY PREDICTED BY IDOCK:   -0.87 KCAL/MOL
REMARK 927      BINDING AFFINITY PREDICTED BY RF-SCORE:    0.00 PKD
ROOT
HETATM    1  C   UNL     1      -9.865  18.249  68.488  1.00  0.00    -0.400 C  
HETATM    2  C   UNL     1     -10.344  17.107  67.649  1.00  0.00    -0.344 A  
HETATM    3  N   UNL     1     -11.094  16.153  68.254  1.00  0.00    -0.345 NA 
HETATM    4  C   UNL     1     -11.480  15.117  67.468  1.00  0.00    -0.298 A  
HETATM    5  C   UNL     1     -11.138  15.034  66.127  1.00  0.00    -0.329 A  
HETATM    6  C   UNL     1     -10.017  17.022  66.295  1.00  0.00    -0.310 A  
HETATM    7  N   UNL     1     -10.399  15.992  65.497  1.00  0.00    -0.428 NA 
ENDROOT
BRANCH   5   8
HETATM    8  C   UNL     1     -11.553  13.839  65.341  1.00  0.00    -0.320 C  
HETATM    9  O   UNL     1     -12.704  13.421  65.396  1.00  0.00    -0.526 OA 
HETATM   10  N   UNL     1     -10.560  13.246  64.586  1.00  0.00    -0.383 N  
HETATM   11  H   UNL     1      -9.646  13.694  64.523  1.00  0.00     0.000 HD 
BRANCH  10  12
HETATM   12  C   UNL     1     -10.787  12.000  63.880  1.00  0.00    -0.399 C  
BRANCH  12  13
HETATM   13  C   UNL     1      -9.622  11.006  64.023  1.00  0.00    -0.310 C  
BRANCH  13  14
HETATM   14  C   UNL     1      -9.456  10.421  65.414  1.00  0.00    -0.285 A  
HETATM   15  C   UNL     1      -9.318  11.240  66.545  1.00  0.00    -0.201 A  
HETATM   16  C   UNL     1      -9.120  10.689  67.813  1.00  0.00    -0.144 A  
HETATM   17  C   UNL     1      -9.119   9.306  67.979  1.00  0.00    -0.127 A  
HETATM   18  C   UNL     1      -9.304   8.469  66.874  1.00  0.00    -0.219 A  
HETATM   19  C   UNL     1      -9.478   9.027  65.602  1.00  0.00    -0.273 A  
BRANCH  17  20
HETATM   20  S   UNL     1      -8.732   8.625  69.575  1.00  0.00    -0.141 S  
HETATM   21  O   UNL     1      -9.513   7.425  69.778  1.00  0.00    -0.160 OA 
HETATM   22  O   UNL     1      -8.801   9.712  70.534  1.00  0.00    -0.225 OA 
BRANCH  20  23
HETATM   23  N   UNL     1      -7.115   8.239  69.488  1.00  0.00    -0.053 N  
HETATM   24  H   UNL     1      -6.519   8.825  68.904  1.00  0.00     0.000 HD 
BRANCH  23  25
HETATM   25  C   UNL     1      -6.524   7.180  70.152  1.00  0.00    -0.042 C  
HETATM   26  O   UNL     1      -5.374   7.202  70.559  1.00  0.00    -0.023 OA 
BRANCH  25  27
HETATM   27  N   UNL     1      -7.361   6.113  70.327  1.00  0.00    -0.086 N  
HETATM   28  H   UNL     1      -8.209   6.223  70.882  1.00  0.00     0.000 HD 
BRANCH  27  29
HETATM   29  C   UNL     1      -7.053   4.818  69.727  1.00  0.00    -0.054 C  
HETATM   30  C   UNL     1      -8.119   3.773  70.075  1.00  0.00    -0.061 C  
HETATM   31  C   UNL     1      -9.419   3.960  69.296  1.00  0.00    -0.256 C  
HETATM   32  C   UNL     1      -9.171   4.037  67.793  1.00  0.00    -0.197 C  
HETATM   33  C   UNL     1      -8.155   5.119  67.446  1.00  0.00    -0.100 C  
HETATM   34  C   UNL     1      -6.846   4.928  68.211  1.00  0.00    -0.056 C  
ENDBRANCH  27  29
ENDBRANCH  25  27
ENDBRANCH  23  25
ENDBRANCH  20  23
ENDBRANCH  17  20
ENDBRANCH  13  14
ENDBRANCH  12  13
ENDBRANCH  10  12
ENDBRANCH   5   8
TORSDOF 9
ENDMDL
MODEL      250
REMARK 921   NORMALIZED FREE ENERGY PREDICTED BY IDOCK:   -4.23 KCAL/MOL
REMARK 922        TOTAL FREE ENERGY PREDICTED BY IDOCK:   -7.95 KCAL/MOL
REMARK 923 INTER-LIGAND FREE ENERGY PREDICTED BY IDOCK:   -6.52 KCAL/MOL
REMARK 924 INTRA-LIGAND FREE ENERGY PREDICTED BY IDOCK:   -1.43 KCAL/MOL
REMARK 927      BINDING AFFINITY PREDICTED BY RF-SCORE:    0.00 PKD
ROOT
HETATM    1  C   UNL     1     -12.386  13.056  64.767  1.00  0.00    -0.490 C  
HETATM    2  C   UNL     1     -11.563  12.105  65.576  1.00  0.00    -0.343 A  
HETATM    3  N   UNL     1     -10.652  11.345  64.919  1.00  0.00    -0.302 NA 
HETATM    4  C   UNL     1      -9.949  10.471  65.683  1.00  0.00    -0.270 A  
HETATM    5  C   UNL     1     -10.141  10.360  67.051  1.00  0.00    -0.215 A  
HETATM    6  C   UNL     1     -11.738  11.997  66.956  1.00  0.00    -0.267 A  
HETATM    7  N   UNL     1     -11.040  11.128  67.732  1.00  0.00    -0.263 NA 
ENDROOT
BRANCH   5   8
HETATM    8  C   UNL     1      -9.370   9.340  67.815  1.00  0.00    -0.128 C  
HETATM    9  O   UNL     1      -9.802   8.888  68.870  1.00  0.00    -0.168 OA 
HETATM   10  N   UNL     1      -8.156   8.973  67.267  1.00  0.00    -0.103 N  
HETATM   11  H   UNL     1      -7.898   9.328  66.346  1.00  0.00     0.000 HD 
BRANCH  10  12
HETATM   12  C   UNL     1      -7.242   8.095  67.969  1.00  0.00    -0.094 C  
BRANCH  12  13
HETATM   13  C   UNL     1      -6.013   8.829  68.529  1.00  0.00    -0.045 C  
BRANCH  13  14
HETATM   14  C   UNL     1      -6.055  10.340  68.381  1.00  0.00    -0.044 A  
HETATM   15  C   UNL     1      -6.672  11.156  69.341  1.00  0.00    -0.120 A  
HETATM   16  C   UNL     1      -6.745  12.540  69.170  1.00  0.00    -0.089 A  
HETATM   17  C   UNL     1      -6.146  13.138  68.064  1.00  0.00    -0.118 A  
HETATM   18  C   UNL     1      -5.483  12.350  67.118  1.00  0.00    -0.031 A  
HETATM   19  C   UNL     1      -5.434  10.961  67.282  1.00  0.00    -0.044 A  
BRANCH  17  20
HETATM   20  S   UNL     1      -6.365  14.881  67.796  1.00  0.00    -0.130 S  
HETATM   21  O   UNL     1      -5.211  15.400  67.096  1.00  0.00    -0.304 OA 
HETATM   22  O   UNL     1      -6.773  15.462  69.060  1.00  0.00    -0.114 OA 
BRANCH  20  23
HETATM   23  N   UNL     1      -7.712  14.993  66.824  1.00  0.00    -0.261 N  
HETATM   24  H   UNL     1      -8.171  14.124  66.548  1.00  0.00     0.000 HD 
BRANCH  23  25
HETATM   25  C   UNL     1      -8.253  16.180  66.364  1.00  0.00    -0.301 C  
HETATM   26  O   UNL     1      -9.268  16.236  65.689  1.00  0.00    -0.444 OA 
BRANCH  25  27
HETATM   27  N   UNL     1      -7.552  17.285  66.758  1.00  0.00    -0.211 N  
HETATM   28  H   UNL     1      -7.219  17.354  67.720  1.00  0.00     0.000 HD 
BRANCH  27  29
HETATM   29  C   UNL     1      -7.274  18.366  65.818  1.00  0.00    -0.187 C  
HETATM   30  C   UNL     1      -8.277  19.514  65.972  1.00  0.00    -0.280 C  
HETATM   31  C   UNL     1      -8.026  20.367  67.214  1.00  0.00    -0.376 C  
HETATM   32  C   UNL     1      -6.586  20.863  67.277  1.00  0.00    -0.403 C  
HETATM   33  C   UNL     1      -5.591  19.711  67.184  1.00  0.00    -0.174 C  
HETATM   34  C   UNL     1      -5.827  18.864  65.935  1.00  0.00    -0.198 C  
ENDBRANCH  27  29
ENDBRANCH  25  27
ENDBRANCH  23  25
ENDBRANCH  20  23
ENDBRANCH  17  20
ENDBRANCH  13  14
ENDBRANCH  12  13
ENDBRANCH  10  12
ENDBRANCH   5   8
TORSDOF 9
ENDMDL
MODEL      251
REMARK 921   NORMALIZED FREE ENERGY PREDICTED BY IDOCK:   -4.19 KCAL/MOL
REMARK 922        TOTAL FREE ENERGY PREDICTED BY IDOCK:   -7.89 KCAL/MOL
REMARK 923 INTER-LIGAND FREE ENERGY PREDICTED BY IDOCK:   -7.97 KCAL/MOL
REMARK 924 INTRA-LIGAND FREE ENERGY PREDICTED BY IDOCK:    0.07 KCAL/MOL
REMARK 927      BINDING AFFINITY PREDICTED BY RF-SCORE:    0.00 PKD
ROOT
HETATM    1  C   UNL     1      -8.815  15.844  65.923  1.00  0.00    -0.168 C  
HETATM    2  C   UNL     1      -9.574  14.900  66.799  1.00  0.00    -0.251 A  
HETATM    3  N   UNL     1      -8.891  13.863  67.347  1.00  0.00    -0.196 NA 
HETATM    4  C   UNL     1      -9.622  13.009  68.107  1.00  0.00    -0.227 A  
HETATM    5  C   UNL     1     -10.981  13.182  68.320  1.00  0.00    -0.253 A  
HETATM    6  C   UNL     1     -10.939  15.073  67.032  1.00  0.00    -0.318 A  
HETATM    7  N   UNL     1     -11.680  14.228  67.792  1.00  0.00    -0.356 NA 
ENDROOT
BRANCH   5   8
HETATM    8  C   UNL     1     -11.727  12.174  69.123  1.00  0.00    -0.328 C  
HETATM    9  O   UNL     1     -12.191  11.169  68.594  1.00  0.00    -0.582 OA 
HETATM   10  N   UNL     1     -11.869  12.465  70.466  1.00  0.00    -0.525 N  
HETATM   11  H   UNL     1     -11.388  13.276  70.854  1.00  0.00     0.000 HD 
BRANCH  10  12
HETATM   12  C   UNL     1     -12.686  11.643  71.337  1.00  0.00    -0.339 C  
BRANCH  12  13
HETATM   13  C   UNL     1     -13.103  10.311  70.691  1.00  0.00    -0.292 C  
BRANCH  13  14
HETATM   14  C   UNL     1     -12.436   9.083  71.284  1.00  0.00    -0.346 A  
HETATM   15  C   UNL     1     -13.075   7.834  71.301  1.00  0.00    -0.247 A  
HETATM   16  C   UNL     1     -12.469   6.723  71.890  1.00  0.00    -0.355 A  
HETATM   17  C   UNL     1     -11.184   6.828  72.418  1.00  0.00    -0.264 A  
HETATM   18  C   UNL     1     -10.507   8.050  72.369  1.00  0.00    -0.368 A  
HETATM   19  C   UNL     1     -11.129   9.167  71.798  1.00  0.00    -0.437 A  
BRANCH  17  20
HETATM   20  S   UNL     1     -10.486   5.440  73.282  1.00  0.00    -0.249 S  
HETATM   21  O   UNL     1     -11.484   4.398  73.385  1.00  0.00    -0.300 OA 
HETATM   22  O   UNL     1      -9.844   5.956  74.476  1.00  0.00    -0.204 OA 
BRANCH  20  23
HETATM   23  N   UNL     1      -9.232   4.929  72.315  1.00  0.00    -0.130 N  
HETATM   24  H   UNL     1      -9.035   3.928  72.283  1.00  0.00     0.000 HD 
BRANCH  23  25
HETATM   25  C   UNL     1      -8.438   5.764  71.551  1.00  0.00    -0.128 C  
HETATM   26  O   UNL     1      -7.393   6.249  71.955  1.00  0.00    -0.089 OA 
BRANCH  25  27
HETATM   27  N   UNL     1      -8.926   5.977  70.292  1.00  0.00    -0.146 N  
HETATM   28  H   UNL     1      -9.892   5.731  70.078  1.00  0.00     0.000 HD 
BRANCH  27  29
HETATM   29  C   UNL     1      -8.079   6.553  69.252  1.00  0.00    -0.112 C  
HETATM   30  C   UNL     1      -7.978   5.626  68.035  1.00  0.00    -0.097 C  
HETATM   31  C   UNL     1      -9.241   5.623  67.176  1.00  0.00    -0.114 C  
HETATM   32  C   UNL     1      -9.656   7.036  66.778  1.00  0.00    -0.221 C  
HETATM   33  C   UNL     1      -9.814   7.940  67.995  1.00  0.00    -0.195 C  
HETATM   34  C   UNL     1      -8.548   7.958  68.850  1.00  0.00    -0.132 C  
ENDBRANCH  27  29
ENDBRANCH  25  27
ENDBRANCH  23  25
ENDBRANCH  20  23
ENDBRANCH  17  20
ENDBRANCH  13  14
ENDBRANCH  12  13
ENDBRANCH  10  12
ENDBRANCH   5   8
TORSDOF 9
ENDMDL
MODEL      252
REMARK 921   NORMALIZED FREE ENERGY PREDICTED BY IDOCK:   -4.17 KCAL/MOL
REMARK 922        TOTAL FREE ENERGY PREDICTED BY IDOCK:   -7.87 KCAL/MOL
REMARK 923 INTER-LIGAND FREE ENERGY PREDICTED BY IDOCK:   -6.98 KCAL/MOL
REMARK 924 INTRA-LIGAND FREE ENERGY PREDICTED BY IDOCK:   -0.88 KCAL/MOL
REMARK 927      BINDING AFFINITY PREDICTED BY RF-SCORE:    0.00 PKD
ROOT
HETATM    1  C   UNL     1     -10.853  20.400  65.781  1.00  0.00     0.178 C  
HETATM    2  C   UNL     1      -9.647  19.701  66.325  1.00  0.00    -0.405 A  
HETATM    3  N   UNL     1      -8.437  20.055  65.826  1.00  0.00    -0.234 NA 
HETATM    4  C   UNL     1      -7.371  19.374  66.319  1.00  0.00    -0.266 A  
HETATM    5  C   UNL     1      -7.503  18.382  67.278  1.00  0.00    -0.217 A  
HETATM    6  C   UNL     1      -9.769  18.711  67.301  1.00  0.00    -0.302 A  
HETATM    7  N   UNL     1      -8.710  18.025  67.805  1.00  0.00    -0.248 NA 
ENDROOT
BRANCH   5   8
HETATM    8  C   UNL     1      -6.294  17.642  67.733  1.00  0.00    -0.169 C  
HETATM    9  O   UNL     1      -5.200  18.192  67.775  1.00  0.00    -0.145 OA 
HETATM   10  N   UNL     1      -6.496  16.317  68.072  1.00  0.00    -0.124 N  
HETATM   11  H   UNL     1      -7.446  15.947  68.092  1.00  0.00     0.000 HD 
BRANCH  10  12
HETATM   12  C   UNL     1      -5.388  15.442  68.401  1.00  0.00    -0.104 C  
BRANCH  12  13
HETATM   13  C   UNL     1      -5.841  14.085  68.965  1.00  0.00    -0.089 C  
BRANCH  13  14
HETATM   14  C   UNL     1      -7.237  13.659  68.548  1.00  0.00    -0.109 A  
HETATM   15  C   UNL     1      -8.371  14.409  68.897  1.00  0.00    -0.080 A  
HETATM   16  C   UNL     1      -9.653  13.982  68.547  1.00  0.00    -0.201 A  
HETATM   17  C   UNL     1      -9.819  12.827  67.786  1.00  0.00    -0.220 A  
HETATM   18  C   UNL     1      -8.701  12.089  67.383  1.00  0.00    -0.170 A  
HETATM   19  C   UNL     1      -7.420  12.510  67.758  1.00  0.00    -0.130 A  
BRANCH  17  20
HETATM   20  S   UNL     1     -11.462  12.229  67.465  1.00  0.00    -0.357 S  
HETATM   21  O   UNL     1     -11.382  11.068  66.606  1.00  0.00    -0.278 OA 
HETATM   22  O   UNL     1     -12.266  13.371  67.076  1.00  0.00    -0.353 OA 
BRANCH  20  23
HETATM   23  N   UNL     1     -12.049  11.787  68.959  1.00  0.00    -0.276 N  
HETATM   24  H   UNL     1     -12.818  12.333  69.347  1.00  0.00     0.000 HD 
BRANCH  23  25
HETATM   25  C   UNL     1     -11.566  10.732  69.712  1.00  0.00    -0.317 C  
HETATM   26  O   UNL     1     -11.300  10.823  70.899  1.00  0.00    -0.186 OA 
BRANCH  25  27
HETATM   27  N   UNL     1     -11.436   9.572  69.001  1.00  0.00    -0.417 N  
HETATM   28  H   UNL     1     -12.205   9.253  68.412  1.00  0.00     0.000 HD 
BRANCH  27  29
HETATM   29  C   UNL     1     -10.208   8.785  69.075  1.00  0.00    -0.207 C  
HETATM   30  C   UNL     1     -10.418   7.495  69.875  1.00  0.00    -0.232 C  
HETATM   31  C   UNL     1     -11.196   6.431  69.105  1.00  0.00    -0.421 C  
HETATM   32  C   UNL     1     -10.576   6.155  67.739  1.00  0.00    -0.338 C  
HETATM   33  C   UNL     1     -10.425   7.433  66.922  1.00  0.00    -0.379 C  
HETATM   34  C   UNL     1      -9.633   8.496  67.682  1.00  0.00    -0.187 C  
ENDBRANCH  27  29
ENDBRANCH  25  27
ENDBRANCH  23  25
ENDBRANCH  20  23
ENDBRANCH  17  20
ENDBRANCH  13  14
ENDBRANCH  12  13
ENDBRANCH  10  12
ENDBRANCH   5   8
TORSDOF 9
ENDMDL
MODEL      253
REMARK 921   NORMALIZED FREE ENERGY PREDICTED BY IDOCK:   -4.17 KCAL/MOL
REMARK 922        TOTAL FREE ENERGY PREDICTED BY IDOCK:   -7.86 KCAL/MOL
REMARK 923 INTER-LIGAND FREE ENERGY PREDICTED BY IDOCK:   -7.44 KCAL/MOL
REMARK 924 INTRA-LIGAND FREE ENERGY PREDICTED BY IDOCK:   -0.42 KCAL/MOL
REMARK 927      BINDING AFFINITY PREDICTED BY RF-SCORE:    0.00 PKD
ROOT
HETATM    1  C   UNL     1      -6.863   1.845  69.700  1.00  0.00    -0.033 C  
HETATM    2  C   UNL     1      -6.780   2.714  68.485  1.00  0.00    -0.036 A  
HETATM    3  N   UNL     1      -6.443   4.016  68.666  1.00  0.00    -0.036 NA 
HETATM    4  C   UNL     1      -6.411   4.779  67.544  1.00  0.00    -0.045 A  
HETATM    5  C   UNL     1      -6.698   4.267  66.288  1.00  0.00    -0.053 A  
HETATM    6  C   UNL     1      -7.052   2.204  67.215  1.00  0.00    -0.047 A  
HETATM    7  N   UNL     1      -7.021   2.957  66.086  1.00  0.00    -0.055 NA 
ENDROOT
BRANCH   5   8
HETATM    8  C   UNL     1      -6.695   5.178  65.110  1.00  0.00    -0.048 C  
HETATM    9  O   UNL     1      -6.612   4.732  63.972  1.00  0.00    -0.040 OA 
HETATM   10  N   UNL     1      -6.769   6.528  65.398  1.00  0.00    -0.046 N  
HETATM   11  H   UNL     1      -6.919   6.824  66.362  1.00  0.00     0.000 HD 
BRANCH  10  12
HETATM   12  C   UNL     1      -6.640   7.532  64.361  1.00  0.00    -0.048 C  
BRANCH  12  13
HETATM   13  C   UNL     1      -7.996   8.028  63.832  1.00  0.00    -0.128 C  
BRANCH  13  14
HETATM   14  C   UNL     1      -8.731   8.975  64.762  1.00  0.00    -0.187 A  
HETATM   15  C   UNL     1      -8.822   8.730  66.141  1.00  0.00    -0.201 A  
HETATM   16  C   UNL     1      -9.540   9.585  66.979  1.00  0.00    -0.214 A  
HETATM   17  C   UNL     1     -10.129  10.736  66.460  1.00  0.00    -0.228 A  
HETATM   18  C   UNL     1     -10.010  11.029  65.098  1.00  0.00    -0.333 A  
HETATM   19  C   UNL     1      -9.309  10.155  64.259  1.00  0.00    -0.349 A  
BRANCH  17  20
HETATM   20  S   UNL     1     -11.149  11.738  67.516  1.00  0.00    -0.293 S  
HETATM   21  O   UNL     1     -12.247  12.274  66.741  1.00  0.00    -0.558 OA 
HETATM   22  O   UNL     1     -10.268  12.630  68.245  1.00  0.00    -0.229 OA 
BRANCH  20  23
HETATM   23  N   UNL     1     -11.731  10.684  68.665  1.00  0.00    -0.488 N  
HETATM   24  H   UNL     1     -11.683   9.686  68.460  1.00  0.00     0.000 HD 
BRANCH  23  25
HETATM   25  C   UNL     1     -12.276  11.066  69.878  1.00  0.00    -0.336 C  
HETATM   26  O   UNL     1     -12.030  12.132  70.416  1.00  0.00    -0.343 OA 
BRANCH  25  27
HETATM   27  N   UNL     1     -13.133  10.140  70.404  1.00  0.00    -0.583 N  
HETATM   28  H   UNL     1     -13.922   9.811  69.848  1.00  0.00     0.000 HD 
BRANCH  27  29
HETATM   29  C   UNL     1     -12.931   9.617  71.751  1.00  0.00    -0.420 C  
HETATM   30  C   UNL     1     -14.039   8.634  72.143  1.00  0.00    -0.511 C  
HETATM   31  C   UNL     1     -13.901   7.273  71.463  1.00  0.00    -0.463 C  
HETATM   32  C   UNL     1     -12.514   6.675  71.674  1.00  0.00    -0.353 C  
HETATM   33  C   UNL     1     -11.415   7.632  71.227  1.00  0.00    -0.293 C  
HETATM   34  C   UNL     1     -11.539   8.991  71.916  1.00  0.00    -0.441 C  
ENDBRANCH  27  29
ENDBRANCH  25  27
ENDBRANCH  23  25
ENDBRANCH  20  23
ENDBRANCH  17  20
ENDBRANCH  13  14
ENDBRANCH  12  13
ENDBRANCH  10  12
ENDBRANCH   5   8
TORSDOF 9
ENDMDL
MODEL      254
REMARK 921   NORMALIZED FREE ENERGY PREDICTED BY IDOCK:   -4.17 KCAL/MOL
REMARK 922        TOTAL FREE ENERGY PREDICTED BY IDOCK:   -7.85 KCAL/MOL
REMARK 923 INTER-LIGAND FREE ENERGY PREDICTED BY IDOCK:   -6.38 KCAL/MOL
REMARK 924 INTRA-LIGAND FREE ENERGY PREDICTED BY IDOCK:   -1.47 KCAL/MOL
REMARK 927      BINDING AFFINITY PREDICTED BY RF-SCORE:    0.00 PKD
ROOT
HETATM    1  C   UNL     1     -11.071  16.290  69.517  1.00  0.00    -0.330 C  
HETATM    2  C   UNL     1     -10.804  15.207  68.520  1.00  0.00    -0.247 A  
HETATM    3  N   UNL     1      -9.707  14.433  68.711  1.00  0.00    -0.214 NA 
HETATM    4  C   UNL     1      -9.480  13.485  67.767  1.00  0.00    -0.216 A  
HETATM    5  C   UNL     1     -10.316  13.309  66.675  1.00  0.00    -0.274 A  
HETATM    6  C   UNL     1     -11.648  15.013  67.425  1.00  0.00    -0.291 A  
HETATM    7  N   UNL     1     -11.433  14.066  66.475  1.00  0.00    -0.342 NA 
ENDROOT
BRANCH   5   8
HETATM    8  C   UNL     1      -9.972  12.283  65.652  1.00  0.00    -0.251 C  
HETATM    9  O   UNL     1     -10.632  12.177  64.623  1.00  0.00    -0.274 OA 
HETATM   10  N   UNL     1      -8.897  11.471  65.957  1.00  0.00    -0.317 N  
HETATM   11  H   UNL     1      -8.345  11.668  66.791  1.00  0.00     0.000 HD 
BRANCH  10  12
HETATM   12  C   UNL     1      -8.537  10.345  65.118  1.00  0.00    -0.180 C  
BRANCH  12  13
HETATM   13  C   UNL     1      -9.502   9.156  65.258  1.00  0.00    -0.169 C  
BRANCH  13  14
HETATM   14  C   UNL     1      -8.962   7.993  66.070  1.00  0.00    -0.205 A  
HETATM   15  C   UNL     1      -9.742   6.859  66.340  1.00  0.00    -0.127 A  
HETATM   16  C   UNL     1      -9.249   5.816  67.127  1.00  0.00    -0.115 A  
HETATM   17  C   UNL     1      -7.942   5.863  67.607  1.00  0.00    -0.102 A  
HETATM   18  C   UNL     1      -7.128   6.961  67.310  1.00  0.00    -0.084 A  
HETATM   19  C   UNL     1      -7.636   8.014  66.541  1.00  0.00    -0.092 A  
BRANCH  17  20
HETATM   20  S   UNL     1      -7.379   4.593  68.715  1.00  0.00    -0.061 S  
HETATM   21  O   UNL     1      -6.007   4.264  68.398  1.00  0.00    -0.025 OA 
HETATM   22  O   UNL     1      -8.393   3.556  68.731  1.00  0.00    -0.070 OA 
BRANCH  20  23
HETATM   23  N   UNL     1      -7.459   5.286  70.227  1.00  0.00    -0.069 N  
HETATM   24  H   UNL     1      -6.817   6.051  70.432  1.00  0.00     0.000 HD 
BRANCH  23  25
HETATM   25  C   UNL     1      -8.335   4.897  71.224  1.00  0.00    -0.115 C  
HETATM   26  O   UNL     1      -7.993   4.257  72.205  1.00  0.00    -0.086 OA 
BRANCH  25  27
HETATM   27  N   UNL     1      -9.619   5.317  71.014  1.00  0.00    -0.164 N  
HETATM   28  H   UNL     1     -10.393   4.671  71.168  1.00  0.00     0.000 HD 
BRANCH  27  29
HETATM   29  C   UNL     1      -9.894   6.680  70.571  1.00  0.00    -0.176 C  
HETATM   30  C   UNL     1     -11.333   6.824  70.062  1.00  0.00    -0.396 C  
HETATM   31  C   UNL     1     -12.367   6.851  71.186  1.00  0.00    -0.419 C  
HETATM   32  C   UNL     1     -12.031   7.903  72.237  1.00  0.00    -0.387 C  
HETATM   33  C   UNL     1     -10.620   7.720  72.785  1.00  0.00    -0.401 C  
HETATM   34  C   UNL     1      -9.579   7.709  71.666  1.00  0.00    -0.182 C  
ENDBRANCH  27  29
ENDBRANCH  25  27
ENDBRANCH  23  25
ENDBRANCH  20  23
ENDBRANCH  17  20
ENDBRANCH  13  14
ENDBRANCH  12  13
ENDBRANCH  10  12
ENDBRANCH   5   8
TORSDOF 9
ENDMDL
MODEL      255
REMARK 921   NORMALIZED FREE ENERGY PREDICTED BY IDOCK:   -4.16 KCAL/MOL
REMARK 922        TOTAL FREE ENERGY PREDICTED BY IDOCK:   -7.85 KCAL/MOL
REMARK 923 INTER-LIGAND FREE ENERGY PREDICTED BY IDOCK:   -6.38 KCAL/MOL
REMARK 924 INTRA-LIGAND FREE ENERGY PREDICTED BY IDOCK:   -1.47 KCAL/MOL
REMARK 927      BINDING AFFINITY PREDICTED BY RF-SCORE:    0.00 PKD
ROOT
HETATM    1  C   UNL     1     -10.542   7.540  73.258  1.00  0.00    -0.438 C  
HETATM    2  C   UNL     1     -10.263   7.073  71.865  1.00  0.00    -0.187 A  
HETATM    3  N   UNL     1     -11.003   6.042  71.388  1.00  0.00    -0.270 NA 
HETATM    4  C   UNL     1     -10.697   5.624  70.133  1.00  0.00    -0.305 A  
HETATM    5  C   UNL     1      -9.695   6.215  69.378  1.00  0.00    -0.145 A  
HETATM    6  C   UNL     1      -9.267   7.671  71.092  1.00  0.00    -0.147 A  
HETATM    7  N   UNL     1      -8.952   7.264  69.835  1.00  0.00    -0.142 NA 
ENDROOT
BRANCH   5   8
HETATM    8  C   UNL     1      -9.380   5.668  68.029  1.00  0.00    -0.108 C  
HETATM    9  O   UNL     1      -8.752   4.621  67.907  1.00  0.00    -0.102 OA 
HETATM   10  N   UNL     1      -9.819   6.424  66.960  1.00  0.00    -0.146 N  
HETATM   11  H   UNL     1     -10.406   7.240  67.134  1.00  0.00     0.000 HD 
BRANCH  10  12
HETATM   12  C   UNL     1      -9.466   6.084  65.595  1.00  0.00     0.194 C  
BRANCH  12  13
HETATM   13  C   UNL     1      -8.264   6.884  65.068  1.00  0.00    -0.096 C  
BRANCH  13  14
HETATM   14  C   UNL     1      -8.077   8.245  65.713  1.00  0.00    -0.109 A  
HETATM   15  C   UNL     1      -8.962   9.305  65.466  1.00  0.00    -0.251 A  
HETATM   16  C   UNL     1      -8.753  10.565  66.029  1.00  0.00    -0.174 A  
HETATM   17  C   UNL     1      -7.686  10.770  66.902  1.00  0.00    -0.130 A  
HETATM   18  C   UNL     1      -6.818   9.715  67.203  1.00  0.00    -0.084 A  
HETATM   19  C   UNL     1      -7.020   8.461  66.616  1.00  0.00    -0.072 A  
BRANCH  17  20
HETATM   20  S   UNL     1      -7.359  12.411  67.501  1.00  0.00    -0.154 S  
HETATM   21  O   UNL     1      -6.121  12.886  66.923  1.00  0.00    -0.165 OA 
HETATM   22  O   UNL     1      -7.528  12.384  68.942  1.00  0.00    -0.089 OA 
BRANCH  20  23
HETATM   23  N   UNL     1      -8.632  13.326  66.942  1.00  0.00    -0.391 N  
HETATM   24  H   UNL     1      -8.800  13.340  65.936  1.00  0.00     0.000 HD 
BRANCH  23  25
HETATM   25  C   UNL     1      -9.478  14.069  67.746  1.00  0.00    -0.209 C  
HETATM   26  O   UNL     1      -9.646  15.270  67.611  1.00  0.00    -0.205 OA 
BRANCH  25  27
HETATM   27  N   UNL     1     -10.123  13.323  68.691  1.00  0.00    -0.372 N  
HETATM   28  H   UNL     1      -9.583  12.848  69.414  1.00  0.00     0.000 HD 
BRANCH  27  29
HETATM   29  C   UNL     1     -11.578  13.199  68.678  1.00  0.00    -0.321 C  
HETATM   30  C   UNL     1     -12.021  11.775  69.032  1.00  0.00    -0.341 C  
HETATM   31  C   UNL     1     -11.886  11.456  70.519  1.00  0.00    -0.394 C  
HETATM   32  C   UNL     1     -12.586  12.497  71.386  1.00  0.00    -0.297 C  
HETATM   33  C   UNL     1     -12.098  13.908  71.073  1.00  0.00    -0.357 C  
HETATM   34  C   UNL     1     -12.246  14.238  69.589  1.00  0.00    -0.371 C  
ENDBRANCH  27  29
ENDBRANCH  25  27
ENDBRANCH  23  25
ENDBRANCH  20  23
ENDBRANCH  17  20
ENDBRANCH  13  14
ENDBRANCH  12  13
ENDBRANCH  10  12
ENDBRANCH   5   8
TORSDOF 9
ENDMDL
MODEL      256
REMARK 921   NORMALIZED FREE ENERGY PREDICTED BY IDOCK:   -4.16 KCAL/MOL
REMARK 922        TOTAL FREE ENERGY PREDICTED BY IDOCK:   -7.85 KCAL/MOL
REMARK 923 INTER-LIGAND FREE ENERGY PREDICTED BY IDOCK:   -6.37 KCAL/MOL
REMARK 924 INTRA-LIGAND FREE ENERGY PREDICTED BY IDOCK:   -1.47 KCAL/MOL
REMARK 927      BINDING AFFINITY PREDICTED BY RF-SCORE:    0.00 PKD
ROOT
HETATM    1  C   UNL     1     -10.390  18.483  67.494  1.00  0.00    -0.440 C  
HETATM    2  C   UNL     1     -10.733  17.123  68.012  1.00  0.00    -0.372 A  
HETATM    3  N   UNL     1     -10.931  16.135  67.104  1.00  0.00    -0.213 NA 
HETATM    4  C   UNL     1     -11.274  14.925  67.611  1.00  0.00    -0.323 A  
HETATM    5  C   UNL     1     -11.411  14.702  68.973  1.00  0.00    -0.291 A  
HETATM    6  C   UNL     1     -10.859  16.885  69.381  1.00  0.00    -0.186 A  
HETATM    7  N   UNL     1     -11.199  15.678  69.902  1.00  0.00    -0.300 NA 
ENDROOT
BRANCH   5   8
HETATM    8  C   UNL     1     -11.843  13.360  69.453  1.00  0.00    -0.335 C  
HETATM    9  O   UNL     1     -12.129  13.177  70.631  1.00  0.00    -0.348 OA 
HETATM   10  N   UNL     1     -11.873  12.364  68.495  1.00  0.00    -0.323 N  
HETATM   11  H   UNL     1     -11.702  12.605  67.520  1.00  0.00     0.000 HD 
BRANCH  10  12
HETATM   12  C   UNL     1     -12.143  10.983  68.847  1.00  0.00    -0.169 C  
BRANCH  12  13
HETATM   13  C   UNL     1     -10.900  10.242  69.367  1.00  0.00    -0.282 C  
BRANCH  13  14
HETATM   14  C   UNL     1     -10.660   8.884  68.730  1.00  0.00    -0.185 A  
HETATM   15  C   UNL     1     -10.608   7.711  69.497  1.00  0.00    -0.227 A  
HETATM   16  C   UNL     1     -10.341   6.475  68.906  1.00  0.00    -0.225 A  
HETATM   17  C   UNL     1     -10.182   6.383  67.525  1.00  0.00    -0.170 A  
HETATM   18  C   UNL     1     -10.278   7.532  66.733  1.00  0.00    -0.324 A  
HETATM   19  C   UNL     1     -10.522   8.772  67.335  1.00  0.00    -0.349 A  
BRANCH  17  20
HETATM   20  S   UNL     1      -9.710   4.826  66.808  1.00  0.00    -0.210 S  
HETATM   21  O   UNL     1     -10.561   4.554  65.670  1.00  0.00    -0.288 OA 
HETATM   22  O   UNL     1      -9.611   3.867  67.891  1.00  0.00    -0.178 OA 
BRANCH  20  23
HETATM   23  N   UNL     1      -8.142   5.055  66.298  1.00  0.00    -0.107 N  
HETATM   24  H   UNL     1      -7.978   5.152  65.296  1.00  0.00     0.000 HD 
BRANCH  23  25
HETATM   25  C   UNL     1      -7.045   5.122  67.138  1.00  0.00    -0.069 C  
HETATM   26  O   UNL     1      -6.329   4.164  67.383  1.00  0.00    -0.035 OA 
BRANCH  25  27
HETATM   27  N   UNL     1      -6.829   6.370  67.651  1.00  0.00    -0.073 N  
HETATM   28  H   UNL     1      -7.421   6.715  68.406  1.00  0.00     0.000 HD 
BRANCH  27  29
HETATM   29  C   UNL     1      -5.759   7.215  67.129  1.00  0.00    -0.025 C  
HETATM   30  C   UNL     1      -5.841   7.345  65.604  1.00  0.00    -0.037 C  
HETATM   31  C   UNL     1      -6.963   8.270  65.140  1.00  0.00    -0.074 C  
HETATM   32  C   UNL     1      -6.889   9.633  65.819  1.00  0.00    -0.093 C  
HETATM   33  C   UNL     1      -6.868   9.503  67.338  1.00  0.00    -0.083 C  
HETATM   34  C   UNL     1      -5.737   8.591  67.810  1.00  0.00    -0.039 C  
ENDBRANCH  27  29
ENDBRANCH  25  27
ENDBRANCH  23  25
ENDBRANCH  20  23
ENDBRANCH  17  20
ENDBRANCH  13  14
ENDBRANCH  12  13
ENDBRANCH  10  12
ENDBRANCH   5   8
TORSDOF 9
ENDMDL
MODEL      257
REMARK 921   NORMALIZED FREE ENERGY PREDICTED BY IDOCK:   -4.15 KCAL/MOL
REMARK 922        TOTAL FREE ENERGY PREDICTED BY IDOCK:   -7.82 KCAL/MOL
REMARK 923 INTER-LIGAND FREE ENERGY PREDICTED BY IDOCK:   -6.18 KCAL/MOL
REMARK 924 INTRA-LIGAND FREE ENERGY PREDICTED BY IDOCK:   -1.64 KCAL/MOL
REMARK 927      BINDING AFFINITY PREDICTED BY RF-SCORE:    0.00 PKD
ROOT
HETATM    1  C   UNL     1     -10.369  18.297  66.125  1.00  0.00    -0.414 C  
HETATM    2  C   UNL     1     -10.454  16.853  66.505  1.00  0.00    -0.253 A  
HETATM    3  N   UNL     1     -10.583  16.556  67.823  1.00  0.00    -0.325 NA 
HETATM    4  C   UNL     1     -10.622  15.235  68.131  1.00  0.00    -0.254 A  
HETATM    5  C   UNL     1     -10.541  14.245  67.164  1.00  0.00    -0.279 A  
HETATM    6  C   UNL     1     -10.389  15.849  65.538  1.00  0.00    -0.400 A  
HETATM    7  N   UNL     1     -10.429  14.524  65.833  1.00  0.00    -0.299 NA 
ENDROOT
BRANCH   5   8
HETATM    8  C   UNL     1     -10.537  12.816  67.582  1.00  0.00    -0.219 C  
HETATM    9  O   UNL     1     -11.576  12.256  67.915  1.00  0.00    -0.312 OA 
HETATM   10  N   UNL     1      -9.301  12.197  67.587  1.00  0.00    -0.182 N  
HETATM   11  H   UNL     1      -8.492  12.698  67.220  1.00  0.00     0.000 HD 
BRANCH  10  12
HETATM   12  C   UNL     1      -9.129  10.853  68.100  1.00  0.00    -0.155 C  
BRANCH  12  13
HETATM   13  C   UNL     1      -7.685  10.558  68.539  1.00  0.00    -0.104 C  
BRANCH  13  14
HETATM   14  C   UNL     1      -7.461   9.157  69.082  1.00  0.00    -0.072 A  
HETATM   15  C   UNL     1      -7.336   8.049  68.230  1.00  0.00    -0.095 A  
HETATM   16  C   UNL     1      -7.177   6.761  68.743  1.00  0.00    -0.092 A  
HETATM   17  C   UNL     1      -7.078   6.566  70.119  1.00  0.00    -0.074 A  
HETATM   18  C   UNL     1      -7.150   7.661  70.986  1.00  0.00    -0.054 A  
HETATM   19  C   UNL     1      -7.334   8.948  70.467  1.00  0.00    -0.078 A  
BRANCH  17  20
HETATM   20  S   UNL     1      -7.011   4.908  70.758  1.00  0.00    -0.042 S  
HETATM   21  O   UNL     1      -6.794   4.962  72.187  1.00  0.00    -0.052 OA 
HETATM   22  O   UNL     1      -6.104   4.158  69.910  1.00  0.00    -0.021 OA 
BRANCH  20  23
HETATM   23  N   UNL     1      -8.515   4.272  70.437  1.00  0.00    -0.072 N  
HETATM   24  H   UNL     1      -8.651   3.803  69.542  1.00  0.00     0.000 HD 
BRANCH  23  25
HETATM   25  C   UNL     1      -9.594   4.335  71.300  1.00  0.00    -0.172 C  
HETATM   26  O   UNL     1     -10.075   3.354  71.844  1.00  0.00    -0.160 OA 
BRANCH  25  27
HETATM   27  N   UNL     1     -10.056   5.606  71.500  1.00  0.00    -0.194 N  
HETATM   28  H   UNL     1      -9.485   6.274  72.016  1.00  0.00     0.000 HD 
BRANCH  27  29
HETATM   29  C   UNL     1     -11.359   6.015  70.984  1.00  0.00    -0.229 C  
HETATM   30  C   UNL     1     -12.255   6.566  72.099  1.00  0.00    -0.277 C  
HETATM   31  C   UNL     1     -11.857   7.969  72.551  1.00  0.00    -0.419 C  
HETATM   32  C   UNL     1     -11.761   8.935  71.375  1.00  0.00    -0.385 C  
HETATM   33  C   UNL     1     -10.821   8.412  70.294  1.00  0.00    -0.244 C  
HETATM   34  C   UNL     1     -11.223   7.015  69.827  1.00  0.00    -0.257 C  
ENDBRANCH  27  29
ENDBRANCH  25  27
ENDBRANCH  23  25
ENDBRANCH  20  23
ENDBRANCH  17  20
ENDBRANCH  13  14
ENDBRANCH  12  13
ENDBRANCH  10  12
ENDBRANCH   5   8
TORSDOF 9
ENDMDL
MODEL      258
REMARK 921   NORMALIZED FREE ENERGY PREDICTED BY IDOCK:   -4.14 KCAL/MOL
REMARK 922        TOTAL FREE ENERGY PREDICTED BY IDOCK:   -7.81 KCAL/MOL
REMARK 923 INTER-LIGAND FREE ENERGY PREDICTED BY IDOCK:   -6.67 KCAL/MOL
REMARK 924 INTRA-LIGAND FREE ENERGY PREDICTED BY IDOCK:   -1.15 KCAL/MOL
REMARK 927      BINDING AFFINITY PREDICTED BY RF-SCORE:    0.00 PKD
ROOT
HETATM    1  C   UNL     1     -10.529  19.530  67.950  1.00  0.00    -0.552 C  
HETATM    2  C   UNL     1      -9.860  18.197  67.836  1.00  0.00    -0.313 A  
HETATM    3  N   UNL     1      -8.548  18.180  67.491  1.00  0.00    -0.247 NA 
HETATM    4  C   UNL     1      -7.986  16.952  67.364  1.00  0.00    -0.170 A  
HETATM    5  C   UNL     1      -8.701  15.782  67.577  1.00  0.00    -0.176 A  
HETATM    6  C   UNL     1     -10.567  17.016  68.063  1.00  0.00    -0.373 A  
HETATM    7  N   UNL     1     -10.015  15.781  67.942  1.00  0.00    -0.225 NA 
ENDROOT
BRANCH   5   8
HETATM    8  C   UNL     1      -8.030  14.469  67.367  1.00  0.00    -0.200 C  
HETATM    9  O   UNL     1      -6.832  14.410  67.115  1.00  0.00    -0.190 OA 
HETATM   10  N   UNL     1      -8.848  13.359  67.455  1.00  0.00    -0.203 N  
HETATM   11  H   UNL     1      -9.818  13.477  67.748  1.00  0.00     0.000 HD 
BRANCH  10  12
HETATM   12  C   UNL     1      -8.360  12.031  67.139  1.00  0.00    -0.181 C  
BRANCH  12  13
HETATM   13  C   UNL     1      -7.805  11.288  68.365  1.00  0.00    -0.136 C  
BRANCH  13  14
HETATM   14  C   UNL     1      -8.805  10.384  69.064  1.00  0.00    -0.176 A  
HETATM   15  C   UNL     1      -8.509   9.768  70.289  1.00  0.00    -0.163 A  
HETATM   16  C   UNL     1      -9.419   8.902  70.899  1.00  0.00    -0.295 A  
HETATM   17  C   UNL     1     -10.669   8.686  70.321  1.00  0.00    -0.227 A  
HETATM   18  C   UNL     1     -11.006   9.327  69.125  1.00  0.00    -0.083 A  
HETATM   19  C   UNL     1     -10.079  10.175  68.507  1.00  0.00    -0.186 A  
BRANCH  17  20
HETATM   20  S   UNL     1     -11.758   7.479  71.040  1.00  0.00    -0.285 S  
HETATM   21  O   UNL     1     -12.033   6.449  70.062  1.00  0.00    -0.333 OA 
HETATM   22  O   UNL     1     -12.850   8.203  71.663  1.00  0.00    -0.315 OA 
BRANCH  20  23
HETATM   23  N   UNL     1     -10.896   6.836  72.311  1.00  0.00    -0.224 N  
HETATM   24  H   UNL     1     -10.885   7.357  73.188  1.00  0.00     0.000 HD 
BRANCH  23  25
HETATM   25  C   UNL     1     -10.194   5.646  72.261  1.00  0.00    -0.199 C  
HETATM   26  O   UNL     1      -9.572   5.195  73.209  1.00  0.00    -0.140 OA 
BRANCH  25  27
HETATM   27  N   UNL     1     -10.283   5.013  71.053  1.00  0.00    -0.223 N  
HETATM   28  H   UNL     1     -11.176   4.987  70.562  1.00  0.00     0.000 HD 
BRANCH  27  29
HETATM   29  C   UNL     1      -9.113   4.374  70.459  1.00  0.00    -0.113 C  
HETATM   30  C   UNL     1      -9.476   3.629  69.169  1.00  0.00    -0.235 C  
HETATM   31  C   UNL     1      -9.719   4.563  67.985  1.00  0.00    -0.192 C  
HETATM   32  C   UNL     1      -8.552   5.522  67.774  1.00  0.00    -0.108 C  
HETATM   33  C   UNL     1      -8.232   6.305  69.043  1.00  0.00    -0.114 C  
HETATM   34  C   UNL     1      -7.973   5.375  70.227  1.00  0.00    -0.092 C  
ENDBRANCH  27  29
ENDBRANCH  25  27
ENDBRANCH  23  25
ENDBRANCH  20  23
ENDBRANCH  17  20
ENDBRANCH  13  14
ENDBRANCH  12  13
ENDBRANCH  10  12
ENDBRANCH   5   8
TORSDOF 9
ENDMDL
MODEL      259
REMARK 921   NORMALIZED FREE ENERGY PREDICTED BY IDOCK:   -4.12 KCAL/MOL
REMARK 922        TOTAL FREE ENERGY PREDICTED BY IDOCK:   -7.79 KCAL/MOL
REMARK 923 INTER-LIGAND FREE ENERGY PREDICTED BY IDOCK:   -6.44 KCAL/MOL
REMARK 924 INTRA-LIGAND FREE ENERGY PREDICTED BY IDOCK:   -1.35 KCAL/MOL
REMARK 927      BINDING AFFINITY PREDICTED BY RF-SCORE:    0.00 PKD
ROOT
HETATM    1  C   UNL     1     -10.312  11.552  64.429  1.00  0.00    -0.364 C  
HETATM    2  C   UNL     1     -10.499  11.183  65.867  1.00  0.00    -0.253 A  
HETATM    3  N   UNL     1      -9.572  10.371  66.434  1.00  0.00    -0.172 NA 
HETATM    4  C   UNL     1      -9.796  10.032  67.729  1.00  0.00    -0.157 A  
HETATM    5  C   UNL     1     -10.897  10.488  68.436  1.00  0.00    -0.240 A  
HETATM    6  C   UNL     1     -11.597  11.649  66.592  1.00  0.00    -0.115 A  
HETATM    7  N   UNL     1     -11.830  11.320  67.888  1.00  0.00    -0.634 NA 
ENDROOT
BRANCH   5   8
HETATM    8  C   UNL     1     -11.104  10.031  69.838  1.00  0.00    -0.288 C  
HETATM    9  O   UNL     1     -10.149   9.823  70.578  1.00  0.00    -0.270 OA 
HETATM   10  N   UNL     1     -12.419   9.843  70.218  1.00  0.00    -0.509 N  
HETATM   11  H   UNL     1     -13.166  10.113  69.578  1.00  0.00     0.000 HD 
BRANCH  10  12
HETATM   12  C   UNL     1     -12.762   9.272  71.506  1.00  0.00    -0.350 C  
BRANCH  12  13
HETATM   13  C   UNL     1     -13.287   7.830  71.403  1.00  0.00    -0.309 C  
BRANCH  13  14
HETATM   14  C   UNL     1     -12.209   6.761  71.418  1.00  0.00    -0.413 A  
HETATM   15  C   UNL     1     -11.527   6.386  70.251  1.00  0.00    -0.468 A  
HETATM   16  C   UNL     1     -10.570   5.370  70.270  1.00  0.00    -0.329 A  
HETATM   17  C   UNL     1     -10.235   4.752  71.472  1.00  0.00    -0.176 A  
HETATM   18  C   UNL     1     -10.865   5.141  72.658  1.00  0.00    -0.303 A  
HETATM   19  C   UNL     1     -11.840   6.145  72.628  1.00  0.00    -0.137 A  
BRANCH  17  20
HETATM   20  S   UNL     1      -9.115   3.371  71.454  1.00  0.00    -0.122 S  
HETATM   21  O   UNL     1      -9.450   2.507  70.343  1.00  0.00    -0.139 OA 
HETATM   22  O   UNL     1      -9.065   2.840  72.803  1.00  0.00    -0.084 OA 
BRANCH  20  23
HETATM   23  N   UNL     1      -7.614   4.048  71.210  1.00  0.00    -0.054 N  
HETATM   24  H   UNL     1      -7.481   4.619  70.374  1.00  0.00     0.000 HD 
BRANCH  23  25
HETATM   25  C   UNL     1      -6.534   3.892  72.060  1.00  0.00    -0.015 C  
HETATM   26  O   UNL     1      -5.953   2.831  72.217  1.00  0.00    -0.008 OA 
BRANCH  25  27
HETATM   27  N   UNL     1      -6.167   5.048  72.690  1.00  0.00    -0.029 N  
HETATM   28  H   UNL     1      -5.180   5.242  72.852  1.00  0.00     0.000 HD 
BRANCH  27  29
HETATM   29  C   UNL     1      -7.175   6.007  73.133  1.00  0.00    -0.085 C  
HETATM   30  C   UNL     1      -6.839   6.572  74.518  1.00  0.00    -0.092 C  
HETATM   31  C   UNL     1      -5.703   7.593  74.490  1.00  0.00    -0.074 C  
HETATM   32  C   UNL     1      -5.965   8.701  73.476  1.00  0.00    -0.117 C  
HETATM   33  C   UNL     1      -6.239   8.138  72.086  1.00  0.00    -0.054 C  
HETATM   34  C   UNL     1      -7.385   7.127  72.105  1.00  0.00    -0.080 C  
ENDBRANCH  27  29
ENDBRANCH  25  27
ENDBRANCH  23  25
ENDBRANCH  20  23
ENDBRANCH  17  20
ENDBRANCH  13  14
ENDBRANCH  12  13
ENDBRANCH  10  12
ENDBRANCH   5   8
TORSDOF 9
ENDMDL
MODEL      260
REMARK 921   NORMALIZED FREE ENERGY PREDICTED BY IDOCK:   -4.10 KCAL/MOL
REMARK 922        TOTAL FREE ENERGY PREDICTED BY IDOCK:   -7.76 KCAL/MOL
REMARK 923 INTER-LIGAND FREE ENERGY PREDICTED BY IDOCK:   -6.77 KCAL/MOL
REMARK 924 INTRA-LIGAND FREE ENERGY PREDICTED BY IDOCK:   -0.99 KCAL/MOL
REMARK 927      BINDING AFFINITY PREDICTED BY RF-SCORE:    0.00 PKD
ROOT
HETATM    1  C   UNL     1      -8.553  20.303  67.211  1.00  0.00    -0.425 C  
HETATM    2  C   UNL     1      -9.251  18.986  67.328  1.00  0.00    -0.286 A  
HETATM    3  N   UNL     1      -9.156  18.326  68.509  1.00  0.00    -0.313 NA 
HETATM    4  C   UNL     1      -9.773  17.119  68.564  1.00  0.00    -0.291 A  
HETATM    5  C   UNL     1     -10.465  16.589  67.486  1.00  0.00    -0.310 A  
HETATM    6  C   UNL     1      -9.962  18.451  66.253  1.00  0.00    -0.366 A  
HETATM    7  N   UNL     1     -10.586  17.245  66.296  1.00  0.00    -0.244 NA 
ENDROOT
BRANCH   5   8
HETATM    8  C   UNL     1     -11.072  15.234  67.604  1.00  0.00    -0.323 C  
HETATM    9  O   UNL     1     -11.740  14.929  68.585  1.00  0.00    -0.318 OA 
HETATM   10  N   UNL     1     -10.810  14.369  66.559  1.00  0.00    -0.305 N  
HETATM   11  H   UNL     1     -10.316  14.715  65.737  1.00  0.00     0.000 HD 
BRANCH  10  12
HETATM   12  C   UNL     1     -11.222  12.979  66.604  1.00  0.00    -0.307 C  
BRANCH  12  13
HETATM   13  C   UNL     1     -10.469  12.163  67.667  1.00  0.00    -0.225 C  
BRANCH  13  14
HETATM   14  C   UNL     1     -10.287  10.695  67.328  1.00  0.00    -0.265 A  
HETATM   15  C   UNL     1     -10.725   9.680  68.192  1.00  0.00    -0.266 A  
HETATM   16  C   UNL     1     -10.511   8.334  67.890  1.00  0.00    -0.259 A  
HETATM   17  C   UNL     1      -9.909   7.978  66.685  1.00  0.00    -0.252 A  
HETATM   18  C   UNL     1      -9.509   8.970  65.784  1.00  0.00    -0.305 A  
HETATM   19  C   UNL     1      -9.705  10.318  66.104  1.00  0.00    -0.266 A  
BRANCH  17  20
HETATM   20  S   UNL     1      -9.525   6.269  66.380  1.00  0.00    -0.096 S  
HETATM   21  O   UNL     1      -8.598   6.185  65.272  1.00  0.00    -0.143 OA 
HETATM   22  O   UNL     1     -10.782   5.547  66.336  1.00  0.00    -0.281 OA 
BRANCH  20  23
HETATM   23  N   UNL     1      -8.785   5.747  67.777  1.00  0.00    -0.108 N  
HETATM   24  H   UNL     1      -9.377   5.348  68.506  1.00  0.00     0.000 HD 
BRANCH  23  25
HETATM   25  C   UNL     1      -7.425   5.817  68.019  1.00  0.00    -0.077 C  
HETATM   26  O   UNL     1      -6.640   4.944  67.688  1.00  0.00    -0.047 OA 
BRANCH  25  27
HETATM   27  N   UNL     1      -7.044   6.970  68.647  1.00  0.00    -0.089 N  
HETATM   28  H   UNL     1      -7.157   7.865  68.170  1.00  0.00     0.000 HD 
BRANCH  27  29
HETATM   29  C   UNL     1      -6.479   6.935  69.992  1.00  0.00    -0.040 C  
HETATM   30  C   UNL     1      -6.401   8.338  70.603  1.00  0.00    -0.036 C  
HETATM   31  C   UNL     1      -7.758   8.872  71.057  1.00  0.00    -0.155 C  
HETATM   32  C   UNL     1      -8.469   7.891  71.982  1.00  0.00    -0.169 C  
HETATM   33  C   UNL     1      -8.599   6.511  71.346  1.00  0.00    -0.126 C  
HETATM   34  C   UNL     1      -7.242   5.966  70.905  1.00  0.00    -0.077 C  
ENDBRANCH  27  29
ENDBRANCH  25  27
ENDBRANCH  23  25
ENDBRANCH  20  23
ENDBRANCH  17  20
ENDBRANCH  13  14
ENDBRANCH  12  13
ENDBRANCH  10  12
ENDBRANCH   5   8
TORSDOF 9
ENDMDL
MODEL      261
REMARK 921   NORMALIZED FREE ENERGY PREDICTED BY IDOCK:   -4.09 KCAL/MOL
REMARK 922        TOTAL FREE ENERGY PREDICTED BY IDOCK:   -7.74 KCAL/MOL
REMARK 923 INTER-LIGAND FREE ENERGY PREDICTED BY IDOCK:   -6.37 KCAL/MOL
REMARK 924 INTRA-LIGAND FREE ENERGY PREDICTED BY IDOCK:   -1.36 KCAL/MOL
REMARK 927      BINDING AFFINITY PREDICTED BY RF-SCORE:    0.00 PKD
ROOT
HETATM    1  C   UNL     1      -9.619   2.135  64.046  1.00  0.00    -0.134 C  
HETATM    2  C   UNL     1      -9.209   3.535  64.375  1.00  0.00    -0.134 A  
HETATM    3  N   UNL     1      -8.585   4.251  63.407  1.00  0.00    -0.104 NA 
HETATM    4  C   UNL     1      -8.198   5.505  63.755  1.00  0.00    -0.108 A  
HETATM    5  C   UNL     1      -8.429   6.029  65.018  1.00  0.00    -0.089 A  
HETATM    6  C   UNL     1      -9.450   4.077  65.638  1.00  0.00    -0.176 A  
HETATM    7  N   UNL     1      -9.070   5.330  65.998  1.00  0.00    -0.149 NA 
ENDROOT
BRANCH   5   8
HETATM    8  C   UNL     1      -7.928   7.393  65.344  1.00  0.00    -0.125 C  
HETATM    9  O   UNL     1      -8.617   8.384  65.127  1.00  0.00    -0.175 OA 
HETATM   10  N   UNL     1      -6.653   7.452  65.873  1.00  0.00    -0.045 N  
HETATM   11  H   UNL     1      -6.168   6.584  66.103  1.00  0.00     0.000 HD 
BRANCH  10  12
HETATM   12  C   UNL     1      -5.988   8.718  66.110  1.00  0.00    -0.048 C  
BRANCH  12  13
HETATM   13  C   UNL     1      -5.790   9.023  67.604  1.00  0.00    -0.043 C  
BRANCH  13  14
HETATM   14  C   UNL     1      -7.065   9.000  68.429  1.00  0.00    -0.076 A  
HETATM   15  C   UNL     1      -7.265   8.057  69.447  1.00  0.00    -0.071 A  
HETATM   16  C   UNL     1      -8.460   8.017  70.168  1.00  0.00    -0.128 A  
HETATM   17  C   UNL     1      -9.453   8.963  69.922  1.00  0.00    -0.170 A  
HETATM   18  C   UNL     1      -9.257   9.945  68.946  1.00  0.00    -0.160 A  
HETATM   19  C   UNL     1      -8.066   9.964  68.210  1.00  0.00    -0.104 A  
BRANCH  17  20
HETATM   20  S   UNL     1     -11.017   8.814  70.754  1.00  0.00    -0.259 S  
HETATM   21  O   UNL     1     -10.827   9.070  72.165  1.00  0.00    -0.337 OA 
HETATM   22  O   UNL     1     -11.622   7.571  70.313  1.00  0.00    -0.213 OA 
BRANCH  20  23
HETATM   23  N   UNL     1     -11.966  10.007  70.086  1.00  0.00    -0.439 N  
HETATM   24  H   UNL     1     -12.290   9.875  69.127  1.00  0.00     0.000 HD 
BRANCH  23  25
HETATM   25  C   UNL     1     -12.346  11.166  70.738  1.00  0.00    -0.406 C  
HETATM   26  O   UNL     1     -13.220  11.200  71.589  1.00  0.00    -0.418 OA 
BRANCH  25  27
HETATM   27  N   UNL     1     -11.632  12.266  70.353  1.00  0.00    -0.493 N  
HETATM   28  H   UNL     1     -10.659  12.362  70.642  1.00  0.00     0.000 HD 
BRANCH  27  29
HETATM   29  C   UNL     1     -12.247  13.304  69.530  1.00  0.00    -0.178 C  
HETATM   30  C   UNL     1     -12.417  14.610  70.313  1.00  0.00    -0.401 C  
HETATM   31  C   UNL     1     -11.106  15.370  70.506  1.00  0.00    -0.361 C  
HETATM   32  C   UNL     1     -10.384  15.594  69.182  1.00  0.00    -0.241 C  
HETATM   33  C   UNL     1     -10.162  14.284  68.433  1.00  0.00    -0.245 C  
HETATM   34  C   UNL     1     -11.473  13.528  68.224  1.00  0.00    -0.345 C  
ENDBRANCH  27  29
ENDBRANCH  25  27
ENDBRANCH  23  25
ENDBRANCH  20  23
ENDBRANCH  17  20
ENDBRANCH  13  14
ENDBRANCH  12  13
ENDBRANCH  10  12
ENDBRANCH   5   8
TORSDOF 9
ENDMDL
MODEL      262
REMARK 921   NORMALIZED FREE ENERGY PREDICTED BY IDOCK:   -4.08 KCAL/MOL
REMARK 922        TOTAL FREE ENERGY PREDICTED BY IDOCK:   -7.73 KCAL/MOL
REMARK 923 INTER-LIGAND FREE ENERGY PREDICTED BY IDOCK:   -6.69 KCAL/MOL
REMARK 924 INTRA-LIGAND FREE ENERGY PREDICTED BY IDOCK:   -1.04 KCAL/MOL
REMARK 927      BINDING AFFINITY PREDICTED BY RF-SCORE:    0.00 PKD
ROOT
HETATM    1  C   UNL     1     -10.450  17.533  68.057  1.00  0.00    -0.387 C  
HETATM    2  C   UNL     1     -10.962  16.310  68.750  1.00  0.00    -0.343 A  
HETATM    3  N   UNL     1     -11.523  15.342  67.984  1.00  0.00    -0.345 NA 
HETATM    4  C   UNL     1     -12.006  14.264  68.653  1.00  0.00    -0.313 A  
HETATM    5  C   UNL     1     -11.930  14.151  70.033  1.00  0.00    -0.340 A  
HETATM    6  C   UNL     1     -10.876  16.181  70.137  1.00  0.00    -0.328 A  
HETATM    7  N   UNL     1     -11.353  15.107  70.817  1.00  0.00    -0.299 NA 
ENDROOT
BRANCH   5   8
HETATM    8  C   UNL     1     -12.530  12.964  70.701  1.00  0.00    -0.252 C  
HETATM    9  O   UNL     1     -13.121  13.077  71.770  1.00  0.00    -0.399 OA 
HETATM   10  N   UNL     1     -12.353  11.758  70.051  1.00  0.00    -0.204 N  
HETATM   11  H   UNL     1     -11.923  11.749  69.126  1.00  0.00     0.000 HD 
BRANCH  10  12
HETATM   12  C   UNL     1     -12.765  10.505  70.652  1.00  0.00    -0.355 C  
BRANCH  12  13
HETATM   13  C   UNL     1     -11.811  10.027  71.760  1.00  0.00    -0.169 C  
BRANCH  13  14
HETATM   14  C   UNL     1     -11.298   8.609  71.586  1.00  0.00    -0.377 A  
HETATM   15  C   UNL     1     -10.864   7.845  72.680  1.00  0.00    -0.428 A  
HETATM   16  C   UNL     1     -10.350   6.559  72.501  1.00  0.00    -0.216 A  
HETATM   17  C   UNL     1     -10.321   5.991  71.229  1.00  0.00    -0.215 A  
HETATM   18  C   UNL     1     -10.794   6.714  70.130  1.00  0.00    -0.330 A  
HETATM   19  C   UNL     1     -11.285   8.013  70.312  1.00  0.00    -0.192 A  
BRANCH  17  20
HETATM   20  S   UNL     1      -9.542   4.409  71.004  1.00  0.00    -0.191 S  
HETATM   21  O   UNL     1     -10.142   3.745  69.868  1.00  0.00     0.019 OA 
HETATM   22  O   UNL     1      -9.513   3.756  72.299  1.00  0.00    -0.117 OA 
BRANCH  20  23
HETATM   23  N   UNL     1      -7.950   4.766  70.674  1.00  0.00    -0.072 N  
HETATM   24  H   UNL     1      -7.244   4.447  71.339  1.00  0.00     0.000 HD 
BRANCH  23  25
HETATM   25  C   UNL     1      -7.516   5.464  69.562  1.00  0.00    -0.069 C  
HETATM   26  O   UNL     1      -6.717   6.385  69.618  1.00  0.00    -0.049 OA 
BRANCH  25  27
HETATM   27  N   UNL     1      -8.053   5.008  68.390  1.00  0.00    -0.086 N  
HETATM   28  H   UNL     1      -9.065   5.007  68.267  1.00  0.00     0.000 HD 
BRANCH  27  29
HETATM   29  C   UNL     1      -7.193   4.523  67.315  1.00  0.00    -0.069 C  
HETATM   30  C   UNL     1      -7.531   3.077  66.937  1.00  0.00    -0.071 C  
HETATM   31  C   UNL     1      -8.820   2.953  66.127  1.00  0.00    -0.143 C  
HETATM   32  C   UNL     1      -8.809   3.868  64.907  1.00  0.00    -0.123 C  
HETATM   33  C   UNL     1      -8.533   5.317  65.293  1.00  0.00    -0.147 C  
HETATM   34  C   UNL     1      -7.236   5.448  66.091  1.00  0.00    -0.077 C  
ENDBRANCH  27  29
ENDBRANCH  25  27
ENDBRANCH  23  25
ENDBRANCH  20  23
ENDBRANCH  17  20
ENDBRANCH  13  14
ENDBRANCH  12  13
ENDBRANCH  10  12
ENDBRANCH   5   8
TORSDOF 9
ENDMDL
MODEL      263
REMARK 921   NORMALIZED FREE ENERGY PREDICTED BY IDOCK:   -4.08 KCAL/MOL
REMARK 922        TOTAL FREE ENERGY PREDICTED BY IDOCK:   -7.72 KCAL/MOL
REMARK 923 INTER-LIGAND FREE ENERGY PREDICTED BY IDOCK:   -6.80 KCAL/MOL
REMARK 924 INTRA-LIGAND FREE ENERGY PREDICTED BY IDOCK:   -0.92 KCAL/MOL
REMARK 927      BINDING AFFINITY PREDICTED BY RF-SCORE:    0.00 PKD
ROOT
HETATM    1  C   UNL     1     -12.229  15.879  71.536  1.00  0.00    -0.525 C  
HETATM    2  C   UNL     1     -11.544  15.107  70.453  1.00  0.00    -0.292 A  
HETATM    3  N   UNL     1     -12.034  13.879  70.151  1.00  0.00    -0.317 NA 
HETATM    4  C   UNL     1     -11.365  13.196  69.189  1.00  0.00    -0.281 A  
HETATM    5  C   UNL     1     -10.252  13.717  68.545  1.00  0.00    -0.234 A  
HETATM    6  C   UNL     1     -10.433  15.629  69.790  1.00  0.00    -0.308 A  
HETATM    7  N   UNL     1      -9.757  14.957  68.823  1.00  0.00    -0.220 NA 
ENDROOT
BRANCH   5   8
HETATM    8  C   UNL     1      -9.538  12.886  67.536  1.00  0.00    -0.200 C  
HETATM    9  O   UNL     1      -8.384  12.518  67.730  1.00  0.00    -0.147 OA 
HETATM   10  N   UNL     1     -10.251  12.593  66.390  1.00  0.00    -0.246 N  
HETATM   11  H   UNL     1     -11.233  12.863  66.331  1.00  0.00     0.000 HD 
BRANCH  10  12
HETATM   12  C   UNL     1      -9.636  11.911  65.268  1.00  0.00    -0.138 C  
BRANCH  12  13
HETATM   13  C   UNL     1     -10.155  10.476  65.079  1.00  0.00    -0.390 C  
BRANCH  13  14
HETATM   14  C   UNL     1      -9.877   9.543  66.244  1.00  0.00    -0.334 A  
HETATM   15  C   UNL     1     -10.772   9.418  67.317  1.00  0.00    -0.258 A  
HETATM   16  C   UNL     1     -10.482   8.591  68.404  1.00  0.00    -0.215 A  
HETATM   17  C   UNL     1      -9.318   7.825  68.406  1.00  0.00    -0.143 A  
HETATM   18  C   UNL     1      -8.434   7.895  67.325  1.00  0.00    -0.121 A  
HETATM   19  C   UNL     1      -8.718   8.745  66.249  1.00  0.00    -0.169 A  
BRANCH  17  20
HETATM   20  S   UNL     1      -8.903   6.884  69.856  1.00  0.00    -0.141 S  
HETATM   21  O   UNL     1      -7.605   6.275  69.667  1.00  0.00    -0.089 OA 
HETATM   22  O   UNL     1     -10.054   6.063  70.179  1.00  0.00    -0.177 OA 
BRANCH  20  23
HETATM   23  N   UNL     1      -8.827   8.008  71.082  1.00  0.00    -0.135 N  
HETATM   24  H   UNL     1      -8.373   8.899  70.880  1.00  0.00     0.000 HD 
BRANCH  23  25
HETATM   25  C   UNL     1      -9.336   7.819  72.354  1.00  0.00    -0.169 C  
HETATM   26  O   UNL     1      -9.354   8.693  73.205  1.00  0.00    -0.187 OA 
BRANCH  25  27
HETATM   27  N   UNL     1      -9.836   6.563  72.557  1.00  0.00    -0.166 N  
HETATM   28  H   UNL     1     -10.590   6.218  71.963  1.00  0.00     0.000 HD 
BRANCH  27  29
HETATM   29  C   UNL     1      -9.303   5.711  73.616  1.00  0.00    -0.137 C  
HETATM   30  C   UNL     1     -10.417   4.925  74.317  1.00  0.00    -0.336 C  
HETATM   31  C   UNL     1     -10.949   3.762  73.481  1.00  0.00    -0.339 C  
HETATM   32  C   UNL     1      -9.825   2.848  73.007  1.00  0.00    -0.178 C  
HETATM   33  C   UNL     1      -8.747   3.624  72.257  1.00  0.00    -0.109 C  
HETATM   34  C   UNL     1      -8.200   4.779  73.095  1.00  0.00    -0.101 C  
ENDBRANCH  27  29
ENDBRANCH  25  27
ENDBRANCH  23  25
ENDBRANCH  20  23
ENDBRANCH  17  20
ENDBRANCH  13  14
ENDBRANCH  12  13
ENDBRANCH  10  12
ENDBRANCH   5   8
TORSDOF 9
ENDMDL
MODEL      264
REMARK 921   NORMALIZED FREE ENERGY PREDICTED BY IDOCK:   -4.08 KCAL/MOL
REMARK 922        TOTAL FREE ENERGY PREDICTED BY IDOCK:   -7.72 KCAL/MOL
REMARK 923 INTER-LIGAND FREE ENERGY PREDICTED BY IDOCK:   -5.71 KCAL/MOL
REMARK 924 INTRA-LIGAND FREE ENERGY PREDICTED BY IDOCK:   -2.01 KCAL/MOL
REMARK 927      BINDING AFFINITY PREDICTED BY RF-SCORE:    0.00 PKD
ROOT
HETATM    1  C   UNL     1      -9.340  10.601  64.424  1.00  0.00    -0.291 C  
HETATM    2  C   UNL     1      -9.670  10.405  65.870  1.00  0.00    -0.217 A  
HETATM    3  N   UNL     1      -8.726   9.832  66.658  1.00  0.00    -0.130 NA 
HETATM    4  C   UNL     1      -9.076   9.640  67.955  1.00  0.00    -0.125 A  
HETATM    5  C   UNL     1     -10.316  10.009  68.452  1.00  0.00    -0.191 A  
HETATM    6  C   UNL     1     -10.910  10.786  66.383  1.00  0.00    -0.104 A  
HETATM    7  N   UNL     1     -11.271  10.602  67.679  1.00  0.00    -0.378 NA 
ENDROOT
BRANCH   5   8
HETATM    8  C   UNL     1     -10.648   9.717  69.874  1.00  0.00    -0.265 C  
HETATM    9  O   UNL     1      -9.774   9.712  70.734  1.00  0.00    -0.250 OA 
HETATM   10  N   UNL     1     -11.976   9.440  70.134  1.00  0.00    -0.460 N  
HETATM   11  H   UNL     1     -12.662   9.542  69.386  1.00  0.00     0.000 HD 
BRANCH  10  12
HETATM   12  C   UNL     1     -12.418   9.007  71.445  1.00  0.00    -0.317 C  
BRANCH  12  13
HETATM   13  C   UNL     1     -12.635   7.488  71.535  1.00  0.00    -0.385 C  
BRANCH  13  14
HETATM   14  C   UNL     1     -11.423   6.651  71.167  1.00  0.00    -0.370 A  
HETATM   15  C   UNL     1     -11.404   5.849  70.016  1.00  0.00    -0.219 A  
HETATM   16  C   UNL     1     -10.301   5.049  69.713  1.00  0.00    -0.286 A  
HETATM   17  C   UNL     1      -9.170   5.085  70.527  1.00  0.00    -0.145 A  
HETATM   18  C   UNL     1      -9.146   5.914  71.653  1.00  0.00    -0.149 A  
HETATM   19  C   UNL     1     -10.265   6.696  71.964  1.00  0.00    -0.206 A  
BRANCH  17  20
HETATM   20  S   UNL     1      -7.832   3.962  70.201  1.00  0.00    -0.047 S  
HETATM   21  O   UNL     1      -8.312   2.887  69.360  1.00  0.00    -0.057 OA 
HETATM   22  O   UNL     1      -7.199   3.667  71.472  1.00  0.00    -0.037 OA 
BRANCH  20  23
HETATM   23  N   UNL     1      -6.711   4.871  69.370  1.00  0.00    -0.050 N  
HETATM   24  H   UNL     1      -5.731   4.777  69.640  1.00  0.00     0.000 HD 
BRANCH  23  25
HETATM   25  C   UNL     1      -7.014   5.744  68.341  1.00  0.00    -0.068 C  
HETATM   26  O   UNL     1      -6.870   6.952  68.423  1.00  0.00    -0.068 OA 
BRANCH  25  27
HETATM   27  N   UNL     1      -7.472   5.118  67.216  1.00  0.00    -0.083 N  
HETATM   28  H   UNL     1      -6.908   4.390  66.779  1.00  0.00     0.000 HD 
BRANCH  27  29
HETATM   29  C   UNL     1      -8.761   5.481  66.633  1.00  0.00    -0.116 C  
HETATM   30  C   UNL     1      -8.588   6.415  65.430  1.00  0.00    -0.088 C  
HETATM   31  C   UNL     1      -8.087   5.697  64.179  1.00  0.00    -0.129 C  
HETATM   32  C   UNL     1      -8.953   4.489  63.837  1.00  0.00    -0.136 C  
HETATM   33  C   UNL     1      -9.074   3.531  65.017  1.00  0.00    -0.140 C  
HETATM   34  C   UNL     1      -9.589   4.242  66.267  1.00  0.00    -0.204 C  
ENDBRANCH  27  29
ENDBRANCH  25  27
ENDBRANCH  23  25
ENDBRANCH  20  23
ENDBRANCH  17  20
ENDBRANCH  13  14
ENDBRANCH  12  13
ENDBRANCH  10  12
ENDBRANCH   5   8
TORSDOF 9
ENDMDL
MODEL      265
REMARK 921   NORMALIZED FREE ENERGY PREDICTED BY IDOCK:   -4.08 KCAL/MOL
REMARK 922        TOTAL FREE ENERGY PREDICTED BY IDOCK:   -7.72 KCAL/MOL
REMARK 923 INTER-LIGAND FREE ENERGY PREDICTED BY IDOCK:   -7.14 KCAL/MOL
REMARK 924 INTRA-LIGAND FREE ENERGY PREDICTED BY IDOCK:   -0.57 KCAL/MOL
REMARK 927      BINDING AFFINITY PREDICTED BY RF-SCORE:    0.00 PKD
ROOT
HETATM    1  C   UNL     1      -9.924  19.764  66.808  1.00  0.00    -0.545 C  
HETATM    2  C   UNL     1     -10.026  18.297  66.538  1.00  0.00    -0.373 A  
HETATM    3  N   UNL     1      -9.474  17.451  67.444  1.00  0.00    -0.244 NA 
HETATM    4  C   UNL     1      -9.556  16.130  67.146  1.00  0.00    -0.229 A  
HETATM    5  C   UNL     1     -10.170  15.665  65.993  1.00  0.00    -0.335 A  
HETATM    6  C   UNL     1     -10.654  17.819  65.388  1.00  0.00     0.078 A  
HETATM    7  N   UNL     1     -10.746  16.499  65.080  1.00  0.00    -0.692 NA 
ENDROOT
BRANCH   5   8
HETATM    8  C   UNL     1     -10.174  14.204  65.707  1.00  0.00    -0.332 C  
HETATM    9  O   UNL     1     -11.045  13.704  65.002  1.00  0.00    -0.308 OA 
HETATM   10  N   UNL     1      -9.162  13.475  66.301  1.00  0.00    -0.472 N  
HETATM   11  H   UNL     1      -8.425  13.966  66.807  1.00  0.00     0.000 HD 
BRANCH  10  12
HETATM   12  C   UNL     1      -9.122  12.028  66.221  1.00  0.00    -0.165 C  
BRANCH  12  13
HETATM   13  C   UNL     1     -10.093  11.345  67.198  1.00  0.00    -0.226 C  
BRANCH  13  14
HETATM   14  C   UNL     1      -9.905   9.844  67.333  1.00  0.00    -0.223 A  
HETATM   15  C   UNL     1      -9.944   8.995  66.218  1.00  0.00    -0.352 A  
HETATM   16  C   UNL     1      -9.816   7.612  66.360  1.00  0.00    -0.174 A  
HETATM   17  C   UNL     1      -9.583   7.060  67.618  1.00  0.00    -0.131 A  
HETATM   18  C   UNL     1      -9.490   7.891  68.739  1.00  0.00    -0.147 A  
HETATM   19  C   UNL     1      -9.644   9.275  68.593  1.00  0.00    -0.152 A  
BRANCH  17  20
HETATM   20  S   UNL     1      -9.557   5.292  67.798  1.00  0.00    -0.139 S  
HETATM   21  O   UNL     1      -8.194   4.824  67.666  1.00  0.00    -0.103 OA 
HETATM   22  O   UNL     1     -10.597   4.757  66.940  1.00  0.00    -0.158 OA 
BRANCH  20  23
HETATM   23  N   UNL     1     -10.101   5.017  69.347  1.00  0.00    -0.224 N  
HETATM   24  H   UNL     1     -10.993   5.433  69.617  1.00  0.00     0.000 HD 
BRANCH  23  25
HETATM   25  C   UNL     1      -9.431   4.263  70.293  1.00  0.00    -0.175 C  
HETATM   26  O   UNL     1      -8.800   3.254  70.022  1.00  0.00    -0.071 OA 
BRANCH  25  27
HETATM   27  N   UNL     1      -9.526   4.771  71.558  1.00  0.00    -0.146 N  
HETATM   28  H   UNL     1      -9.134   4.249  72.342  1.00  0.00     0.000 HD 
BRANCH  27  29
HETATM   29  C   UNL     1     -10.182   6.053  71.800  1.00  0.00    -0.202 C  
HETATM   30  C   UNL     1     -11.174   5.963  72.965  1.00  0.00    -0.258 C  
HETATM   31  C   UNL     1     -10.493   5.917  74.331  1.00  0.00    -0.181 C  
HETATM   32  C   UNL     1      -9.511   7.069  74.512  1.00  0.00    -0.163 C  
HETATM   33  C   UNL     1      -8.489   7.119  73.382  1.00  0.00    -0.157 C  
HETATM   34  C   UNL     1      -9.165   7.182  72.014  1.00  0.00    -0.146 C  
ENDBRANCH  27  29
ENDBRANCH  25  27
ENDBRANCH  23  25
ENDBRANCH  20  23
ENDBRANCH  17  20
ENDBRANCH  13  14
ENDBRANCH  12  13
ENDBRANCH  10  12
ENDBRANCH   5   8
TORSDOF 9
ENDMDL
MODEL      266
REMARK 921   NORMALIZED FREE ENERGY PREDICTED BY IDOCK:   -4.06 KCAL/MOL
REMARK 922        TOTAL FREE ENERGY PREDICTED BY IDOCK:   -7.70 KCAL/MOL
REMARK 923 INTER-LIGAND FREE ENERGY PREDICTED BY IDOCK:   -7.37 KCAL/MOL
REMARK 924 INTRA-LIGAND FREE ENERGY PREDICTED BY IDOCK:   -0.33 KCAL/MOL
REMARK 927      BINDING AFFINITY PREDICTED BY RF-SCORE:    0.00 PKD
ROOT
HETATM    1  C   UNL     1      -6.246  20.260  69.033  1.00  0.00    -0.366 C  
HETATM    2  C   UNL     1      -7.318  19.257  68.748  1.00  0.00    -0.346 A  
HETATM    3  N   UNL     1      -8.607  19.659  68.882  1.00  0.00    -0.269 NA 
HETATM    4  C   UNL     1      -9.549  18.711  68.648  1.00  0.00    -0.368 A  
HETATM    5  C   UNL     1      -9.223  17.412  68.290  1.00  0.00    -0.271 A  
HETATM    6  C   UNL     1      -7.000  17.951  68.373  1.00  0.00    -0.234 A  
HETATM    7  N   UNL     1      -7.934  16.994  68.134  1.00  0.00    -0.198 NA 
ENDROOT
BRANCH   5   8
HETATM    8  C   UNL     1     -10.311  16.412  68.102  1.00  0.00    -0.283 C  
HETATM    9  O   UNL     1     -10.717  16.130  66.980  1.00  0.00    -0.313 OA 
HETATM   10  N   UNL     1     -10.824  15.862  69.261  1.00  0.00    -0.254 N  
HETATM   11  H   UNL     1     -10.384  16.081  70.154  1.00  0.00     0.000 HD 
BRANCH  10  12
HETATM   12  C   UNL     1     -11.975  14.980  69.236  1.00  0.00    -0.289 C  
BRANCH  12  13
HETATM   13  C   UNL     1     -12.143  14.249  67.894  1.00  0.00    -0.296 C  
BRANCH  13  14
HETATM   14  C   UNL     1     -11.730  12.789  67.912  1.00  0.00    -0.408 A  
HETATM   15  C   UNL     1     -11.948  11.976  69.035  1.00  0.00    -0.321 A  
HETATM   16  C   UNL     1     -11.523  10.646  69.056  1.00  0.00    -0.342 A  
HETATM   17  C   UNL     1     -10.926  10.089  67.927  1.00  0.00    -0.252 A  
HETATM   18  C   UNL     1     -10.742  10.864  66.779  1.00  0.00    -0.309 A  
HETATM   19  C   UNL     1     -11.149  12.204  66.773  1.00  0.00    -0.349 A  
BRANCH  17  20
HETATM   20  S   UNL     1     -10.271   8.438  68.020  1.00  0.00    -0.212 S  
HETATM   21  O   UNL     1     -10.391   7.810  66.722  1.00  0.00    -0.301 OA 
HETATM   22  O   UNL     1     -10.851   7.811  69.191  1.00  0.00    -0.171 OA 
BRANCH  20  23
HETATM   23  N   UNL     1      -8.663   8.643  68.402  1.00  0.00    -0.141 N  
HETATM   24  H   UNL     1      -8.364   9.568  68.713  1.00  0.00     0.000 HD 
BRANCH  23  25
HETATM   25  C   UNL     1      -7.705   7.649  68.327  1.00  0.00    -0.120 C  
HETATM   26  O   UNL     1      -6.506   7.874  68.295  1.00  0.00    -0.051 OA 
BRANCH  25  27
HETATM   27  N   UNL     1      -8.231   6.388  68.313  1.00  0.00    -0.116 N  
HETATM   28  H   UNL     1      -9.093   6.195  68.823  1.00  0.00     0.000 HD 
BRANCH  27  29
HETATM   29  C   UNL     1      -7.573   5.313  67.576  1.00  0.00    -0.088 C  
HETATM   30  C   UNL     1      -7.873   3.944  68.195  1.00  0.00    -0.073 C  
HETATM   31  C   UNL     1      -9.286   3.446  67.898  1.00  0.00    -0.242 C  
HETATM   32  C   UNL     1      -9.590   3.470  66.404  1.00  0.00    -0.114 C  
HETATM   33  C   UNL     1      -9.348   4.850  65.802  1.00  0.00    -0.165 C  
HETATM   34  C   UNL     1      -7.931   5.345  66.083  1.00  0.00    -0.105 C  
ENDBRANCH  27  29
ENDBRANCH  25  27
ENDBRANCH  23  25
ENDBRANCH  20  23
ENDBRANCH  17  20
ENDBRANCH  13  14
ENDBRANCH  12  13
ENDBRANCH  10  12
ENDBRANCH   5   8
TORSDOF 9
ENDMDL
MODEL      267
REMARK 921   NORMALIZED FREE ENERGY PREDICTED BY IDOCK:   -4.05 KCAL/MOL
REMARK 922        TOTAL FREE ENERGY PREDICTED BY IDOCK:   -7.68 KCAL/MOL
REMARK 923 INTER-LIGAND FREE ENERGY PREDICTED BY IDOCK:   -6.05 KCAL/MOL
REMARK 924 INTRA-LIGAND FREE ENERGY PREDICTED BY IDOCK:   -1.63 KCAL/MOL
REMARK 927      BINDING AFFINITY PREDICTED BY RF-SCORE:    0.00 PKD
ROOT
HETATM    1  C   UNL     1      -9.489  17.500  67.729  1.00  0.00    -0.269 C  
HETATM    2  C   UNL     1     -10.219  16.407  68.444  1.00  0.00    -0.259 A  
HETATM    3  N   UNL     1     -11.506  16.171  68.084  1.00  0.00    -0.284 NA 
HETATM    4  C   UNL     1     -12.145  15.196  68.778  1.00  0.00    -0.165 A  
HETATM    5  C   UNL     1     -11.526  14.478  69.790  1.00  0.00    -0.279 A  
HETATM    6  C   UNL     1      -9.601  15.669  69.453  1.00  0.00    -0.287 A  
HETATM    7  N   UNL     1     -10.228  14.689  70.154  1.00  0.00     0.265 NA 
ENDROOT
BRANCH   5   8
HETATM    8  C   UNL     1     -12.308  13.459  70.544  1.00  0.00    -0.329 C  
HETATM    9  O   UNL     1     -13.024  13.787  71.484  1.00  0.00    -0.335 OA 
HETATM   10  N   UNL     1     -12.148  12.152  70.126  1.00  0.00    -0.319 N  
HETATM   11  H   UNL     1     -11.602  11.961  69.286  1.00  0.00     0.000 HD 
BRANCH  10  12
HETATM   12  C   UNL     1     -12.740  11.046  70.852  1.00  0.00    -0.358 C  
BRANCH  12  13
HETATM   13  C   UNL     1     -11.696  10.147  71.534  1.00  0.00    -0.290 C  
BRANCH  13  14
HETATM   14  C   UNL     1     -11.255   8.951  70.711  1.00  0.00    -0.321 A  
HETATM   15  C   UNL     1     -11.875   7.699  70.842  1.00  0.00    -0.272 A  
HETATM   16  C   UNL     1     -11.429   6.595  70.112  1.00  0.00    -0.444 A  
HETATM   17  C   UNL     1     -10.394   6.740  69.191  1.00  0.00    -0.194 A  
HETATM   18  C   UNL     1      -9.793   7.989  69.008  1.00  0.00    -0.178 A  
HETATM   19  C   UNL     1     -10.228   9.087  69.760  1.00  0.00    -0.214 A  
BRANCH  17  20
HETATM   20  S   UNL     1      -9.753   5.298  68.373  1.00  0.00    -0.150 S  
HETATM   21  O   UNL     1     -10.132   5.340  66.978  1.00  0.00    -0.167 OA 
HETATM   22  O   UNL     1     -10.102   4.150  69.189  1.00  0.00    -0.034 OA 
BRANCH  20  23
HETATM   23  N   UNL     1      -8.100   5.432  68.514  1.00  0.00    -0.094 N  
HETATM   24  H   UNL     1      -7.579   5.750  67.697  1.00  0.00     0.000 HD 
BRANCH  23  25
HETATM   25  C   UNL     1      -7.384   5.141  69.661  1.00  0.00    -0.061 C  
HETATM   26  O   UNL     1      -6.838   4.068  69.856  1.00  0.00    -0.039 OA 
BRANCH  25  27
HETATM   27  N   UNL     1      -7.328   6.182  70.545  1.00  0.00    -0.083 N  
HETATM   28  H   UNL     1      -7.458   7.136  70.209  1.00  0.00     0.000 HD 
BRANCH  27  29
HETATM   29  C   UNL     1      -7.086   5.943  71.964  1.00  0.00    -0.087 C  
HETATM   30  C   UNL     1      -6.607   7.215  72.673  1.00  0.00    -0.056 C  
HETATM   31  C   UNL     1      -7.726   8.228  72.910  1.00  0.00    -0.171 C  
HETATM   32  C   UNL     1      -8.916   7.596  73.625  1.00  0.00    -0.310 C  
HETATM   33  C   UNL     1      -9.428   6.366  72.885  1.00  0.00    -0.150 C  
HETATM   34  C   UNL     1      -8.316   5.342  72.658  1.00  0.00    -0.114 C  
ENDBRANCH  27  29
ENDBRANCH  25  27
ENDBRANCH  23  25
ENDBRANCH  20  23
ENDBRANCH  17  20
ENDBRANCH  13  14
ENDBRANCH  12  13
ENDBRANCH  10  12
ENDBRANCH   5   8
TORSDOF 9
ENDMDL
MODEL      268
REMARK 921   NORMALIZED FREE ENERGY PREDICTED BY IDOCK:   -4.02 KCAL/MOL
REMARK 922        TOTAL FREE ENERGY PREDICTED BY IDOCK:   -7.63 KCAL/MOL
REMARK 923 INTER-LIGAND FREE ENERGY PREDICTED BY IDOCK:   -7.16 KCAL/MOL
REMARK 924 INTRA-LIGAND FREE ENERGY PREDICTED BY IDOCK:   -0.46 KCAL/MOL
REMARK 927      BINDING AFFINITY PREDICTED BY RF-SCORE:    0.00 PKD
ROOT
HETATM    1  C   UNL     1      -7.134   7.039  74.532  1.00  0.00    -0.106 C  
HETATM    2  C   UNL     1      -7.624   7.351  73.154  1.00  0.00    -0.091 A  
HETATM    3  N   UNL     1      -6.770   7.985  72.311  1.00  0.00    -0.065 NA 
HETATM    4  C   UNL     1      -7.263   8.281  71.082  1.00  0.00    -0.065 A  
HETATM    5  C   UNL     1      -8.556   7.954  70.702  1.00  0.00    -0.130 A  
HETATM    6  C   UNL     1      -8.918   7.013  72.757  1.00  0.00    -0.130 A  
HETATM    7  N   UNL     1      -9.422   7.302  71.530  1.00  0.00    -0.153 NA 
ENDROOT
BRANCH   5   8
HETATM    8  C   UNL     1      -9.045   8.360  69.355  1.00  0.00    -0.154 C  
HETATM    9  O   UNL     1      -8.724   9.439  68.869  1.00  0.00    -0.127 OA 
HETATM   10  N   UNL     1      -9.881   7.457  68.726  1.00  0.00    -0.160 N  
HETATM   11  H   UNL     1     -10.040   6.544  69.152  1.00  0.00     0.000 HD 
BRANCH  10  12
HETATM   12  C   UNL     1     -10.538   7.778  67.474  1.00  0.00    -0.248 C  
BRANCH  12  13
HETATM   13  C   UNL     1      -9.682   8.668  66.557  1.00  0.00    -0.325 C  
BRANCH  13  14
HETATM   14  C   UNL     1     -10.230  10.067  66.340  1.00  0.00    -0.290 A  
HETATM   15  C   UNL     1     -11.070  10.682  67.280  1.00  0.00    -0.313 A  
HETATM   16  C   UNL     1     -11.605  11.951  67.047  1.00  0.00    -0.365 A  
HETATM   17  C   UNL     1     -11.257  12.652  65.895  1.00  0.00    -0.314 A  
HETATM   18  C   UNL     1     -10.383  12.080  64.966  1.00  0.00    -0.318 A  
HETATM   19  C   UNL     1      -9.869  10.798  65.194  1.00  0.00    -0.333 A  
BRANCH  17  20
HETATM   20  S   UNL     1     -12.052  14.205  65.552  1.00  0.00    -0.423 S  
HETATM   21  O   UNL     1     -13.485  14.013  65.559  1.00  0.00    -0.677 OA 
HETATM   22  O   UNL     1     -11.397  14.776  64.391  1.00  0.00    -0.313 OA 
BRANCH  20  23
HETATM   23  N   UNL     1     -11.609  15.193  66.817  1.00  0.00    -0.210 N  
HETATM   24  H   UNL     1     -12.259  15.286  67.597  1.00  0.00     0.000 HD 
BRANCH  23  25
HETATM   25  C   UNL     1     -10.420  15.898  66.884  1.00  0.00    -0.309 C  
HETATM   26  O   UNL     1     -10.356  17.113  66.793  1.00  0.00    -0.311 OA 
BRANCH  25  27
HETATM   27  N   UNL     1      -9.327  15.102  67.083  1.00  0.00    -0.206 N  
HETATM   28  H   UNL     1      -8.640  14.993  66.338  1.00  0.00     0.000 HD 
BRANCH  27  29
HETATM   29  C   UNL     1      -9.133  14.407  68.352  1.00  0.00    -0.193 C  
HETATM   30  C   UNL     1      -8.252  13.165  68.181  1.00  0.00    -0.160 C  
HETATM   31  C   UNL     1      -6.773  13.498  67.998  1.00  0.00    -0.138 C  
HETATM   32  C   UNL     1      -6.258  14.407  69.108  1.00  0.00    -0.098 C  
HETATM   33  C   UNL     1      -7.100  15.672  69.236  1.00  0.00    -0.189 C  
HETATM   34  C   UNL     1      -8.579  15.344  69.435  1.00  0.00    -0.249 C  
ENDBRANCH  27  29
ENDBRANCH  25  27
ENDBRANCH  23  25
ENDBRANCH  20  23
ENDBRANCH  17  20
ENDBRANCH  13  14
ENDBRANCH  12  13
ENDBRANCH  10  12
ENDBRANCH   5   8
TORSDOF 9
ENDMDL
MODEL      269
REMARK 921   NORMALIZED FREE ENERGY PREDICTED BY IDOCK:   -4.00 KCAL/MOL
REMARK 922        TOTAL FREE ENERGY PREDICTED BY IDOCK:   -7.60 KCAL/MOL
REMARK 923 INTER-LIGAND FREE ENERGY PREDICTED BY IDOCK:   -6.28 KCAL/MOL
REMARK 924 INTRA-LIGAND FREE ENERGY PREDICTED BY IDOCK:   -1.32 KCAL/MOL
REMARK 927      BINDING AFFINITY PREDICTED BY RF-SCORE:    0.00 PKD
ROOT
HETATM    1  C   UNL     1      -8.210   8.125  74.523  1.00  0.00    -0.210 C  
HETATM    2  C   UNL     1      -8.302   7.717  73.087  1.00  0.00    -0.138 A  
HETATM    3  N   UNL     1      -7.243   7.059  72.552  1.00  0.00    -0.079 NA 
HETATM    4  C   UNL     1      -7.351   6.736  71.238  1.00  0.00    -0.082 A  
HETATM    5  C   UNL     1      -8.472   7.050  70.485  1.00  0.00    -0.133 A  
HETATM    6  C   UNL     1      -9.432   8.015  72.325  1.00  0.00    -0.209 A  
HETATM    7  N   UNL     1      -9.553   7.695  71.011  1.00  0.00    -0.163 NA 
ENDROOT
BRANCH   5   8
HETATM    8  C   UNL     1      -8.495   6.711  69.035  1.00  0.00    -0.130 C  
HETATM    9  O   UNL     1      -8.084   5.626  68.637  1.00  0.00    -0.099 OA 
HETATM   10  N   UNL     1      -8.982   7.697  68.198  1.00  0.00    -0.127 N  
HETATM   11  H   UNL     1      -9.383   8.542  68.604  1.00  0.00     0.000 HD 
BRANCH  10  12
HETATM   12  C   UNL     1      -8.937   7.556  66.756  1.00  0.00    -0.144 C  
BRANCH  12  13
HETATM   13  C   UNL     1      -9.993   8.411  66.035  1.00  0.00     0.023 C  
BRANCH  13  14
HETATM   14  C   UNL     1      -9.914   9.898  66.332  1.00  0.00    -0.309 A  
HETATM   15  C   UNL     1     -10.898  10.550  67.090  1.00  0.00    -0.319 A  
HETATM   16  C   UNL     1     -10.839  11.927  67.317  1.00  0.00    -0.294 A  
HETATM   17  C   UNL     1      -9.757  12.665  66.840  1.00  0.00    -0.234 A  
HETATM   18  C   UNL     1      -8.738  12.029  66.124  1.00  0.00     0.042 A  
HETATM   19  C   UNL     1      -8.816  10.652  65.880  1.00  0.00    -0.187 A  
BRANCH  17  20
HETATM   20  S   UNL     1      -9.767  14.433  67.023  1.00  0.00    -0.263 S  
HETATM   21  O   UNL     1     -11.133  14.885  67.168  1.00  0.00    -0.316 OA 
HETATM   22  O   UNL     1      -8.926  14.978  65.975  1.00  0.00    -0.223 OA 
BRANCH  20  23
HETATM   23  N   UNL     1      -8.926  14.716  68.431  1.00  0.00    -0.175 N  
HETATM   24  H   UNL     1      -8.716  13.915  69.028  1.00  0.00     0.000 HD 
BRANCH  23  25
HETATM   25  C   UNL     1      -8.491  15.960  68.850  1.00  0.00    -0.220 C  
HETATM   26  O   UNL     1      -7.505  16.125  69.550  1.00  0.00    -0.216 OA 
BRANCH  25  27
HETATM   27  N   UNL     1      -9.260  16.990  68.385  1.00  0.00    -0.251 N  
HETATM   28  H   UNL     1     -10.262  16.997  68.577  1.00  0.00     0.000 HD 
BRANCH  27  29
HETATM   29  C   UNL     1      -8.664  18.078  67.615  1.00  0.00    -0.247 C  
HETATM   30  C   UNL     1      -9.600  18.551  66.498  1.00  0.00    -0.335 C  
HETATM   31  C   UNL     1     -10.769  19.391  67.009  1.00  0.00    -0.582 C  
HETATM   32  C   UNL     1     -10.294  20.551  67.877  1.00  0.00    -0.197 C  
HETATM   33  C   UNL     1      -9.412  20.069  69.024  1.00  0.00    -0.060 C  
HETATM   34  C   UNL     1      -8.232  19.242  68.517  1.00  0.00    -0.401 C  
ENDBRANCH  27  29
ENDBRANCH  25  27
ENDBRANCH  23  25
ENDBRANCH  20  23
ENDBRANCH  17  20
ENDBRANCH  13  14
ENDBRANCH  12  13
ENDBRANCH  10  12
ENDBRANCH   5   8
TORSDOF 9
ENDMDL
MODEL      270
REMARK 921   NORMALIZED FREE ENERGY PREDICTED BY IDOCK:   -3.99 KCAL/MOL
REMARK 922        TOTAL FREE ENERGY PREDICTED BY IDOCK:   -7.58 KCAL/MOL
REMARK 923 INTER-LIGAND FREE ENERGY PREDICTED BY IDOCK:   -7.13 KCAL/MOL
REMARK 924 INTRA-LIGAND FREE ENERGY PREDICTED BY IDOCK:   -0.46 KCAL/MOL
REMARK 927      BINDING AFFINITY PREDICTED BY RF-SCORE:    0.00 PKD
ROOT
HETATM    1  C   UNL     1      -6.267  20.243  69.047  1.00  0.00    -0.366 C  
HETATM    2  C   UNL     1      -7.378  19.267  68.826  1.00  0.00    -0.346 A  
HETATM    3  N   UNL     1      -8.647  19.702  69.028  1.00  0.00    -0.227 NA 
HETATM    4  C   UNL     1      -9.624  18.777  68.851  1.00  0.00    -0.322 A  
HETATM    5  C   UNL     1      -9.351  17.469  68.481  1.00  0.00    -0.286 A  
HETATM    6  C   UNL     1      -7.114  17.952  68.439  1.00  0.00    -0.245 A  
HETATM    7  N   UNL     1      -8.083  17.019  68.256  1.00  0.00    -0.219 NA 
ENDROOT
BRANCH   5   8
HETATM    8  C   UNL     1     -10.473  16.497  68.357  1.00  0.00    -0.307 C  
HETATM    9  O   UNL     1     -10.978  16.257  67.266  1.00  0.00    -0.264 OA 
HETATM   10  N   UNL     1     -10.899  15.923  69.540  1.00  0.00    -0.278 N  
HETATM   11  H   UNL     1     -10.380  16.106  70.398  1.00  0.00     0.000 HD 
BRANCH  10  12
HETATM   12  C   UNL     1     -12.067  15.065  69.587  1.00  0.00    -0.300 C  
BRANCH  12  13
HETATM   13  C   UNL     1     -12.317  14.317  68.267  1.00  0.00    -0.024 C  
BRANCH  13  14
HETATM   14  C   UNL     1     -11.864  12.868  68.264  1.00  0.00    -0.372 A  
HETATM   15  C   UNL     1     -12.003  12.050  69.396  1.00  0.00    -0.334 A  
HETATM   16  C   UNL     1     -11.540  10.733  69.395  1.00  0.00    -0.380 A  
HETATM   17  C   UNL     1     -10.985  10.191  68.238  1.00  0.00    -0.248 A  
HETATM   18  C   UNL     1     -10.880  10.971  67.082  1.00  0.00    -0.336 A  
HETATM   19  C   UNL     1     -11.324  12.298  67.097  1.00  0.00    -0.398 A  
BRANCH  17  20
HETATM   20  S   UNL     1     -10.281   8.560  68.297  1.00  0.00    -0.202 S  
HETATM   21  O   UNL     1     -10.299   7.990  66.968  1.00  0.00    -0.291 OA 
HETATM   22  O   UNL     1     -10.911   7.860  69.400  1.00  0.00    -0.205 OA 
BRANCH  20  23
HETATM   23  N   UNL     1      -8.708   8.797  68.788  1.00  0.00    -0.136 N  
HETATM   24  H   UNL     1      -8.489   8.636  69.772  1.00  0.00     0.000 HD 
BRANCH  23  25
HETATM   25  C   UNL     1      -7.677   9.196  67.958  1.00  0.00    -0.092 C  
HETATM   26  O   UNL     1      -6.822  10.000  68.290  1.00  0.00    -0.062 OA 
BRANCH  25  27
HETATM   27  N   UNL     1      -7.697   8.586  66.735  1.00  0.00    -0.090 N  
HETATM   28  H   UNL     1      -8.218   7.718  66.613  1.00  0.00     0.000 HD 
BRANCH  27  29
HETATM   29  C   UNL     1      -6.981   9.164  65.601  1.00  0.00    -0.081 C  
HETATM   30  C   UNL     1      -6.572   8.087  64.590  1.00  0.00    -0.056 C  
HETATM   31  C   UNL     1      -7.741   7.579  63.748  1.00  0.00    -0.126 C  
HETATM   32  C   UNL     1      -8.496   8.724  63.081  1.00  0.00    -0.132 C  
HETATM   33  C   UNL     1      -8.953   9.764  64.098  1.00  0.00    -0.276 C  
HETATM   34  C   UNL     1      -7.785  10.287  64.933  1.00  0.00    -0.124 C  
ENDBRANCH  27  29
ENDBRANCH  25  27
ENDBRANCH  23  25
ENDBRANCH  20  23
ENDBRANCH  17  20
ENDBRANCH  13  14
ENDBRANCH  12  13
ENDBRANCH  10  12
ENDBRANCH   5   8
TORSDOF 9
ENDMDL
MODEL      271
REMARK 921   NORMALIZED FREE ENERGY PREDICTED BY IDOCK:   -3.98 KCAL/MOL
REMARK 922        TOTAL FREE ENERGY PREDICTED BY IDOCK:   -7.57 KCAL/MOL
REMARK 923 INTER-LIGAND FREE ENERGY PREDICTED BY IDOCK:   -7.51 KCAL/MOL
REMARK 924 INTRA-LIGAND FREE ENERGY PREDICTED BY IDOCK:   -0.07 KCAL/MOL
REMARK 927      BINDING AFFINITY PREDICTED BY RF-SCORE:    0.00 PKD
ROOT
HETATM    1  C   UNL     1      -7.439   7.540  62.665  1.00  0.00    -0.101 C  
HETATM    2  C   UNL     1      -8.147   8.756  63.172  1.00  0.00    -0.176 A  
HETATM    3  N   UNL     1      -8.158   9.854  62.376  1.00  0.00    -0.122 NA 
HETATM    4  C   UNL     1      -8.780  10.948  62.885  1.00  0.00    -0.213 A  
HETATM    5  C   UNL     1      -9.373  10.948  64.138  1.00  0.00    -0.234 A  
HETATM    6  C   UNL     1      -8.760   8.762  64.426  1.00  0.00    -0.019 A  
HETATM    7  N   UNL     1      -9.387   9.848  64.945  1.00  0.00    -0.251 NA 
ENDROOT
BRANCH   5   8
HETATM    8  C   UNL     1      -9.990  12.202  64.652  1.00  0.00    -0.202 C  
HETATM    9  O   UNL     1     -10.849  12.791  64.005  1.00  0.00    -0.376 OA 
HETATM   10  N   UNL     1      -9.515  12.646  65.872  1.00  0.00    -0.436 N  
HETATM   11  H   UNL     1      -8.860  12.064  66.393  1.00  0.00     0.000 HD 
BRANCH  10  12
HETATM   12  C   UNL     1      -9.926  13.921  66.426  1.00  0.00    -0.297 C  
BRANCH  12  13
HETATM   13  C   UNL     1     -11.369  13.908  66.958  1.00  0.00    -0.343 C  
BRANCH  13  14
HETATM   14  C   UNL     1     -11.650  12.843  68.003  1.00  0.00    -0.385 A  
HETATM   15  C   UNL     1     -11.899  13.175  69.343  1.00  0.00    -0.383 A  
HETATM   16  C   UNL     1     -12.110  12.184  70.303  1.00  0.00    -0.385 A  
HETATM   17  C   UNL     1     -12.137  10.843  69.926  1.00  0.00    -0.354 A  
HETATM   18  C   UNL     1     -11.941  10.490  68.587  1.00  0.00     0.088 A  
HETATM   19  C   UNL     1     -11.706  11.487  67.634  1.00  0.00    -0.283 A  
BRANCH  17  20
HETATM   20  S   UNL     1     -12.273   9.592  71.182  1.00  0.00    -0.342 S  
HETATM   21  O   UNL     1     -13.575   9.688  71.805  1.00  0.00    -0.379 OA 
HETATM   22  O   UNL     1     -11.071   9.661  71.990  1.00  0.00    -0.049 OA 
BRANCH  20  23
HETATM   23  N   UNL     1     -12.147   8.151  70.357  1.00  0.00    -0.436 N  
HETATM   24  H   UNL     1     -12.999   7.758  69.956  1.00  0.00     0.000 HD 
BRANCH  23  25
HETATM   25  C   UNL     1     -10.969   7.449  70.178  1.00  0.00    -0.255 C  
HETATM   26  O   UNL     1     -10.051   7.848  69.480  1.00  0.00    -0.186 OA 
BRANCH  25  27
HETATM   27  N   UNL     1     -10.925   6.275  70.876  1.00  0.00    -0.270 N  
HETATM   28  H   UNL     1     -10.948   5.388  70.374  1.00  0.00     0.000 HD 
BRANCH  27  29
HETATM   29  C   UNL     1     -10.845   6.277  72.334  1.00  0.00    -0.243 C  
HETATM   30  C   UNL     1     -10.589   4.869  72.883  1.00  0.00    -0.276 C  
HETATM   31  C   UNL     1      -9.149   4.399  72.683  1.00  0.00    -0.134 C  
HETATM   32  C   UNL     1      -8.145   5.410  73.228  1.00  0.00    -0.111 C  
HETATM   33  C   UNL     1      -8.365   6.797  72.635  1.00  0.00    -0.114 C  
HETATM   34  C   UNL     1      -9.799   7.278  72.845  1.00  0.00    -0.240 C  
ENDBRANCH  27  29
ENDBRANCH  25  27
ENDBRANCH  23  25
ENDBRANCH  20  23
ENDBRANCH  17  20
ENDBRANCH  13  14
ENDBRANCH  12  13
ENDBRANCH  10  12
ENDBRANCH   5   8
TORSDOF 9
ENDMDL
MODEL      272
REMARK 921   NORMALIZED FREE ENERGY PREDICTED BY IDOCK:   -3.98 KCAL/MOL
REMARK 922        TOTAL FREE ENERGY PREDICTED BY IDOCK:   -7.57 KCAL/MOL
REMARK 923 INTER-LIGAND FREE ENERGY PREDICTED BY IDOCK:   -6.50 KCAL/MOL
REMARK 924 INTRA-LIGAND FREE ENERGY PREDICTED BY IDOCK:   -1.07 KCAL/MOL
REMARK 927      BINDING AFFINITY PREDICTED BY RF-SCORE:    0.00 PKD
ROOT
HETATM    1  C   UNL     1      -9.095  19.007  66.909  1.00  0.00    -0.327 C  
HETATM    2  C   UNL     1      -9.691  17.803  66.252  1.00  0.00    -0.267 A  
HETATM    3  N   UNL     1     -10.651  18.007  65.317  1.00  0.00    -0.513 NA 
HETATM    4  C   UNL     1     -11.192  16.889  64.770  1.00  0.00     0.169 A  
HETATM    5  C   UNL     1     -10.789  15.614  65.135  1.00  0.00    -0.431 A  
HETATM    6  C   UNL     1      -9.281  16.516  66.603  1.00  0.00    -0.250 A  
HETATM    7  N   UNL     1      -9.813  15.389  66.061  1.00  0.00    -0.301 NA 
ENDROOT
BRANCH   5   8
HETATM    8  C   UNL     1     -11.466  14.433  64.530  1.00  0.00    -0.345 C  
HETATM    9  O   UNL     1     -12.366  14.578  63.710  1.00  0.00    -0.729 OA 
HETATM   10  N   UNL     1     -11.025  13.200  64.972  1.00  0.00    -0.293 N  
HETATM   11  H   UNL     1     -10.218  13.153  65.593  1.00  0.00     0.000 HD 
BRANCH  10  12
HETATM   12  C   UNL     1     -11.684  11.973  64.571  1.00  0.00    -0.305 C  
BRANCH  12  13
HETATM   13  C   UNL     1     -10.721  10.777  64.475  1.00  0.00    -0.147 C  
BRANCH  13  14
HETATM   14  C   UNL     1      -9.757  10.645  65.640  1.00  0.00    -0.283 A  
HETATM   15  C   UNL     1      -8.367  10.706  65.455  1.00  0.00    -0.142 A  
HETATM   16  C   UNL     1      -7.490  10.537  66.528  1.00  0.00    -0.128 A  
HETATM   17  C   UNL     1      -7.990  10.366  67.817  1.00  0.00    -0.102 A  
HETATM   18  C   UNL     1      -9.372  10.352  68.033  1.00  0.00    -0.145 A  
HETATM   19  C   UNL     1     -10.246  10.498  66.950  1.00  0.00    -0.280 A  
BRANCH  17  20
HETATM   20  S   UNL     1      -6.862  10.019  69.146  1.00  0.00    -0.061 S  
HETATM   21  O   UNL     1      -6.105  11.215  69.446  1.00  0.00    -0.056 OA 
HETATM   22  O   UNL     1      -6.175   8.785  68.815  1.00  0.00    -0.044 OA 
BRANCH  20  23
HETATM   23  N   UNL     1      -7.838   9.629  70.437  1.00  0.00    -0.165 N  
HETATM   24  H   UNL     1      -8.635  10.235  70.629  1.00  0.00     0.000 HD 
BRANCH  23  25
HETATM   25  C   UNL     1      -7.643   8.540  71.267  1.00  0.00    -0.101 C  
HETATM   26  O   UNL     1      -6.824   8.525  72.171  1.00  0.00    -0.086 OA 
BRANCH  25  27
HETATM   27  N   UNL     1      -8.474   7.490  70.990  1.00  0.00    -0.116 N  
HETATM   28  H   UNL     1      -9.449   7.528  71.286  1.00  0.00     0.000 HD 
BRANCH  27  29
HETATM   29  C   UNL     1      -7.979   6.317  70.277  1.00  0.00    -0.112 C  
HETATM   30  C   UNL     1      -7.531   5.219  71.248  1.00  0.00    -0.091 C  
HETATM   31  C   UNL     1      -8.698   4.481  71.900  1.00  0.00    -0.129 C  
HETATM   32  C   UNL     1      -9.682   3.951  70.863  1.00  0.00    -0.253 C  
HETATM   33  C   UNL     1     -10.172   5.057  69.936  1.00  0.00    -0.340 C  
HETATM   34  C   UNL     1      -9.009   5.789  69.268  1.00  0.00    -0.122 C  
ENDBRANCH  27  29
ENDBRANCH  25  27
ENDBRANCH  23  25
ENDBRANCH  20  23
ENDBRANCH  17  20
ENDBRANCH  13  14
ENDBRANCH  12  13
ENDBRANCH  10  12
ENDBRANCH   5   8
TORSDOF 9
ENDMDL
MODEL      273
REMARK 921   NORMALIZED FREE ENERGY PREDICTED BY IDOCK:   -3.98 KCAL/MOL
REMARK 922        TOTAL FREE ENERGY PREDICTED BY IDOCK:   -7.57 KCAL/MOL
REMARK 923 INTER-LIGAND FREE ENERGY PREDICTED BY IDOCK:   -5.49 KCAL/MOL
REMARK 924 INTRA-LIGAND FREE ENERGY PREDICTED BY IDOCK:   -2.08 KCAL/MOL
REMARK 927      BINDING AFFINITY PREDICTED BY RF-SCORE:    0.00 PKD
ROOT
HETATM    1  C   UNL     1     -11.106  16.833  67.651  1.00  0.00    -0.089 C  
HETATM    2  C   UNL     1     -11.127  15.355  67.877  1.00  0.00    -0.323 A  
HETATM    3  N   UNL     1     -11.745  14.898  68.995  1.00  0.00    -0.307 NA 
HETATM    4  C   UNL     1     -11.712  13.554  69.181  1.00  0.00    -0.327 A  
HETATM    5  C   UNL     1     -11.093  12.695  68.286  1.00  0.00    -0.261 A  
HETATM    6  C   UNL     1     -10.519  14.481  66.974  1.00  0.00    -0.268 A  
HETATM    7  N   UNL     1     -10.482  13.134  67.148  1.00  0.00    -0.246 NA 
ENDROOT
BRANCH   5   8
HETATM    8  C   UNL     1     -11.051  11.236  68.585  1.00  0.00    -0.232 C  
HETATM    9  O   UNL     1     -12.007  10.514  68.323  1.00  0.00    -0.377 OA 
HETATM   10  N   UNL     1      -9.892  10.782  69.184  1.00  0.00    -0.308 N  
HETATM   11  H   UNL     1      -9.106  11.421  69.298  1.00  0.00     0.000 HD 
BRANCH  10  12
HETATM   12  C   UNL     1      -9.767   9.415  69.653  1.00  0.00    -0.190 C  
BRANCH  12  13
HETATM   13  C   UNL     1     -10.253   9.230  71.100  1.00  0.00    -0.387 C  
BRANCH  13  14
HETATM   14  C   UNL     1     -10.189   7.802  71.611  1.00  0.00    -0.225 A  
HETATM   15  C   UNL     1      -9.415   7.454  72.729  1.00  0.00    -0.207 A  
HETATM   16  C   UNL     1      -9.329   6.129  73.161  1.00  0.00    -0.138 A  
HETATM   17  C   UNL     1     -10.066   5.138  72.519  1.00  0.00    -0.180 A  
HETATM   18  C   UNL     1     -10.884   5.467  71.433  1.00  0.00    -0.256 A  
HETATM   19  C   UNL     1     -10.947   6.793  70.989  1.00  0.00    -0.297 A  
BRANCH  17  20
HETATM   20  S   UNL     1      -9.839   3.441  72.998  1.00  0.00    -0.143 S  
HETATM   21  O   UNL     1     -10.591   2.592  72.100  1.00  0.00    -0.012 OA 
HETATM   22  O   UNL     1     -10.061   3.366  74.430  1.00  0.00    -0.129 OA 
BRANCH  20  23
HETATM   23  N   UNL     1      -8.209   3.163  72.807  1.00  0.00    -0.074 N  
HETATM   24  H   UNL     1      -7.585   3.470  73.553  1.00  0.00     0.000 HD 
BRANCH  23  25
HETATM   25  C   UNL     1      -7.641   2.546  71.707  1.00  0.00    -0.041 C  
HETATM   26  O   UNL     1      -6.905   1.576  71.788  1.00  0.00    -0.018 OA 
BRANCH  25  27
HETATM   27  N   UNL     1      -8.002   3.116  70.518  1.00  0.00    -0.043 N  
HETATM   28  H   UNL     1      -8.989   3.179  70.268  1.00  0.00     0.000 HD 
BRANCH  27  29
HETATM   29  C   UNL     1      -6.991   3.635  69.602  1.00  0.00    -0.042 C  
HETATM   30  C   UNL     1      -7.571   3.872  68.203  1.00  0.00    -0.066 C  
HETATM   31  C   UNL     1      -8.455   5.114  68.123  1.00  0.00    -0.099 C  
HETATM   32  C   UNL     1      -7.741   6.351  68.656  1.00  0.00    -0.101 C  
HETATM   33  C   UNL     1      -7.218   6.132  70.071  1.00  0.00    -0.073 C  
HETATM   34  C   UNL     1      -6.319   4.900  70.154  1.00  0.00    -0.026 C  
ENDBRANCH  27  29
ENDBRANCH  25  27
ENDBRANCH  23  25
ENDBRANCH  20  23
ENDBRANCH  17  20
ENDBRANCH  13  14
ENDBRANCH  12  13
ENDBRANCH  10  12
ENDBRANCH   5   8
TORSDOF 9
ENDMDL
MODEL      274
REMARK 921   NORMALIZED FREE ENERGY PREDICTED BY IDOCK:   -3.97 KCAL/MOL
REMARK 922        TOTAL FREE ENERGY PREDICTED BY IDOCK:   -7.56 KCAL/MOL
REMARK 923 INTER-LIGAND FREE ENERGY PREDICTED BY IDOCK:   -5.70 KCAL/MOL
REMARK 924 INTRA-LIGAND FREE ENERGY PREDICTED BY IDOCK:   -1.86 KCAL/MOL
REMARK 927      BINDING AFFINITY PREDICTED BY RF-SCORE:    0.00 PKD
ROOT
HETATM    1  C   UNL     1     -12.392  12.477  63.387  1.00  0.00    -0.577 C  
HETATM    2  C   UNL     1     -11.238  12.356  64.331  1.00  0.00    -0.332 A  
HETATM    3  N   UNL     1     -10.545  11.189  64.330  1.00  0.00    -0.357 NA 
HETATM    4  C   UNL     1      -9.527  11.105  65.224  1.00  0.00    -0.226 A  
HETATM    5  C   UNL     1      -9.206  12.145  66.083  1.00  0.00    -0.155 A  
HETATM    6  C   UNL     1     -10.898  13.401  65.189  1.00  0.00    -0.313 A  
HETATM    7  N   UNL     1      -9.880  13.331  66.086  1.00  0.00    -0.287 NA 
ENDROOT
BRANCH   5   8
HETATM    8  C   UNL     1      -8.110  11.959  67.074  1.00  0.00    -0.167 C  
HETATM    9  O   UNL     1      -7.399  12.901  67.408  1.00  0.00    -0.149 OA 
HETATM   10  N   UNL     1      -7.949  10.674  67.555  1.00  0.00    -0.109 N  
HETATM   11  H   UNL     1      -8.627   9.957  67.296  1.00  0.00     0.000 HD 
BRANCH  10  12
HETATM   12  C   UNL     1      -6.840  10.321  68.418  1.00  0.00    -0.061 C  
BRANCH  12  13
HETATM   13  C   UNL     1      -7.165  10.483  69.912  1.00  0.00    -0.136 C  
BRANCH  13  14
HETATM   14  C   UNL     1      -7.740   9.243  70.573  1.00  0.00    -0.160 A  
HETATM   15  C   UNL     1      -6.915   8.223  71.068  1.00  0.00    -0.054 A  
HETATM   16  C   UNL     1      -7.457   7.067  71.632  1.00  0.00    -0.088 A  
HETATM   17  C   UNL     1      -8.838   6.940  71.768  1.00  0.00    -0.131 A  
HETATM   18  C   UNL     1      -9.680   7.965  71.327  1.00  0.00    -0.187 A  
HETATM   19  C   UNL     1      -9.131   9.111  70.740  1.00  0.00    -0.313 A  
BRANCH  17  20
HETATM   20  S   UNL     1      -9.513   5.407  72.364  1.00  0.00    -0.143 S  
HETATM   21  O   UNL     1     -10.508   5.691  73.375  1.00  0.00    -0.208 OA 
HETATM   22  O   UNL     1      -8.395   4.534  72.666  1.00  0.00    -0.106 OA 
BRANCH  20  23
HETATM   23  N   UNL     1     -10.240   4.720  71.033  1.00  0.00    -0.200 N  
HETATM   24  H   UNL     1     -11.233   4.907  70.886  1.00  0.00     0.000 HD 
BRANCH  23  25
HETATM   25  C   UNL     1      -9.595   3.914  70.114  1.00  0.00    -0.197 C  
HETATM   26  O   UNL     1      -9.707   2.699  70.092  1.00  0.00    -0.083 OA 
BRANCH  25  27
HETATM   27  N   UNL     1      -8.835   4.613  69.218  1.00  0.00    -0.086 N  
HETATM   28  H   UNL     1      -7.854   4.366  69.088  1.00  0.00     0.000 HD 
BRANCH  27  29
HETATM   29  C   UNL     1      -9.413   5.708  68.444  1.00  0.00    -0.121 C  
HETATM   30  C   UNL     1      -8.328   6.649  67.909  1.00  0.00    -0.119 C  
HETATM   31  C   UNL     1      -7.554   6.063  66.730  1.00  0.00    -0.095 C  
HETATM   32  C   UNL     1      -8.488   5.589  65.621  1.00  0.00    -0.141 C  
HETATM   33  C   UNL     1      -9.529   4.606  66.146  1.00  0.00    -0.169 C  
HETATM   34  C   UNL     1     -10.317   5.192  67.316  1.00  0.00    -0.225 C  
ENDBRANCH  27  29
ENDBRANCH  25  27
ENDBRANCH  23  25
ENDBRANCH  20  23
ENDBRANCH  17  20
ENDBRANCH  13  14
ENDBRANCH  12  13
ENDBRANCH  10  12
ENDBRANCH   5   8
TORSDOF 9
ENDMDL
MODEL      275
REMARK 921   NORMALIZED FREE ENERGY PREDICTED BY IDOCK:   -3.94 KCAL/MOL
REMARK 922        TOTAL FREE ENERGY PREDICTED BY IDOCK:   -7.51 KCAL/MOL
REMARK 923 INTER-LIGAND FREE ENERGY PREDICTED BY IDOCK:   -6.33 KCAL/MOL
REMARK 924 INTRA-LIGAND FREE ENERGY PREDICTED BY IDOCK:   -1.18 KCAL/MOL
REMARK 927      BINDING AFFINITY PREDICTED BY RF-SCORE:    0.00 PKD
ROOT
HETATM    1  C   UNL     1     -12.203  15.106  70.280  1.00  0.00    -0.395 C  
HETATM    2  C   UNL     1     -12.532  13.739  70.791  1.00  0.00    -0.370 A  
HETATM    3  N   UNL     1     -13.346  13.651  71.872  1.00  0.00    -0.397 NA 
HETATM    4  C   UNL     1     -13.593  12.396  72.326  1.00  0.00    -0.269 A  
HETATM    5  C   UNL     1     -13.055  11.269  71.724  1.00  0.00    -0.422 A  
HETATM    6  C   UNL     1     -12.007  12.598  70.183  1.00  0.00    -0.299 A  
HETATM    7  N   UNL     1     -12.248  11.337  70.626  1.00  0.00    -0.374 NA 
ENDROOT
BRANCH   5   8
HETATM    8  C   UNL     1     -13.327   9.928  72.311  1.00  0.00    -0.334 C  
HETATM    9  O   UNL     1     -14.409   9.679  72.832  1.00  0.00    -0.139 OA 
HETATM   10  N   UNL     1     -12.285   9.023  72.244  1.00  0.00    -0.347 N  
HETATM   11  H   UNL     1     -11.443   9.270  71.725  1.00  0.00     0.000 HD 
BRANCH  10  12
HETATM   12  C   UNL     1     -12.363   7.729  72.894  1.00  0.00     0.274 C  
BRANCH  12  13
HETATM   13  C   UNL     1     -12.283   6.554  71.906  1.00  0.00    -0.373 C  
BRANCH  13  14
HETATM   14  C   UNL     1     -11.087   6.592  70.972  1.00  0.00    -0.330 A  
HETATM   15  C   UNL     1      -9.837   7.069  71.395  1.00  0.00    -0.180 A  
HETATM   16  C   UNL     1      -8.757   7.142  70.513  1.00  0.00    -0.149 A  
HETATM   17  C   UNL     1      -8.893   6.679  69.206  1.00  0.00    -0.133 A  
HETATM   18  C   UNL     1     -10.115   6.154  68.774  1.00  0.00    -0.205 A  
HETATM   19  C   UNL     1     -11.200   6.106  69.657  1.00  0.00    -0.488 A  
BRANCH  17  20
HETATM   20  S   UNL     1      -7.550   6.904  68.063  1.00  0.00    -0.109 S  
HETATM   21  O   UNL     1      -7.717   5.991  66.954  1.00  0.00    -0.098 OA 
HETATM   22  O   UNL     1      -6.322   6.896  68.836  1.00  0.00    -0.026 OA 
BRANCH  20  23
HETATM   23  N   UNL     1      -7.706   8.474  67.532  1.00  0.00    -0.098 N  
HETATM   24  H   UNL     1      -6.862   9.045  67.488  1.00  0.00     0.000 HD 
BRANCH  23  25
HETATM   25  C   UNL     1      -8.899   9.058  67.149  1.00  0.00    -0.119 C  
HETATM   26  O   UNL     1      -9.698   8.520  66.400  1.00  0.00    -0.235 OA 
BRANCH  25  27
HETATM   27  N   UNL     1      -9.105  10.289  67.706  1.00  0.00    -0.134 N  
HETATM   28  H   UNL     1      -9.359  10.360  68.691  1.00  0.00     0.000 HD 
BRANCH  27  29
HETATM   29  C   UNL     1      -8.965  11.503  66.907  1.00  0.00    -0.179 C  
HETATM   30  C   UNL     1      -9.227  12.759  67.746  1.00  0.00    -0.199 C  
HETATM   31  C   UNL     1      -8.075  13.102  68.689  1.00  0.00    -0.014 C  
HETATM   32  C   UNL     1      -6.745  13.183  67.948  1.00  0.00    -0.138 C  
HETATM   33  C   UNL     1      -6.459  11.908  67.162  1.00  0.00    -0.146 C  
HETATM   34  C   UNL     1      -7.602  11.569  66.206  1.00  0.00     0.098 C  
ENDBRANCH  27  29
ENDBRANCH  25  27
ENDBRANCH  23  25
ENDBRANCH  20  23
ENDBRANCH  17  20
ENDBRANCH  13  14
ENDBRANCH  12  13
ENDBRANCH  10  12
ENDBRANCH   5   8
TORSDOF 9
ENDMDL
MODEL      276
REMARK 921   NORMALIZED FREE ENERGY PREDICTED BY IDOCK:   -3.88 KCAL/MOL
REMARK 922        TOTAL FREE ENERGY PREDICTED BY IDOCK:   -7.41 KCAL/MOL
REMARK 923 INTER-LIGAND FREE ENERGY PREDICTED BY IDOCK:   -7.32 KCAL/MOL
REMARK 924 INTRA-LIGAND FREE ENERGY PREDICTED BY IDOCK:   -0.09 KCAL/MOL
REMARK 927      BINDING AFFINITY PREDICTED BY RF-SCORE:    0.00 PKD
ROOT
HETATM    1  C   UNL     1      -9.103  15.981  65.897  1.00  0.00    -0.292 C  
HETATM    2  C   UNL     1      -9.797  14.998  66.785  1.00  0.00    -0.243 A  
HETATM    3  N   UNL     1      -9.184  13.809  67.007  1.00  0.00    -0.242 NA 
HETATM    4  C   UNL     1      -9.861  12.931  67.790  1.00  0.00    -0.221 A  
HETATM    5  C   UNL     1     -11.100  13.227  68.338  1.00  0.00    -0.270 A  
HETATM    6  C   UNL     1     -11.037  15.293  67.353  1.00  0.00    -0.326 A  
HETATM    7  N   UNL     1     -11.723  14.424  68.140  1.00  0.00    -0.330 NA 
ENDROOT
BRANCH   5   8
HETATM    8  C   UNL     1     -11.807  12.193  69.143  1.00  0.00    -0.305 C  
HETATM    9  O   UNL     1     -12.318  11.218  68.604  1.00  0.00    -0.534 OA 
HETATM   10  N   UNL     1     -11.857  12.427  70.504  1.00  0.00    -0.525 N  
HETATM   11  H   UNL     1     -11.341  13.215  70.894  1.00  0.00     0.000 HD 
BRANCH  10  12
HETATM   12  C   UNL     1     -12.628  11.577  71.391  1.00  0.00    -0.314 C  
BRANCH  12  13
HETATM   13  C   UNL     1     -13.010  10.232  70.752  1.00  0.00    -0.408 C  
BRANCH  13  14
HETATM   14  C   UNL     1     -12.285   9.028  71.328  1.00  0.00    -0.373 A  
HETATM   15  C   UNL     1     -12.911   7.778  71.442  1.00  0.00    -0.328 A  
HETATM   16  C   UNL     1     -12.249   6.691  72.015  1.00  0.00    -0.337 A  
HETATM   17  C   UNL     1     -10.925   6.821  72.429  1.00  0.00    -0.246 A  
HETATM   18  C   UNL     1     -10.264   8.044  72.281  1.00  0.00    -0.325 A  
HETATM   19  C   UNL     1     -10.941   9.137  71.727  1.00  0.00    -0.429 A  
BRANCH  17  20
HETATM   20  S   UNL     1     -10.145   5.467  73.277  1.00  0.00    -0.195 S  
HETATM   21  O   UNL     1     -10.841   5.227  74.522  1.00  0.00    -0.277 OA 
HETATM   22  O   UNL     1      -8.718   5.725  73.278  1.00  0.00    -0.119 OA 
BRANCH  20  23
HETATM   23  N   UNL     1     -10.340   4.164  72.261  1.00  0.00    -0.161 N  
HETATM   24  H   UNL     1     -10.766   4.333  71.349  1.00  0.00     0.000 HD 
BRANCH  23  25
HETATM   25  C   UNL     1      -9.964   2.868  72.564  1.00  0.00    -0.159 C  
HETATM   26  O   UNL     1     -10.443   1.886  72.019  1.00  0.00    -0.136 OA 
BRANCH  25  27
HETATM   27  N   UNL     1      -8.989   2.794  73.519  1.00  0.00    -0.081 N  
HETATM   28  H   UNL     1      -9.101   3.304  74.395  1.00  0.00     0.000 HD 
BRANCH  27  29
HETATM   29  C   UNL     1      -7.789   1.993  73.299  1.00  0.00    -0.042 C  
HETATM   30  C   UNL     1      -7.342   2.045  71.833  1.00  0.00    -0.039 C  
HETATM   31  C   UNL     1      -6.676   3.367  71.455  1.00  0.00    -0.026 C  
HETATM   32  C   UNL     1      -5.537   3.717  72.407  1.00  0.00    -0.007 C  
HETATM   33  C   UNL     1      -6.000   3.723  73.859  1.00  0.00    -0.011 C  
HETATM   34  C   UNL     1      -6.652   2.398  74.247  1.00  0.00    -0.021 C  
ENDBRANCH  27  29
ENDBRANCH  25  27
ENDBRANCH  23  25
ENDBRANCH  20  23
ENDBRANCH  17  20
ENDBRANCH  13  14
ENDBRANCH  12  13
ENDBRANCH  10  12
ENDBRANCH   5   8
TORSDOF 9
ENDMDL
MODEL      277
REMARK 921   NORMALIZED FREE ENERGY PREDICTED BY IDOCK:   -3.88 KCAL/MOL
REMARK 922        TOTAL FREE ENERGY PREDICTED BY IDOCK:   -7.41 KCAL/MOL
REMARK 923 INTER-LIGAND FREE ENERGY PREDICTED BY IDOCK:   -5.43 KCAL/MOL
REMARK 924 INTRA-LIGAND FREE ENERGY PREDICTED BY IDOCK:   -1.99 KCAL/MOL
REMARK 927      BINDING AFFINITY PREDICTED BY RF-SCORE:    0.00 PKD
ROOT
HETATM    1  C   UNL     1      -5.962   8.892  72.387  1.00  0.00    -0.057 C  
HETATM    2  C   UNL     1      -6.055   9.461  71.007  1.00  0.00    -0.073 A  
HETATM    3  N   UNL     1      -6.352  10.779  70.889  1.00  0.00    -0.336 NA 
HETATM    4  C   UNL     1      -6.462  11.250  69.621  1.00  0.00    -0.132 A  
HETATM    5  C   UNL     1      -6.278  10.441  68.510  1.00  0.00    -0.047 A  
HETATM    6  C   UNL     1      -5.856   8.658  69.883  1.00  0.00    -0.028 A  
HETATM    7  N   UNL     1      -5.961   9.118  68.609  1.00  0.00    -0.044 NA 
ENDROOT
BRANCH   5   8
HETATM    8  C   UNL     1      -6.467  11.016  67.150  1.00  0.00    -0.084 C  
HETATM    9  O   UNL     1      -6.901  12.154  67.004  1.00  0.00    -0.137 OA 
HETATM   10  N   UNL     1      -6.146  10.180  66.097  1.00  0.00    -0.073 N  
HETATM   11  H   UNL     1      -5.714   9.277  66.292  1.00  0.00     0.000 HD 
BRANCH  10  12
HETATM   12  C   UNL     1      -6.408  10.558  64.722  1.00  0.00    -0.010 C  
BRANCH  12  13
HETATM   13  C   UNL     1      -7.535   9.735  64.077  1.00  0.00    -0.130 C  
BRANCH  13  14
HETATM   14  C   UNL     1      -8.179   8.712  64.996  1.00  0.00    -0.159 A  
HETATM   15  C   UNL     1      -7.663   7.414  65.129  1.00  0.00    -0.112 A  
HETATM   16  C   UNL     1      -8.292   6.469  65.942  1.00  0.00    -0.140 A  
HETATM   17  C   UNL     1      -9.414   6.827  66.686  1.00  0.00    -0.165 A  
HETATM   18  C   UNL     1      -9.918   8.129  66.609  1.00  0.00    -0.339 A  
HETATM   19  C   UNL     1      -9.297   9.065  65.773  1.00  0.00    -0.302 A  
BRANCH  17  20
HETATM   20  S   UNL     1     -10.276   5.576  67.609  1.00  0.00    -0.190 S  
HETATM   21  O   UNL     1     -10.485   4.423  66.760  1.00  0.00    -0.080 OA 
HETATM   22  O   UNL     1     -11.404   6.220  68.256  1.00  0.00    -0.289 OA 
BRANCH  20  23
HETATM   23  N   UNL     1      -9.243   5.182  68.853  1.00  0.00    -0.113 N  
HETATM   24  H   UNL     1      -8.862   4.235  68.871  1.00  0.00     0.000 HD 
BRANCH  23  25
HETATM   25  C   UNL     1      -8.865   6.046  69.864  1.00  0.00    -0.138 C  
HETATM   26  O   UNL     1      -7.768   6.014  70.398  1.00  0.00    -0.092 OA 
BRANCH  25  27
HETATM   27  N   UNL     1      -9.832   6.955  70.192  1.00  0.00    -0.177 N  
HETATM   28  H   UNL     1     -10.802   6.773  69.935  1.00  0.00     0.000 HD 
BRANCH  27  29
HETATM   29  C   UNL     1      -9.491   8.182  70.906  1.00  0.00    -0.162 C  
HETATM   30  C   UNL     1      -9.727   9.420  70.034  1.00  0.00    -0.255 C  
HETATM   31  C   UNL     1     -11.205   9.775  69.882  1.00  0.00    -0.271 C  
HETATM   32  C   UNL     1     -11.898   9.896  71.234  1.00  0.00    -0.479 C  
HETATM   33  C   UNL     1     -11.712   8.638  72.075  1.00  0.00    -0.439 C  
HETATM   34  C   UNL     1     -10.235   8.287  72.244  1.00  0.00    -0.375 C  
ENDBRANCH  27  29
ENDBRANCH  25  27
ENDBRANCH  23  25
ENDBRANCH  20  23
ENDBRANCH  17  20
ENDBRANCH  13  14
ENDBRANCH  12  13
ENDBRANCH  10  12
ENDBRANCH   5   8
TORSDOF 9
ENDMDL
MODEL      278
REMARK 921   NORMALIZED FREE ENERGY PREDICTED BY IDOCK:   -3.87 KCAL/MOL
REMARK 922        TOTAL FREE ENERGY PREDICTED BY IDOCK:   -7.40 KCAL/MOL
REMARK 923 INTER-LIGAND FREE ENERGY PREDICTED BY IDOCK:   -6.34 KCAL/MOL
REMARK 924 INTRA-LIGAND FREE ENERGY PREDICTED BY IDOCK:   -1.07 KCAL/MOL
REMARK 927      BINDING AFFINITY PREDICTED BY RF-SCORE:    0.00 PKD
ROOT
HETATM    1  C   UNL     1      -7.762   1.507  63.611  1.00  0.00    -0.059 C  
HETATM    2  C   UNL     1      -8.402   2.573  64.442  1.00  0.00    -0.083 A  
HETATM    3  N   UNL     1      -7.797   2.909  65.609  1.00  0.00    -0.084 NA 
HETATM    4  C   UNL     1      -8.426   3.854  66.351  1.00  0.00    -0.109 A  
HETATM    5  C   UNL     1      -9.611   4.450  65.946  1.00  0.00    -0.188 A  
HETATM    6  C   UNL     1      -9.587   3.189  64.036  1.00  0.00    -0.140 A  
HETATM    7  N   UNL     1     -10.224   4.138  64.768  1.00  0.00    -0.215 NA 
ENDROOT
BRANCH   5   8
HETATM    8  C   UNL     1     -10.271   5.442  66.839  1.00  0.00    -0.240 C  
HETATM    9  O   UNL     1     -11.391   5.870  66.582  1.00  0.00    -0.057 OA 
HETATM   10  N   UNL     1      -9.533   5.844  67.935  1.00  0.00    -0.110 N  
HETATM   11  H   UNL     1      -8.643   5.386  68.132  1.00  0.00     0.000 HD 
BRANCH  10  12
HETATM   12  C   UNL     1      -9.994   6.903  68.812  1.00  0.00    -0.153 C  
BRANCH  12  13
HETATM   13  C   UNL     1      -8.925   7.977  69.071  1.00  0.00    -0.145 C  
BRANCH  13  14
HETATM   14  C   UNL     1      -9.375   9.400  68.790  1.00  0.00    -0.146 A  
HETATM   15  C   UNL     1      -8.586  10.288  68.043  1.00  0.00    -0.118 A  
HETATM   16  C   UNL     1      -8.990  11.607  67.831  1.00  0.00    -0.170 A  
HETATM   17  C   UNL     1     -10.224  12.043  68.310  1.00  0.00    -0.206 A  
HETATM   18  C   UNL     1     -11.050  11.162  69.014  1.00  0.00    -0.299 A  
HETATM   19  C   UNL     1     -10.628   9.848  69.245  1.00  0.00    -0.245 A  
BRANCH  17  20
HETATM   20  S   UNL     1     -10.660  13.759  68.146  1.00  0.00    -0.260 S  
HETATM   21  O   UNL     1     -11.995  13.958  68.665  1.00  0.00    -0.353 OA 
HETATM   22  O   UNL     1     -10.338  14.156  66.788  1.00  0.00    -0.269 OA 
BRANCH  20  23
HETATM   23  N   UNL     1      -9.558  14.567  69.096  1.00  0.00    -0.392 N  
HETATM   24  H   UNL     1      -9.707  14.560  70.105  1.00  0.00     0.000 HD 
BRANCH  23  25
HETATM   25  C   UNL     1      -8.454  15.247  68.614  1.00  0.00    -0.168 C  
HETATM   26  O   UNL     1      -7.354  14.733  68.486  1.00  0.00    -0.107 OA 
BRANCH  25  27
HETATM   27  N   UNL     1      -8.720  16.544  68.276  1.00  0.00    -0.202 N  
HETATM   28  H   UNL     1      -9.233  17.139  68.926  1.00  0.00     0.000 HD 
BRANCH  27  29
HETATM   29  C   UNL     1      -8.278  17.086  66.994  1.00  0.00    -0.204 C  
HETATM   30  C   UNL     1      -9.469  17.484  66.115  1.00  0.00    -0.182 C  
HETATM   31  C   UNL     1     -10.143  18.778  66.567  1.00  0.00    -0.437 C  
HETATM   32  C   UNL     1      -9.140  19.917  66.710  1.00  0.00    -0.460 C  
HETATM   33  C   UNL     1      -7.987  19.538  67.634  1.00  0.00    -0.320 C  
HETATM   34  C   UNL     1      -7.299  18.253  67.177  1.00  0.00    -0.215 C  
ENDBRANCH  27  29
ENDBRANCH  25  27
ENDBRANCH  23  25
ENDBRANCH  20  23
ENDBRANCH  17  20
ENDBRANCH  13  14
ENDBRANCH  12  13
ENDBRANCH  10  12
ENDBRANCH   5   8
TORSDOF 9
ENDMDL
MODEL      279
REMARK 921   NORMALIZED FREE ENERGY PREDICTED BY IDOCK:   -3.85 KCAL/MOL
REMARK 922        TOTAL FREE ENERGY PREDICTED BY IDOCK:   -7.37 KCAL/MOL
REMARK 923 INTER-LIGAND FREE ENERGY PREDICTED BY IDOCK:   -6.12 KCAL/MOL
REMARK 924 INTRA-LIGAND FREE ENERGY PREDICTED BY IDOCK:   -1.25 KCAL/MOL
REMARK 927      BINDING AFFINITY PREDICTED BY RF-SCORE:    0.00 PKD
ROOT
HETATM    1  C   UNL     1     -12.389  13.013  63.356  1.00  0.00    -0.478 C  
HETATM    2  C   UNL     1     -11.416  13.220  64.473  1.00  0.00    -0.365 A  
HETATM    3  N   UNL     1     -10.690  12.149  64.880  1.00  0.00    -0.283 NA 
HETATM    4  C   UNL     1      -9.843  12.369  65.918  1.00  0.00    -0.252 A  
HETATM    5  C   UNL     1      -9.720  13.609  66.525  1.00  0.00    -0.292 A  
HETATM    6  C   UNL     1     -11.274  14.468  65.081  1.00  0.00    -0.367 A  
HETATM    7  N   UNL     1     -10.429  14.701  66.118  1.00  0.00    -0.292 NA 
ENDROOT
BRANCH   5   8
HETATM    8  C   UNL     1      -8.809  13.761  67.694  1.00  0.00    -0.189 C  
HETATM    9  O   UNL     1      -9.051  14.577  68.576  1.00  0.00    -0.182 OA 
HETATM   10  N   UNL     1      -7.693  12.947  67.692  1.00  0.00    -0.148 N  
HETATM   11  H   UNL     1      -7.597  12.234  66.969  1.00  0.00     0.000 HD 
BRANCH  10  12
HETATM   12  C   UNL     1      -6.654  13.083  68.694  1.00  0.00    -0.092 C  
BRANCH  12  13
HETATM   13  C   UNL     1      -5.908  11.767  68.970  1.00  0.00    -0.054 C  
BRANCH  13  14
HETATM   14  C   UNL     1      -6.677  10.512  68.595  1.00  0.00    -0.053 A  
HETATM   15  C   UNL     1      -6.416   9.818  67.404  1.00  0.00    -0.069 A  
HETATM   16  C   UNL     1      -7.162   8.692  67.048  1.00  0.00    -0.076 A  
HETATM   17  C   UNL     1      -8.141   8.205  67.910  1.00  0.00    -0.128 A  
HETATM   18  C   UNL     1      -8.386   8.850  69.126  1.00  0.00    -0.124 A  
HETATM   19  C   UNL     1      -7.651   9.993  69.466  1.00  0.00    -0.133 A  
BRANCH  17  20
HETATM   20  S   UNL     1      -9.168   6.854  67.380  1.00  0.00    -0.126 S  
HETATM   21  O   UNL     1      -8.835   6.517  66.013  1.00  0.00    -0.152 OA 
HETATM   22  O   UNL     1     -10.533   7.186  67.738  1.00  0.00    -0.191 OA 
BRANCH  20  23
HETATM   23  N   UNL     1      -8.760   5.593  68.388  1.00  0.00    -0.110 N  
HETATM   24  H   UNL     1      -7.773   5.466  68.612  1.00  0.00     0.000 HD 
BRANCH  23  25
HETATM   25  C   UNL     1      -9.665   4.706  68.941  1.00  0.00    -0.166 C  
HETATM   26  O   UNL     1      -9.897   3.604  68.471  1.00  0.00    -0.065 OA 
BRANCH  25  27
HETATM   27  N   UNL     1     -10.258   5.175  70.080  1.00  0.00    -0.270 N  
HETATM   28  H   UNL     1     -11.245   5.432  70.065  1.00  0.00     0.000 HD 
BRANCH  27  29
HETATM   29  C   UNL     1      -9.494   5.312  71.317  1.00  0.00    -0.151 C  
HETATM   30  C   UNL     1     -10.289   6.072  72.384  1.00  0.00    -0.224 C  
HETATM   31  C   UNL     1     -11.397   5.234  73.019  1.00  0.00    -0.376 C  
HETATM   32  C   UNL     1     -10.867   3.905  73.547  1.00  0.00    -0.330 C  
HETATM   33  C   UNL     1     -10.129   3.124  72.466  1.00  0.00    -0.231 C  
HETATM   34  C   UNL     1      -9.009   3.952  71.839  1.00  0.00    -0.153 C  
ENDBRANCH  27  29
ENDBRANCH  25  27
ENDBRANCH  23  25
ENDBRANCH  20  23
ENDBRANCH  17  20
ENDBRANCH  13  14
ENDBRANCH  12  13
ENDBRANCH  10  12
ENDBRANCH   5   8
TORSDOF 9
ENDMDL
MODEL      280
REMARK 921   NORMALIZED FREE ENERGY PREDICTED BY IDOCK:   -3.85 KCAL/MOL
REMARK 922        TOTAL FREE ENERGY PREDICTED BY IDOCK:   -7.37 KCAL/MOL
REMARK 923 INTER-LIGAND FREE ENERGY PREDICTED BY IDOCK:   -5.79 KCAL/MOL
REMARK 924 INTRA-LIGAND FREE ENERGY PREDICTED BY IDOCK:   -1.57 KCAL/MOL
REMARK 927      BINDING AFFINITY PREDICTED BY RF-SCORE:    0.00 PKD
ROOT
HETATM    1  C   UNL     1      -6.000   6.640  67.640  1.00  0.00    -0.024 C  
HETATM    2  C   UNL     1      -5.897   7.961  68.334  1.00  0.00    -0.036 A  
HETATM    3  N   UNL     1      -5.670   7.952  69.672  1.00  0.00    -0.023 NA 
HETATM    4  C   UNL     1      -5.618   9.169  70.271  1.00  0.00    -0.031 A  
HETATM    5  C   UNL     1      -5.780  10.352  69.566  1.00  0.00    -0.038 A  
HETATM    6  C   UNL     1      -6.044   9.157  67.631  1.00  0.00    -0.054 A  
HETATM    7  N   UNL     1      -5.991  10.381  68.218  1.00  0.00    -0.040 NA 
ENDROOT
BRANCH   5   8
HETATM    8  C   UNL     1      -5.764  11.647  70.300  1.00  0.00    -0.152 C  
HETATM    9  O   UNL     1      -5.651  11.675  71.521  1.00  0.00    -0.366 OA 
HETATM   10  N   UNL     1      -5.903  12.779  69.520  1.00  0.00    -0.096 N  
HETATM   11  H   UNL     1      -5.910  12.686  68.504  1.00  0.00     0.000 HD 
BRANCH  10  12
HETATM   12  C   UNL     1      -6.041  14.095  70.112  1.00  0.00    -0.158 C  
BRANCH  12  13
HETATM   13  C   UNL     1      -6.807  15.081  69.215  1.00  0.00    -0.149 C  
BRANCH  13  14
HETATM   14  C   UNL     1      -8.039  14.500  68.544  1.00  0.00    -0.148 A  
HETATM   15  C   UNL     1      -9.280  14.452  69.198  1.00  0.00     0.076 A  
HETATM   16  C   UNL     1     -10.394  13.874  68.588  1.00  0.00    -0.237 A  
HETATM   17  C   UNL     1     -10.301  13.389  67.285  1.00  0.00    -0.244 A  
HETATM   18  C   UNL     1      -9.088  13.471  66.594  1.00  0.00    -0.182 A  
HETATM   19  C   UNL     1      -7.968  14.030  67.221  1.00  0.00    -0.157 A  
BRANCH  17  20
HETATM   20  S   UNL     1     -11.691  12.538  66.576  1.00  0.00    -0.366 S  
HETATM   21  O   UNL     1     -12.548  13.499  65.917  1.00  0.00    -0.446 OA 
HETATM   22  O   UNL     1     -12.229  11.664  67.601  1.00  0.00    -0.544 OA 
BRANCH  20  23
HETATM   23  N   UNL     1     -11.026  11.509  65.449  1.00  0.00    -0.260 N  
HETATM   24  H   UNL     1     -11.341  11.596  64.482  1.00  0.00     0.000 HD 
BRANCH  23  25
HETATM   25  C   UNL     1     -10.076  10.544  65.730  1.00  0.00    -0.265 C  
HETATM   26  O   UNL     1      -8.984  10.501  65.188  1.00  0.00    -0.175 OA 
BRANCH  25  27
HETATM   27  N   UNL     1     -10.472   9.656  66.690  1.00  0.00    -0.197 N  
HETATM   28  H   UNL     1     -11.435   9.673  67.027  1.00  0.00     0.000 HD 
BRANCH  27  29
HETATM   29  C   UNL     1      -9.532   8.683  67.239  1.00  0.00    -0.156 C  
HETATM   30  C   UNL     1      -9.613   8.627  68.769  1.00  0.00    -0.157 C  
HETATM   31  C   UNL     1     -10.854   7.897  69.278  1.00  0.00    -0.077 C  
HETATM   32  C   UNL     1     -10.991   6.513  68.654  1.00  0.00    -0.363 C  
HETATM   33  C   UNL     1     -10.970   6.578  67.131  1.00  0.00    -0.480 C  
HETATM   34  C   UNL     1      -9.723   7.293  66.615  1.00  0.00    -0.249 C  
ENDBRANCH  27  29
ENDBRANCH  25  27
ENDBRANCH  23  25
ENDBRANCH  20  23
ENDBRANCH  17  20
ENDBRANCH  13  14
ENDBRANCH  12  13
ENDBRANCH  10  12
ENDBRANCH   5   8
TORSDOF 9
ENDMDL
MODEL      281
REMARK 921   NORMALIZED FREE ENERGY PREDICTED BY IDOCK:   -3.83 KCAL/MOL
REMARK 922        TOTAL FREE ENERGY PREDICTED BY IDOCK:   -7.33 KCAL/MOL
REMARK 923 INTER-LIGAND FREE ENERGY PREDICTED BY IDOCK:   -7.81 KCAL/MOL
REMARK 924 INTRA-LIGAND FREE ENERGY PREDICTED BY IDOCK:    0.48 KCAL/MOL
REMARK 927      BINDING AFFINITY PREDICTED BY RF-SCORE:    0.00 PKD
ROOT
HETATM    1  C   UNL     1      -9.399  15.850  66.025  1.00  0.00    -0.385 C  
HETATM    2  C   UNL     1     -10.045  14.826  66.903  1.00  0.00    -0.246 A  
HETATM    3  N   UNL     1      -9.333  13.709  67.195  1.00  0.00    -0.231 NA 
HETATM    4  C   UNL     1      -9.966  12.788  67.965  1.00  0.00    -0.225 A  
HETATM    5  C   UNL     1     -11.258  12.974  68.434  1.00  0.00    -0.269 A  
HETATM    6  C   UNL     1     -11.339  15.011  67.392  1.00  0.00    -0.332 A  
HETATM    7  N   UNL     1     -11.982  14.099  68.166  1.00  0.00    -0.352 NA 
ENDROOT
BRANCH   5   8
HETATM    8  C   UNL     1     -11.907  11.896  69.230  1.00  0.00    -0.318 C  
HETATM    9  O   UNL     1     -12.275  10.855  68.696  1.00  0.00    -0.533 OA 
HETATM   10  N   UNL     1     -12.076  12.165  70.575  1.00  0.00    -0.461 N  
HETATM   11  H   UNL     1     -11.672  13.015  70.968  1.00  0.00     0.000 HD 
BRANCH  10  12
HETATM   12  C   UNL     1     -12.812  11.265  71.441  1.00  0.00    -0.410 C  
BRANCH  12  13
HETATM   13  C   UNL     1     -13.000   9.865  70.834  1.00  0.00    -0.351 C  
BRANCH  13  14
HETATM   14  C   UNL     1     -12.191   8.770  71.504  1.00  0.00    -0.382 A  
HETATM   15  C   UNL     1     -12.582   7.424  71.444  1.00  0.00    -0.405 A  
HETATM   16  C   UNL     1     -11.855   6.431  72.104  1.00  0.00    -0.361 A  
HETATM   17  C   UNL     1     -10.685   6.762  72.785  1.00  0.00    -0.246 A  
HETATM   18  C   UNL     1     -10.248   8.090  72.819  1.00  0.00    -0.389 A  
HETATM   19  C   UNL     1     -10.995   9.083  72.175  1.00  0.00    -0.258 A  
BRANCH  17  20
HETATM   20  S   UNL     1      -9.849   5.509  73.729  1.00  0.00    -0.185 S  
HETATM   21  O   UNL     1     -10.830   4.721  74.441  1.00  0.00    -0.344 OA 
HETATM   22  O   UNL     1      -8.774   6.162  74.452  1.00  0.00    -0.122 OA 
BRANCH  20  23
HETATM   23  N   UNL     1      -9.083   4.565  72.592  1.00  0.00    -0.122 N  
HETATM   24  H   UNL     1      -9.391   3.597  72.494  1.00  0.00     0.000 HD 
BRANCH  23  25
HETATM   25  C   UNL     1      -8.059   5.000  71.771  1.00  0.00    -0.115 C  
HETATM   26  O   UNL     1      -7.166   5.740  72.149  1.00  0.00    -0.085 OA 
BRANCH  25  27
HETATM   27  N   UNL     1      -8.132   4.502  70.500  1.00  0.00    -0.067 N  
HETATM   28  H   UNL     1      -8.661   5.008  69.790  1.00  0.00     0.000 HD 
BRANCH  27  29
HETATM   29  C   UNL     1      -7.462   3.254  70.149  1.00  0.00    -0.044 C  
HETATM   30  C   UNL     1      -8.179   2.043  70.755  1.00  0.00    -0.065 C  
HETATM   31  C   UNL     1      -9.478   1.690  70.032  1.00  0.00    -0.139 C  
HETATM   32  C   UNL     1      -9.262   1.526  68.532  1.00  0.00    -0.209 C  
HETATM   33  C   UNL     1      -8.602   2.758  67.921  1.00  0.00    -0.116 C  
HETATM   34  C   UNL     1      -7.295   3.106  68.630  1.00  0.00    -0.049 C  
ENDBRANCH  27  29
ENDBRANCH  25  27
ENDBRANCH  23  25
ENDBRANCH  20  23
ENDBRANCH  17  20
ENDBRANCH  13  14
ENDBRANCH  12  13
ENDBRANCH  10  12
ENDBRANCH   5   8
TORSDOF 9
ENDMDL
MODEL      282
REMARK 921   NORMALIZED FREE ENERGY PREDICTED BY IDOCK:   -3.82 KCAL/MOL
REMARK 922        TOTAL FREE ENERGY PREDICTED BY IDOCK:   -7.33 KCAL/MOL
REMARK 923 INTER-LIGAND FREE ENERGY PREDICTED BY IDOCK:   -7.01 KCAL/MOL
REMARK 924 INTRA-LIGAND FREE ENERGY PREDICTED BY IDOCK:   -0.32 KCAL/MOL
REMARK 927      BINDING AFFINITY PREDICTED BY RF-SCORE:    0.00 PKD
ROOT
HETATM    1  C   UNL     1      -6.788   6.965  62.918  1.00  0.00    -0.051 C  
HETATM    2  C   UNL     1      -7.709   8.082  63.294  1.00  0.00    -0.143 A  
HETATM    3  N   UNL     1      -7.936   9.048  62.369  1.00  0.00    -0.124 NA 
HETATM    4  C   UNL     1      -8.749  10.062  62.760  1.00  0.00    -0.210 A  
HETATM    5  C   UNL     1      -9.320  10.112  64.022  1.00  0.00    -0.287 A  
HETATM    6  C   UNL     1      -8.300   8.134  64.557  1.00  0.00    -0.058 A  
HETATM    7  N   UNL     1      -9.117   9.141  64.959  1.00  0.00    -0.194 NA 
ENDROOT
BRANCH   5   8
HETATM    8  C   UNL     1     -10.158  11.284  64.397  1.00  0.00    -0.303 C  
HETATM    9  O   UNL     1     -11.206  11.520  63.807  1.00  0.00    -0.400 OA 
HETATM   10  N   UNL     1      -9.663  12.071  65.419  1.00  0.00    -0.342 N  
HETATM   11  H   UNL     1      -8.827  11.769  65.920  1.00  0.00     0.000 HD 
BRANCH  10  12
HETATM   12  C   UNL     1     -10.304  13.316  65.796  1.00  0.00    -0.288 C  
BRANCH  12  13
HETATM   13  C   UNL     1     -10.391  13.510  67.319  1.00  0.00    -0.241 C  
BRANCH  13  14
HETATM   14  C   UNL     1      -9.766  12.395  68.137  1.00  0.00    -0.214 A  
HETATM   15  C   UNL     1      -8.398  12.389  68.449  1.00  0.00    -0.137 A  
HETATM   16  C   UNL     1      -7.827  11.334  69.163  1.00  0.00    -0.020 A  
HETATM   17  C   UNL     1      -8.628  10.295  69.631  1.00  0.00    -0.107 A  
HETATM   18  C   UNL     1     -10.003  10.303  69.375  1.00  0.00    -0.254 A  
HETATM   19  C   UNL     1     -10.565  11.352  68.638  1.00  0.00    -0.229 A  
BRANCH  17  20
HETATM   20  S   UNL     1      -7.862   8.898  70.420  1.00  0.00    -0.118 S  
HETATM   21  O   UNL     1      -7.053   9.364  71.524  1.00  0.00    -0.319 OA 
HETATM   22  O   UNL     1      -7.271   8.085  69.374  1.00  0.00    -0.068 OA 
BRANCH  20  23
HETATM   23  N   UNL     1      -9.133   7.989  70.995  1.00  0.00    -0.145 N  
HETATM   24  H   UNL     1      -9.388   8.098  71.977  1.00  0.00     0.000 HD 
BRANCH  23  25
HETATM   25  C   UNL     1      -9.868   7.097  70.235  1.00  0.00    -0.176 C  
HETATM   26  O   UNL     1      -9.366   6.327  69.433  1.00  0.00    -0.140 OA 
BRANCH  25  27
HETATM   27  N   UNL     1     -11.211   7.147  70.486  1.00  0.00    -0.280 N  
HETATM   28  H   UNL     1     -11.872   7.037  69.718  1.00  0.00     0.000 HD 
BRANCH  27  29
HETATM   29  C   UNL     1     -11.708   7.356  71.843  1.00  0.00    -0.288 C  
HETATM   30  C   UNL     1     -11.747   8.846  72.202  1.00  0.00    -0.411 C  
HETATM   31  C   UNL     1     -12.899   9.595  71.534  1.00  0.00    -0.485 C  
HETATM   32  C   UNL     1     -14.239   8.916  71.793  1.00  0.00    -0.392 C  
HETATM   33  C   UNL     1     -14.216   7.449  71.379  1.00  0.00    -0.508 C  
HETATM   34  C   UNL     1     -13.075   6.691  72.056  1.00  0.00    -0.072 C  
ENDBRANCH  27  29
ENDBRANCH  25  27
ENDBRANCH  23  25
ENDBRANCH  20  23
ENDBRANCH  17  20
ENDBRANCH  13  14
ENDBRANCH  12  13
ENDBRANCH  10  12
ENDBRANCH   5   8
TORSDOF 9
ENDMDL
MODEL      283
REMARK 921   NORMALIZED FREE ENERGY PREDICTED BY IDOCK:   -3.82 KCAL/MOL
REMARK 922        TOTAL FREE ENERGY PREDICTED BY IDOCK:   -7.32 KCAL/MOL
REMARK 923 INTER-LIGAND FREE ENERGY PREDICTED BY IDOCK:   -5.72 KCAL/MOL
REMARK 924 INTRA-LIGAND FREE ENERGY PREDICTED BY IDOCK:   -1.60 KCAL/MOL
REMARK 927      BINDING AFFINITY PREDICTED BY RF-SCORE:    0.00 PKD
ROOT
HETATM    1  C   UNL     1      -7.647   3.938  63.086  1.00  0.00    -0.058 C  
HETATM    2  C   UNL     1      -7.776   4.759  64.330  1.00  0.00    -0.079 A  
HETATM    3  N   UNL     1      -6.661   5.377  64.793  1.00  0.00    -0.042 NA 
HETATM    4  C   UNL     1      -6.811   6.084  65.942  1.00  0.00    -0.057 A  
HETATM    5  C   UNL     1      -8.026   6.177  66.604  1.00  0.00    -0.105 A  
HETATM    6  C   UNL     1      -8.997   4.871  64.994  1.00  0.00    -0.147 A  
HETATM    7  N   UNL     1      -9.161   5.577  66.143  1.00  0.00    -0.147 NA 
ENDROOT
BRANCH   5   8
HETATM    8  C   UNL     1      -8.101   6.926  67.888  1.00  0.00    -0.114 C  
HETATM    9  O   UNL     1      -8.904   6.604  68.757  1.00  0.00    -0.127 OA 
HETATM   10  N   UNL     1      -7.234   7.995  68.009  1.00  0.00    -0.092 N  
HETATM   11  H   UNL     1      -6.537   8.156  67.282  1.00  0.00     0.000 HD 
BRANCH  10  12
HETATM   12  C   UNL     1      -7.292   8.893  69.146  1.00  0.00    -0.072 C  
BRANCH  12  13
HETATM   13  C   UNL     1      -6.179   9.955  69.131  1.00  0.00    -0.044 C  
BRANCH  13  14
HETATM   14  C   UNL     1      -6.642  11.352  68.761  1.00  0.00    -0.064 A  
HETATM   15  C   UNL     1      -6.268  12.475  69.515  1.00  0.00    -0.120 A  
HETATM   16  C   UNL     1      -6.738  13.749  69.191  1.00  0.00    -0.112 A  
HETATM   17  C   UNL     1      -7.541  13.931  68.068  1.00  0.00    -0.144 A  
HETATM   18  C   UNL     1      -7.887  12.834  67.272  1.00  0.00    -0.148 A  
HETATM   19  C   UNL     1      -7.432  11.556  67.615  1.00  0.00    -0.110 A  
BRANCH  17  20
HETATM   20  S   UNL     1      -8.237  15.536  67.750  1.00  0.00    -0.154 S  
HETATM   21  O   UNL     1      -9.252  15.415  66.727  1.00  0.00    -0.216 OA 
HETATM   22  O   UNL     1      -7.130  16.457  67.575  1.00  0.00    -0.121 OA 
BRANCH  20  23
HETATM   23  N   UNL     1      -8.937  15.984  69.192  1.00  0.00    -0.249 N  
HETATM   24  H   UNL     1      -8.381  16.550  69.833  1.00  0.00     0.000 HD 
BRANCH  23  25
HETATM   25  C   UNL     1     -10.220  15.644  69.582  1.00  0.00    -0.291 C  
HETATM   26  O   UNL     1     -11.089  16.467  69.820  1.00  0.00    -0.338 OA 
BRANCH  25  27
HETATM   27  N   UNL     1     -10.425  14.294  69.654  1.00  0.00    -0.439 N  
HETATM   28  H   UNL     1      -9.648  13.678  69.892  1.00  0.00     0.000 HD 
BRANCH  27  29
HETATM   29  C   UNL     1     -11.745  13.726  69.394  1.00  0.00    -0.325 C  
HETATM   30  C   UNL     1     -12.020  13.615  67.890  1.00  0.00    -0.382 C  
HETATM   31  C   UNL     1     -11.261  12.469  67.224  1.00  0.00    -0.347 C  
HETATM   32  C   UNL     1     -11.497  11.144  67.941  1.00  0.00    -0.359 C  
HETATM   33  C   UNL     1     -11.164  11.242  69.426  1.00  0.00    -0.345 C  
HETATM   34  C   UNL     1     -11.932  12.377  70.101  1.00  0.00    -0.376 C  
ENDBRANCH  27  29
ENDBRANCH  25  27
ENDBRANCH  23  25
ENDBRANCH  20  23
ENDBRANCH  17  20
ENDBRANCH  13  14
ENDBRANCH  12  13
ENDBRANCH  10  12
ENDBRANCH   5   8
TORSDOF 9
ENDMDL
MODEL      284
REMARK 921   NORMALIZED FREE ENERGY PREDICTED BY IDOCK:   -3.80 KCAL/MOL
REMARK 922        TOTAL FREE ENERGY PREDICTED BY IDOCK:   -7.30 KCAL/MOL
REMARK 923 INTER-LIGAND FREE ENERGY PREDICTED BY IDOCK:   -5.78 KCAL/MOL
REMARK 924 INTRA-LIGAND FREE ENERGY PREDICTED BY IDOCK:   -1.52 KCAL/MOL
REMARK 927      BINDING AFFINITY PREDICTED BY RF-SCORE:    0.00 PKD
ROOT
HETATM    1  C   UNL     1      -5.623   7.232  62.465  1.00  0.00    -0.045 C  
HETATM    2  C   UNL     1      -6.647   6.528  63.298  1.00  0.00    -0.037 A  
HETATM    3  N   UNL     1      -6.966   7.075  64.497  1.00  0.00    -0.049 NA 
HETATM    4  C   UNL     1      -7.873   6.389  65.238  1.00  0.00    -0.108 A  
HETATM    5  C   UNL     1      -8.446   5.205  64.800  1.00  0.00    -0.150 A  
HETATM    6  C   UNL     1      -7.240   5.344  62.859  1.00  0.00    -0.043 A  
HETATM    7  N   UNL     1      -8.150   4.649  63.589  1.00  0.00    -0.095 NA 
ENDROOT
BRANCH   5   8
HETATM    8  C   UNL     1      -9.394   4.480  65.691  1.00  0.00    -0.164 C  
HETATM    9  O   UNL     1     -10.605   4.564  65.520  1.00  0.00    -0.282 OA 
HETATM   10  N   UNL     1      -8.815   3.746  66.708  1.00  0.00    -0.118 N  
HETATM   11  H   UNL     1      -7.800   3.654  66.742  1.00  0.00     0.000 HD 
BRANCH  10  12
HETATM   12  C   UNL     1      -9.619   3.102  67.729  1.00  0.00    -0.064 C  
BRANCH  12  13
HETATM   13  C   UNL     1      -9.265   3.564  69.152  1.00  0.00    -0.225 C  
BRANCH  13  14
HETATM   14  C   UNL     1      -9.627   5.007  69.458  1.00  0.00    -0.237 A  
HETATM   15  C   UNL     1     -10.902   5.363  69.923  1.00  0.00    -0.196 A  
HETATM   16  C   UNL     1     -11.236   6.699  70.157  1.00  0.00    -0.416 A  
HETATM   17  C   UNL     1     -10.278   7.696  69.988  1.00  0.00    -0.213 A  
HETATM   18  C   UNL     1      -8.986   7.361  69.572  1.00  0.00    -0.144 A  
HETATM   19  C   UNL     1      -8.664   6.022  69.317  1.00  0.00    -0.117 A  
BRANCH  17  20
HETATM   20  S   UNL     1     -10.760   9.399  70.160  1.00  0.00    -0.260 S  
HETATM   21  O   UNL     1      -9.572  10.216  70.271  1.00  0.00    -0.118 OA 
HETATM   22  O   UNL     1     -11.783   9.454  71.187  1.00  0.00    -0.295 OA 
BRANCH  20  23
HETATM   23  N   UNL     1     -11.562   9.755  68.745  1.00  0.00    -0.406 N  
HETATM   24  H   UNL     1     -12.402   9.219  68.528  1.00  0.00     0.000 HD 
BRANCH  23  25
HETATM   25  C   UNL     1     -11.168  10.727  67.843  1.00  0.00    -0.318 C  
HETATM   26  O   UNL     1     -11.927  11.569  67.391  1.00  0.00    -0.623 OA 
BRANCH  25  27
HETATM   27  N   UNL     1      -9.841  10.664  67.522  1.00  0.00    -0.166 N  
HETATM   28  H   UNL     1      -9.237   9.997  68.002  1.00  0.00     0.000 HD 
BRANCH  27  29
HETATM   29  C   UNL     1      -9.278  11.543  66.501  1.00  0.00    -0.194 C  
HETATM   30  C   UNL     1      -8.831  12.881  67.098  1.00  0.00    -0.210 C  
HETATM   31  C   UNL     1      -7.533  12.779  67.897  1.00  0.00    -0.127 C  
HETATM   32  C   UNL     1      -6.422  12.122  67.086  1.00  0.00    -0.135 C  
HETATM   33  C   UNL     1      -6.849  10.763  66.544  1.00  0.00    -0.130 C  
HETATM   34  C   UNL     1      -8.139  10.862  65.730  1.00  0.00    -0.094 C  
ENDBRANCH  27  29
ENDBRANCH  25  27
ENDBRANCH  23  25
ENDBRANCH  20  23
ENDBRANCH  17  20
ENDBRANCH  13  14
ENDBRANCH  12  13
ENDBRANCH  10  12
ENDBRANCH   5   8
TORSDOF 9
ENDMDL
MODEL      285
REMARK 921   NORMALIZED FREE ENERGY PREDICTED BY IDOCK:   -3.80 KCAL/MOL
REMARK 922        TOTAL FREE ENERGY PREDICTED BY IDOCK:   -7.29 KCAL/MOL
REMARK 923 INTER-LIGAND FREE ENERGY PREDICTED BY IDOCK:   -6.39 KCAL/MOL
REMARK 924 INTRA-LIGAND FREE ENERGY PREDICTED BY IDOCK:   -0.90 KCAL/MOL
REMARK 927      BINDING AFFINITY PREDICTED BY RF-SCORE:    0.00 PKD
ROOT
HETATM    1  C   UNL     1     -10.834  17.306  68.083  1.00  0.00    -0.294 C  
HETATM    2  C   UNL     1     -11.219  15.875  68.286  1.00  0.00    -0.354 A  
HETATM    3  N   UNL     1     -11.583  15.494  69.536  1.00  0.00    -0.325 NA 
HETATM    4  C   UNL     1     -11.892  14.181  69.687  1.00  0.00    -0.324 A  
HETATM    5  C   UNL     1     -11.846  13.281  68.633  1.00  0.00    -0.345 A  
HETATM    6  C   UNL     1     -11.190  14.965  67.228  1.00  0.00    -0.345 A  
HETATM    7  N   UNL     1     -11.499  13.650  67.366  1.00  0.00    -0.318 NA 
ENDROOT
BRANCH   5   8
HETATM    8  C   UNL     1     -12.147  11.845  68.886  1.00  0.00    -0.155 C  
HETATM    9  O   UNL     1     -12.091  11.022  67.979  1.00  0.00    -0.615 OA 
HETATM   10  N   UNL     1     -12.506  11.529  70.183  1.00  0.00    -0.206 N  
HETATM   11  H   UNL     1     -12.453  12.248  70.904  1.00  0.00     0.000 HD 
BRANCH  10  12
HETATM   12  C   UNL     1     -12.956  10.198  70.542  1.00  0.00    -0.152 C  
BRANCH  12  13
HETATM   13  C   UNL     1     -12.285   9.660  71.816  1.00  0.00    -0.464 C  
BRANCH  13  14
HETATM   14  C   UNL     1     -11.532   8.354  71.631  1.00  0.00    -0.349 A  
HETATM   15  C   UNL     1     -10.317   8.106  72.287  1.00  0.00    -0.361 A  
HETATM   16  C   UNL     1      -9.612   6.920  72.073  1.00  0.00    -0.150 A  
HETATM   17  C   UNL     1     -10.143   5.933  71.246  1.00  0.00    -0.196 A  
HETATM   18  C   UNL     1     -11.377   6.136  70.620  1.00  0.00    -0.368 A  
HETATM   19  C   UNL     1     -12.067   7.338  70.819  1.00  0.00    -0.284 A  
BRANCH  17  20
HETATM   20  S   UNL     1      -9.170   4.491  70.881  1.00  0.00    -0.150 S  
HETATM   21  O   UNL     1     -10.033   3.331  70.869  1.00  0.00    -0.096 OA 
HETATM   22  O   UNL     1      -8.008   4.527  71.748  1.00  0.00    -0.092 OA 
BRANCH  20  23
HETATM   23  N   UNL     1      -8.567   4.764  69.354  1.00  0.00    -0.082 N  
HETATM   24  H   UNL     1      -8.751   4.060  68.639  1.00  0.00     0.000 HD 
BRANCH  23  25
HETATM   25  C   UNL     1      -7.835   5.878  68.986  1.00  0.00    -0.095 C  
HETATM   26  O   UNL     1      -7.955   6.432  67.906  1.00  0.00    -0.109 OA 
BRANCH  25  27
HETATM   27  N   UNL     1      -6.977   6.310  69.958  1.00  0.00    -0.064 N  
HETATM   28  H   UNL     1      -7.027   5.902  70.892  1.00  0.00     0.000 HD 
BRANCH  27  29
HETATM   29  C   UNL     1      -5.991   7.348  69.676  1.00  0.00    -0.024 C  
HETATM   30  C   UNL     1      -6.625   8.539  68.947  1.00  0.00    -0.053 C  
HETATM   31  C   UNL     1      -7.471   9.422  69.862  1.00  0.00    -0.100 C  
HETATM   32  C   UNL     1      -6.693   9.863  71.097  1.00  0.00     0.174 C  
HETATM   33  C   UNL     1      -6.115   8.672  71.853  1.00  0.00    -0.069 C  
HETATM   34  C   UNL     1      -5.254   7.794  70.946  1.00  0.00    -0.026 C  
ENDBRANCH  27  29
ENDBRANCH  25  27
ENDBRANCH  23  25
ENDBRANCH  20  23
ENDBRANCH  17  20
ENDBRANCH  13  14
ENDBRANCH  12  13
ENDBRANCH  10  12
ENDBRANCH   5   8
TORSDOF 9
ENDMDL
MODEL      286
REMARK 921   NORMALIZED FREE ENERGY PREDICTED BY IDOCK:   -3.77 KCAL/MOL
REMARK 922        TOTAL FREE ENERGY PREDICTED BY IDOCK:   -7.25 KCAL/MOL
REMARK 923 INTER-LIGAND FREE ENERGY PREDICTED BY IDOCK:   -6.11 KCAL/MOL
REMARK 924 INTRA-LIGAND FREE ENERGY PREDICTED BY IDOCK:   -1.14 KCAL/MOL
REMARK 927      BINDING AFFINITY PREDICTED BY RF-SCORE:    0.00 PKD
ROOT
HETATM    1  C   UNL     1      -5.983   8.724  64.442  1.00  0.00    -0.066 C  
HETATM    2  C   UNL     1      -6.855   7.617  64.944  1.00  0.00    -0.051 A  
HETATM    3  N   UNL     1      -8.084   7.947  65.413  1.00  0.00    -0.123 NA 
HETATM    4  C   UNL     1      -8.831   6.920  65.891  1.00  0.00    -0.105 A  
HETATM    5  C   UNL     1      -8.375   5.611  65.898  1.00  0.00    -0.128 A  
HETATM    6  C   UNL     1      -6.411   6.294  64.941  1.00  0.00    -0.034 A  
HETATM    7  N   UNL     1      -7.149   5.257  65.414  1.00  0.00    -0.065 NA 
ENDROOT
BRANCH   5   8
HETATM    8  C   UNL     1      -9.230   4.544  66.487  1.00  0.00    -0.137 C  
HETATM    9  O   UNL     1     -10.431   4.496  66.245  1.00  0.00    -0.259 OA 
HETATM   10  N   UNL     1      -8.583   3.652  67.322  1.00  0.00    -0.103 N  
HETATM   11  H   UNL     1      -7.569   3.702  67.414  1.00  0.00     0.000 HD 
BRANCH  10  12
HETATM   12  C   UNL     1      -9.314   2.648  68.070  1.00  0.00    -0.202 C  
BRANCH  12  13
HETATM   13  C   UNL     1      -9.387   2.954  69.575  1.00  0.00    -0.199 C  
BRANCH  13  14
HETATM   14  C   UNL     1      -9.494   4.429  69.917  1.00  0.00    -0.253 A  
HETATM   15  C   UNL     1     -10.728   5.096  69.922  1.00  0.00    -0.059 A  
HETATM   16  C   UNL     1     -10.807   6.464  70.194  1.00  0.00    -0.355 A  
HETATM   17  C   UNL     1      -9.656   7.175  70.527  1.00  0.00    -0.169 A  
HETATM   18  C   UNL     1      -8.421   6.522  70.577  1.00  0.00    -0.138 A  
HETATM   19  C   UNL     1      -8.345   5.156  70.280  1.00  0.00    -0.097 A  
BRANCH  17  20
HETATM   20  S   UNL     1      -9.757   8.938  70.737  1.00  0.00    -0.249 S  
HETATM   21  O   UNL     1      -8.613   9.388  71.498  1.00  0.00    -0.266 OA 
HETATM   22  O   UNL     1     -11.101   9.240  71.191  1.00  0.00    -0.282 OA 
BRANCH  20  23
HETATM   23  N   UNL     1      -9.685   9.551  69.191  1.00  0.00    -0.171 N  
HETATM   24  H   UNL     1     -10.271   9.114  68.479  1.00  0.00     0.000 HD 
BRANCH  23  25
HETATM   25  C   UNL     1      -8.886  10.611  68.803  1.00  0.00    -0.161 C  
HETATM   26  O   UNL     1      -7.671  10.613  68.920  1.00  0.00    -0.103 OA 
BRANCH  25  27
HETATM   27  N   UNL     1      -9.588  11.649  68.257  1.00  0.00    -0.193 N  
HETATM   28  H   UNL     1      -9.122  12.542  68.092  1.00  0.00     0.000 HD 
BRANCH  27  29
HETATM   29  C   UNL     1     -10.997  11.494  67.907  1.00  0.00    -0.233 C  
HETATM   30  C   UNL     1     -11.898  12.313  68.838  1.00  0.00    -0.355 C  
HETATM   31  C   UNL     1     -11.864  13.811  68.542  1.00  0.00    -0.406 C  
HETATM   32  C   UNL     1     -12.154  14.103  67.074  1.00  0.00    -0.449 C  
HETATM   33  C   UNL     1     -11.215  13.333  66.152  1.00  0.00    -0.317 C  
HETATM   34  C   UNL     1     -11.257  11.832  66.433  1.00  0.00    -0.382 C  
ENDBRANCH  27  29
ENDBRANCH  25  27
ENDBRANCH  23  25
ENDBRANCH  20  23
ENDBRANCH  17  20
ENDBRANCH  13  14
ENDBRANCH  12  13
ENDBRANCH  10  12
ENDBRANCH   5   8
TORSDOF 9
ENDMDL
MODEL      287
REMARK 921   NORMALIZED FREE ENERGY PREDICTED BY IDOCK:   -3.76 KCAL/MOL
REMARK 922        TOTAL FREE ENERGY PREDICTED BY IDOCK:   -7.24 KCAL/MOL
REMARK 923 INTER-LIGAND FREE ENERGY PREDICTED BY IDOCK:   -5.98 KCAL/MOL
REMARK 924 INTRA-LIGAND FREE ENERGY PREDICTED BY IDOCK:   -1.26 KCAL/MOL
REMARK 927      BINDING AFFINITY PREDICTED BY RF-SCORE:    0.00 PKD
ROOT
HETATM    1  C   UNL     1     -10.658  19.860  67.252  1.00  0.00    -0.519 C  
HETATM    2  C   UNL     1      -9.891  18.577  67.309  1.00  0.00    -0.313 A  
HETATM    3  N   UNL     1      -8.564  18.625  67.031  1.00  0.00    -0.269 NA 
HETATM    4  C   UNL     1      -7.910  17.436  67.059  1.00  0.00    -0.210 A  
HETATM    5  C   UNL     1      -8.551  16.243  67.359  1.00  0.00    -0.178 A  
HETATM    6  C   UNL     1     -10.523  17.374  67.625  1.00  0.00    -0.368 A  
HETATM    7  N   UNL     1      -9.880  16.178  67.659  1.00  0.00    -0.234 NA 
ENDROOT
BRANCH   5   8
HETATM    8  C   UNL     1      -7.778  14.970  67.318  1.00  0.00    -0.202 C  
HETATM    9  O   UNL     1      -6.560  14.979  67.183  1.00  0.00    -0.281 OA 
HETATM   10  N   UNL     1      -8.527  13.813  67.420  1.00  0.00    -0.192 N  
HETATM   11  H   UNL     1      -9.526  13.881  67.613  1.00  0.00     0.000 HD 
BRANCH  10  12
HETATM   12  C   UNL     1      -7.924  12.505  67.260  1.00  0.00    -0.173 C  
BRANCH  12  13
HETATM   13  C   UNL     1      -7.818  11.726  68.581  1.00  0.00    -0.117 C  
BRANCH  13  14
HETATM   14  C   UNL     1      -8.614  10.434  68.622  1.00  0.00    -0.133 A  
HETATM   15  C   UNL     1      -8.983   9.834  69.835  1.00  0.00    -0.254 A  
HETATM   16  C   UNL     1      -9.675   8.622  69.859  1.00  0.00    -0.175 A  
HETATM   17  C   UNL     1     -10.067   8.020  68.665  1.00  0.00    -0.199 A  
HETATM   18  C   UNL     1      -9.754   8.624  67.443  1.00  0.00    -0.227 A  
HETATM   19  C   UNL     1      -9.038   9.827  67.426  1.00  0.00    -0.148 A  
BRANCH  17  20
HETATM   20  S   UNL     1     -10.828   6.414  68.712  1.00  0.00    -0.331 S  
HETATM   21  O   UNL     1     -11.153   6.006  67.363  1.00  0.00    -0.302 OA 
HETATM   22  O   UNL     1     -11.860   6.458  69.730  1.00  0.00    -0.357 OA 
BRANCH  20  23
HETATM   23  N   UNL     1      -9.657   5.411  69.340  1.00  0.00    -0.138 N  
HETATM   24  H   UNL     1      -9.917   4.810  70.122  1.00  0.00     0.000 HD 
BRANCH  23  25
HETATM   25  C   UNL     1      -8.356   5.336  68.876  1.00  0.00    -0.092 C  
HETATM   26  O   UNL     1      -7.386   5.639  69.551  1.00  0.00    -0.064 OA 
BRANCH  25  27
HETATM   27  N   UNL     1      -8.262   4.868  67.595  1.00  0.00    -0.105 N  
HETATM   28  H   UNL     1      -8.017   5.509  66.841  1.00  0.00     0.000 HD 
BRANCH  27  29
HETATM   29  C   UNL     1      -8.509   3.461  67.295  1.00  0.00    -0.098 C  
HETATM   30  C   UNL     1      -8.768   3.244  65.800  1.00  0.00    -0.125 C  
HETATM   31  C   UNL     1      -7.500   3.328  64.953  1.00  0.00    -0.072 C  
HETATM   32  C   UNL     1      -6.409   2.401  65.478  1.00  0.00    -0.024 C  
HETATM   33  C   UNL     1      -6.111   2.660  66.951  1.00  0.00    -0.024 C  
HETATM   34  C   UNL     1      -7.374   2.563  67.805  1.00  0.00    -0.052 C  
ENDBRANCH  27  29
ENDBRANCH  25  27
ENDBRANCH  23  25
ENDBRANCH  20  23
ENDBRANCH  17  20
ENDBRANCH  13  14
ENDBRANCH  12  13
ENDBRANCH  10  12
ENDBRANCH   5   8
TORSDOF 9
ENDMDL
MODEL      288
REMARK 921   NORMALIZED FREE ENERGY PREDICTED BY IDOCK:   -3.75 KCAL/MOL
REMARK 922        TOTAL FREE ENERGY PREDICTED BY IDOCK:   -7.23 KCAL/MOL
REMARK 923 INTER-LIGAND FREE ENERGY PREDICTED BY IDOCK:   -5.88 KCAL/MOL
REMARK 924 INTRA-LIGAND FREE ENERGY PREDICTED BY IDOCK:   -1.35 KCAL/MOL
REMARK 927      BINDING AFFINITY PREDICTED BY RF-SCORE:    0.00 PKD
ROOT
HETATM    1  C   UNL     1     -11.731  14.976  67.223  1.00  0.00    -0.238 C  
HETATM    2  C   UNL     1     -10.714  13.897  67.020  1.00  0.00    -0.283 A  
HETATM    3  N   UNL     1      -9.600  13.930  67.794  1.00  0.00    -0.216 NA 
HETATM    4  C   UNL     1      -8.686  12.956  67.557  1.00  0.00    -0.190 A  
HETATM    5  C   UNL     1      -8.874  11.981  66.589  1.00  0.00    -0.191 A  
HETATM    6  C   UNL     1     -10.901  12.903  66.059  1.00  0.00    -0.279 A  
HETATM    7  N   UNL     1      -9.995  11.922  65.814  1.00  0.00    -0.231 NA 
ENDROOT
BRANCH   5   8
HETATM    8  C   UNL     1      -7.802  10.975  66.349  1.00  0.00    -0.150 C  
HETATM    9  O   UNL     1      -7.039  10.644  67.249  1.00  0.00    -0.085 OA 
HETATM   10  N   UNL     1      -7.727  10.477  65.062  1.00  0.00    -0.302 N  
HETATM   11  H   UNL     1      -8.445  10.735  64.385  1.00  0.00     0.000 HD 
BRANCH  10  12
HETATM   12  C   UNL     1      -6.651   9.596  64.652  1.00  0.00    -0.100 C  
BRANCH  12  13
HETATM   13  C   UNL     1      -7.102   8.136  64.481  1.00  0.00    -0.077 C  
BRANCH  13  14
HETATM   14  C   UNL     1      -7.681   7.500  65.732  1.00  0.00    -0.098 A  
HETATM   15  C   UNL     1      -9.064   7.447  65.957  1.00  0.00    -0.129 A  
HETATM   16  C   UNL     1      -9.582   6.901  67.133  1.00  0.00    -0.182 A  
HETATM   17  C   UNL     1      -8.725   6.342  68.078  1.00  0.00    -0.114 A  
HETATM   18  C   UNL     1      -7.345   6.338  67.853  1.00  0.00    -0.088 A  
HETATM   19  C   UNL     1      -6.830   6.909  66.683  1.00  0.00    -0.064 A  
BRANCH  17  20
HETATM   20  S   UNL     1      -9.392   5.774  69.625  1.00  0.00    -0.141 S  
HETATM   21  O   UNL     1      -8.479   6.127  70.690  1.00  0.00    -0.130 OA 
HETATM   22  O   UNL     1      -9.796   4.394  69.438  1.00  0.00    -0.203 OA 
BRANCH  20  23
HETATM   23  N   UNL     1     -10.819   6.613  69.802  1.00  0.00    -0.261 N  
HETATM   24  H   UNL     1     -11.232   7.027  68.967  1.00  0.00     0.000 HD 
BRANCH  23  25
HETATM   25  C   UNL     1     -11.483   6.789  71.003  1.00  0.00    -0.324 C  
HETATM   26  O   UNL     1     -12.685   6.980  71.082  1.00  0.00    -0.381 OA 
BRANCH  25  27
HETATM   27  N   UNL     1     -10.663   6.706  72.094  1.00  0.00    -0.213 N  
HETATM   28  H   UNL     1      -9.740   7.138  72.065  1.00  0.00     0.000 HD 
BRANCH  27  29
HETATM   29  C   UNL     1     -11.096   6.007  73.300  1.00  0.00    -0.155 C  
HETATM   30  C   UNL     1     -11.284   4.508  73.041  1.00  0.00    -0.277 C  
HETATM   31  C   UNL     1      -9.964   3.748  72.928  1.00  0.00    -0.207 C  
HETATM   32  C   UNL     1      -9.060   4.006  74.129  1.00  0.00    -0.102 C  
HETATM   33  C   UNL     1      -8.826   5.497  74.347  1.00  0.00    -0.117 C  
HETATM   34  C   UNL     1     -10.144   6.259  74.477  1.00  0.00    -0.353 C  
ENDBRANCH  27  29
ENDBRANCH  25  27
ENDBRANCH  23  25
ENDBRANCH  20  23
ENDBRANCH  17  20
ENDBRANCH  13  14
ENDBRANCH  12  13
ENDBRANCH  10  12
ENDBRANCH   5   8
TORSDOF 9
ENDMDL
MODEL      289
REMARK 921   NORMALIZED FREE ENERGY PREDICTED BY IDOCK:   -3.75 KCAL/MOL
REMARK 922        TOTAL FREE ENERGY PREDICTED BY IDOCK:   -7.22 KCAL/MOL
REMARK 923 INTER-LIGAND FREE ENERGY PREDICTED BY IDOCK:   -6.14 KCAL/MOL
REMARK 924 INTRA-LIGAND FREE ENERGY PREDICTED BY IDOCK:   -1.08 KCAL/MOL
REMARK 927      BINDING AFFINITY PREDICTED BY RF-SCORE:    0.00 PKD
ROOT
HETATM    1  C   UNL     1     -13.701  13.109  72.437  1.00  0.00    -0.640 C  
HETATM    2  C   UNL     1     -12.927  14.011  71.530  1.00  0.00    -0.351 A  
HETATM    3  N   UNL     1     -12.722  15.288  71.939  1.00  0.00    -0.333 NA 
HETATM    4  C   UNL     1     -12.046  16.085  71.073  1.00  0.00    -0.331 A  
HETATM    5  C   UNL     1     -11.585  15.628  69.847  1.00  0.00    -0.347 A  
HETATM    6  C   UNL     1     -12.447  13.556  70.301  1.00  0.00    -0.239 A  
HETATM    7  N   UNL     1     -11.768  14.343  69.427  1.00  0.00    -0.297 NA 
ENDROOT
BRANCH   5   8
HETATM    8  C   UNL     1     -10.898  16.575  68.927  1.00  0.00    -0.336 C  
HETATM    9  O   UNL     1     -11.541  17.279  68.155  1.00  0.00     0.257 OA 
HETATM   10  N   UNL     1      -9.518  16.581  68.996  1.00  0.00    -0.260 N  
HETATM   11  H   UNL     1      -9.053  16.030  69.718  1.00  0.00     0.000 HD 
BRANCH  10  12
HETATM   12  C   UNL     1      -8.716  17.352  68.067  1.00  0.00    -0.241 C  
BRANCH  12  13
HETATM   13  C   UNL     1      -8.182  16.513  66.894  1.00  0.00    -0.250 C  
BRANCH  13  14
HETATM   14  C   UNL     1      -7.957  15.046  67.214  1.00  0.00    -0.234 A  
HETATM   15  C   UNL     1      -8.918  14.070  66.910  1.00  0.00    -0.243 A  
HETATM   16  C   UNL     1      -8.719  12.731  67.252  1.00  0.00    -0.200 A  
HETATM   17  C   UNL     1      -7.524  12.336  67.850  1.00  0.00    -0.121 A  
HETATM   18  C   UNL     1      -6.530  13.282  68.118  1.00  0.00    -0.112 A  
HETATM   19  C   UNL     1      -6.746  14.627  67.795  1.00  0.00    -0.194 A  
BRANCH  17  20
HETATM   20  S   UNL     1      -7.345  10.654  68.398  1.00  0.00    -0.095 S  
HETATM   21  O   UNL     1      -6.899  10.652  69.774  1.00  0.00    -0.114 OA 
HETATM   22  O   UNL     1      -6.585   9.950  67.383  1.00  0.00    -0.068 OA 
BRANCH  20  23
HETATM   23  N   UNL     1      -8.878  10.013  68.300  1.00  0.00    -0.115 N  
HETATM   24  H   UNL     1      -9.612  10.452  68.856  1.00  0.00     0.000 HD 
BRANCH  23  25
HETATM   25  C   UNL     1      -9.226   8.926  67.518  1.00  0.00    -0.136 C  
HETATM   26  O   UNL     1      -9.469   9.009  66.326  1.00  0.00    -0.201 OA 
BRANCH  25  27
HETATM   27  N   UNL     1      -9.251   7.747  68.208  1.00  0.00    -0.140 N  
HETATM   28  H   UNL     1      -9.886   7.004  67.915  1.00  0.00     0.000 HD 
BRANCH  27  29
HETATM   29  C   UNL     1      -8.379   7.538  69.360  1.00  0.00    -0.132 C  
HETATM   30  C   UNL     1      -9.181   7.150  70.607  1.00  0.00    -0.158 C  
HETATM   31  C   UNL     1      -9.683   5.708  70.573  1.00  0.00    -0.233 C  
HETATM   32  C   UNL     1      -8.553   4.723  70.300  1.00  0.00    -0.110 C  
HETATM   33  C   UNL     1      -7.795   5.077  69.025  1.00  0.00    -0.080 C  
HETATM   34  C   UNL     1      -7.276   6.513  69.060  1.00  0.00    -0.091 C  
ENDBRANCH  27  29
ENDBRANCH  25  27
ENDBRANCH  23  25
ENDBRANCH  20  23
ENDBRANCH  17  20
ENDBRANCH  13  14
ENDBRANCH  12  13
ENDBRANCH  10  12
ENDBRANCH   5   8
TORSDOF 9
ENDMDL
MODEL      290
REMARK 921   NORMALIZED FREE ENERGY PREDICTED BY IDOCK:   -3.72 KCAL/MOL
REMARK 922        TOTAL FREE ENERGY PREDICTED BY IDOCK:   -7.18 KCAL/MOL
REMARK 923 INTER-LIGAND FREE ENERGY PREDICTED BY IDOCK:   -5.77 KCAL/MOL
REMARK 924 INTRA-LIGAND FREE ENERGY PREDICTED BY IDOCK:   -1.41 KCAL/MOL
REMARK 927      BINDING AFFINITY PREDICTED BY RF-SCORE:    0.00 PKD
ROOT
HETATM    1  C   UNL     1     -10.401  17.975  68.887  1.00  0.00    -0.244 C  
HETATM    2  C   UNL     1     -10.502  16.640  68.221  1.00  0.00    -0.321 A  
HETATM    3  N   UNL     1     -11.237  15.682  68.840  1.00  0.00    -0.288 NA 
HETATM    4  C   UNL     1     -11.276  14.475  68.222  1.00  0.00    -0.277 A  
HETATM    5  C   UNL     1     -10.613  14.229  67.029  1.00  0.00    -0.280 A  
HETATM    6  C   UNL     1      -9.851  16.387  67.013  1.00  0.00    -0.251 A  
HETATM    7  N   UNL     1      -9.884  15.184  66.383  1.00  0.00    -0.264 NA 
ENDROOT
BRANCH   5   8
HETATM    8  C   UNL     1     -10.658  12.863  66.438  1.00  0.00    -0.271 C  
HETATM    9  O   UNL     1     -11.721  12.370  66.077  1.00  0.00    -0.389 OA 
HETATM   10  N   UNL     1      -9.444  12.208  66.353  1.00  0.00    -0.230 N  
HETATM   11  H   UNL     1      -8.590  12.709  66.596  1.00  0.00     0.000 HD 
BRANCH  10  12
HETATM   12  C   UNL     1      -9.357  10.826  65.925  1.00  0.00    -0.189 C  
BRANCH  12  13
HETATM   13  C   UNL     1      -8.477   9.965  66.846  1.00  0.00    -0.125 C  
BRANCH  13  14
HETATM   14  C   UNL     1      -9.207   9.346  68.024  1.00  0.00    -0.137 A  
HETATM   15  C   UNL     1      -8.609   9.243  69.289  1.00  0.00    -0.139 A  
HETATM   16  C   UNL     1      -9.274   8.630  70.353  1.00  0.00    -0.189 A  
HETATM   17  C   UNL     1     -10.576   8.165  70.184  1.00  0.00    -0.237 A  
HETATM   18  C   UNL     1     -11.212   8.300  68.946  1.00  0.00     0.427 A  
HETATM   19  C   UNL     1     -10.531   8.894  67.877  1.00  0.00    -0.281 A  
BRANCH  17  20
HETATM   20  S   UNL     1     -11.354   7.269  71.508  1.00  0.00    -0.261 S  
HETATM   21  O   UNL     1     -12.138   6.189  70.950  1.00  0.00    -0.073 OA 
HETATM   22  O   UNL     1     -11.976   8.246  72.381  1.00  0.00    -0.361 OA 
BRANCH  20  23
HETATM   23  N   UNL     1     -10.091   6.649  72.398  1.00  0.00    -0.168 N  
HETATM   24  H   UNL     1      -9.260   7.231  72.511  1.00  0.00     0.000 HD 
BRANCH  23  25
HETATM   25  C   UNL     1     -10.088   5.401  72.994  1.00  0.00    -0.176 C  
HETATM   26  O   UNL     1     -10.053   5.236  74.202  1.00  0.00    -0.189 OA 
BRANCH  25  27
HETATM   27  N   UNL     1     -10.149   4.371  72.098  1.00  0.00    -0.191 N  
HETATM   28  H   UNL     1     -11.054   4.072  71.734  1.00  0.00     0.000 HD 
BRANCH  27  29
HETATM   29  C   UNL     1      -8.934   3.694  71.655  1.00  0.00    -0.106 C  
HETATM   30  C   UNL     1      -9.252   2.547  70.690  1.00  0.00    -0.203 C  
HETATM   31  C   UNL     1      -9.638   3.028  69.292  1.00  0.00    -0.072 C  
HETATM   32  C   UNL     1      -8.596   3.981  68.716  1.00  0.00    -0.114 C  
HETATM   33  C   UNL     1      -8.326   5.153  69.653  1.00  0.00    -0.093 C  
HETATM   34  C   UNL     1      -7.924   4.677  71.048  1.00  0.00    -0.082 C  
ENDBRANCH  27  29
ENDBRANCH  25  27
ENDBRANCH  23  25
ENDBRANCH  20  23
ENDBRANCH  17  20
ENDBRANCH  13  14
ENDBRANCH  12  13
ENDBRANCH  10  12
ENDBRANCH   5   8
TORSDOF 9
ENDMDL
MODEL      291
REMARK 921   NORMALIZED FREE ENERGY PREDICTED BY IDOCK:   -3.72 KCAL/MOL
REMARK 922        TOTAL FREE ENERGY PREDICTED BY IDOCK:   -7.18 KCAL/MOL
REMARK 923 INTER-LIGAND FREE ENERGY PREDICTED BY IDOCK:   -5.87 KCAL/MOL
REMARK 924 INTRA-LIGAND FREE ENERGY PREDICTED BY IDOCK:   -1.31 KCAL/MOL
REMARK 927      BINDING AFFINITY PREDICTED BY RF-SCORE:    0.00 PKD
ROOT
HETATM    1  C   UNL     1      -8.398   2.467  62.795  1.00  0.00    -0.074 C  
HETATM    2  C   UNL     1      -8.865   3.390  63.877  1.00  0.00    -0.093 A  
HETATM    3  N   UNL     1      -7.937   4.180  64.472  1.00  0.00    -0.085 NA 
HETATM    4  C   UNL     1      -8.392   4.977  65.471  1.00  0.00    -0.126 A  
HETATM    5  C   UNL     1      -9.723   4.993  65.861  1.00  0.00    -0.166 A  
HETATM    6  C   UNL     1     -10.204   3.423  64.265  1.00  0.00    -0.171 A  
HETATM    7  N   UNL     1     -10.673   4.218  65.262  1.00  0.00    -0.187 NA 
ENDROOT
BRANCH   5   8
HETATM    8  C   UNL     1     -10.139   5.855  67.002  1.00  0.00    -0.183 C  
HETATM    9  O   UNL     1     -11.320   6.133  67.180  1.00  0.00    -0.197 OA 
HETATM   10  N   UNL     1      -9.115   6.319  67.805  1.00  0.00    -0.115 N  
HETATM   11  H   UNL     1      -8.166   5.982  67.647  1.00  0.00     0.000 HD 
BRANCH  10  12
HETATM   12  C   UNL     1      -9.359   7.275  68.867  1.00  0.00    -0.144 C  
BRANCH  12  13
HETATM   13  C   UNL     1      -8.113   8.097  69.234  1.00  0.00    -0.117 C  
BRANCH  13  14
HETATM   14  C   UNL     1      -8.217   9.579  68.922  1.00  0.00    -0.116 A  
HETATM   15  C   UNL     1      -7.084  10.406  68.890  1.00  0.00    -0.074 A  
HETATM   16  C   UNL     1      -7.198  11.776  68.647  1.00  0.00    -0.112 A  
HETATM   17  C   UNL     1      -8.445  12.332  68.370  1.00  0.00    -0.138 A  
HETATM   18  C   UNL     1      -9.583  11.521  68.347  1.00  0.00    -0.195 A  
HETATM   19  C   UNL     1      -9.465  10.152  68.615  1.00  0.00    -0.164 A  
BRANCH  17  20
HETATM   20  S   UNL     1      -8.587  14.096  68.196  1.00  0.00    -0.183 S  
HETATM   21  O   UNL     1      -8.004  14.495  66.934  1.00  0.00    -0.115 OA 
HETATM   22  O   UNL     1      -8.121  14.689  69.435  1.00  0.00    -0.089 OA 
BRANCH  20  23
HETATM   23  N   UNL     1     -10.226  14.387  68.177  1.00  0.00    -0.228 N  
HETATM   24  H   UNL     1     -10.787  13.992  68.933  1.00  0.00     0.000 HD 
BRANCH  23  25
HETATM   25  C   UNL     1     -10.882  15.125  67.209  1.00  0.00    -0.316 C  
HETATM   26  O   UNL     1     -10.808  16.340  67.128  1.00  0.00    -0.290 OA 
BRANCH  25  27
HETATM   27  N   UNL     1     -11.604  14.358  66.338  1.00  0.00    -0.365 N  
HETATM   28  H   UNL     1     -12.418  13.843  66.674  1.00  0.00     0.000 HD 
BRANCH  27  29
HETATM   29  C   UNL     1     -11.224  14.269  64.931  1.00  0.00    -0.379 C  
HETATM   30  C   UNL     1     -10.093  13.256  64.721  1.00  0.00    -0.250 C  
HETATM   31  C   UNL     1     -10.562  11.805  64.812  1.00  0.00    -0.351 C  
HETATM   32  C   UNL     1     -11.743  11.534  63.886  1.00  0.00    -0.249 C  
HETATM   33  C   UNL     1     -12.890  12.506  64.140  1.00  0.00    -0.333 C  
HETATM   34  C   UNL     1     -12.430  13.959  64.034  1.00  0.00    -0.263 C  
ENDBRANCH  27  29
ENDBRANCH  25  27
ENDBRANCH  23  25
ENDBRANCH  20  23
ENDBRANCH  17  20
ENDBRANCH  13  14
ENDBRANCH  12  13
ENDBRANCH  10  12
ENDBRANCH   5   8
TORSDOF 9
ENDMDL
MODEL      292
REMARK 921   NORMALIZED FREE ENERGY PREDICTED BY IDOCK:   -3.72 KCAL/MOL
REMARK 922        TOTAL FREE ENERGY PREDICTED BY IDOCK:   -7.17 KCAL/MOL
REMARK 923 INTER-LIGAND FREE ENERGY PREDICTED BY IDOCK:   -5.48 KCAL/MOL
REMARK 924 INTRA-LIGAND FREE ENERGY PREDICTED BY IDOCK:   -1.69 KCAL/MOL
REMARK 927      BINDING AFFINITY PREDICTED BY RF-SCORE:    0.00 PKD
ROOT
HETATM    1  C   UNL     1     -10.039  17.392  66.246  1.00  0.00    -0.328 C  
HETATM    2  C   UNL     1     -10.450  15.975  66.492  1.00  0.00    -0.302 A  
HETATM    3  N   UNL     1     -10.758  15.622  67.765  1.00  0.00    -0.290 NA 
HETATM    4  C   UNL     1     -11.092  14.320  67.953  1.00  0.00    -0.278 A  
HETATM    5  C   UNL     1     -11.124  13.404  66.913  1.00  0.00    -0.292 A  
HETATM    6  C   UNL     1     -10.500  15.049  65.449  1.00  0.00    -0.384 A  
HETATM    7  N   UNL     1     -10.835  13.745  65.624  1.00  0.00    -0.283 NA 
ENDROOT
BRANCH   5   8
HETATM    8  C   UNL     1     -11.448  11.980  67.205  1.00  0.00    -0.335 C  
HETATM    9  O   UNL     1     -11.425  11.136  66.316  1.00  0.00    -0.201 OA 
HETATM   10  N   UNL     1     -11.788  11.701  68.515  1.00  0.00    -0.315 N  
HETATM   11  H   UNL     1     -11.706  12.434  69.218  1.00  0.00     0.000 HD 
BRANCH  10  12
HETATM   12  C   UNL     1     -12.256  10.387  68.912  1.00  0.00     0.469 C  
BRANCH  12  13
HETATM   13  C   UNL     1     -11.958  10.063  70.386  1.00  0.00    -0.318 C  
BRANCH  13  14
HETATM   14  C   UNL     1     -10.969   8.930  70.597  1.00  0.00    -0.287 A  
HETATM   15  C   UNL     1      -9.775   9.118  71.309  1.00  0.00    -0.351 A  
HETATM   16  C   UNL     1      -8.853   8.080  71.456  1.00  0.00    -0.178 A  
HETATM   17  C   UNL     1      -9.141   6.816  70.947  1.00  0.00    -0.153 A  
HETATM   18  C   UNL     1     -10.347   6.590  70.276  1.00  0.00    -0.241 A  
HETATM   19  C   UNL     1     -11.256   7.642  70.110  1.00  0.00    -0.193 A  
BRANCH  17  20
HETATM   20  S   UNL     1      -7.899   5.546  71.028  1.00  0.00    -0.107 S  
HETATM   21  O   UNL     1      -8.547   4.262  71.176  1.00  0.00    -0.090 OA 
HETATM   22  O   UNL     1      -6.905   5.978  71.992  1.00  0.00    -0.068 OA 
BRANCH  20  23
HETATM   23  N   UNL     1      -7.123   5.621  69.557  1.00  0.00    -0.063 N  
HETATM   24  H   UNL     1      -6.922   4.741  69.081  1.00  0.00     0.000 HD 
BRANCH  23  25
HETATM   25  C   UNL     1      -6.730   6.792  68.935  1.00  0.00    -0.053 C  
HETATM   26  O   UNL     1      -6.140   7.691  69.510  1.00  0.00    -0.029 OA 
BRANCH  25  27
HETATM   27  N   UNL     1      -7.048   6.834  67.606  1.00  0.00    -0.082 N  
HETATM   28  H   UNL     1      -6.352   6.563  66.912  1.00  0.00     0.000 HD 
BRANCH  27  29
HETATM   29  C   UNL     1      -8.373   7.262  67.170  1.00  0.00    -0.118 C  
HETATM   30  C   UNL     1      -8.664   8.705  67.597  1.00  0.00    -0.136 C  
HETATM   31  C   UNL     1      -7.920   9.742  66.757  1.00  0.00    -0.105 C  
HETATM   32  C   UNL     1      -8.157   9.535  65.265  1.00  0.00    -0.124 C  
HETATM   33  C   UNL     1      -7.809   8.115  64.832  1.00  0.00    -0.128 C  
HETATM   34  C   UNL     1      -8.563   7.074  65.658  1.00  0.00    -0.121 C  
ENDBRANCH  27  29
ENDBRANCH  25  27
ENDBRANCH  23  25
ENDBRANCH  20  23
ENDBRANCH  17  20
ENDBRANCH  13  14
ENDBRANCH  12  13
ENDBRANCH  10  12
ENDBRANCH   5   8
TORSDOF 9
ENDMDL
MODEL      293
REMARK 921   NORMALIZED FREE ENERGY PREDICTED BY IDOCK:   -3.67 KCAL/MOL
REMARK 922        TOTAL FREE ENERGY PREDICTED BY IDOCK:   -7.09 KCAL/MOL
REMARK 923 INTER-LIGAND FREE ENERGY PREDICTED BY IDOCK:   -6.54 KCAL/MOL
REMARK 924 INTRA-LIGAND FREE ENERGY PREDICTED BY IDOCK:   -0.55 KCAL/MOL
REMARK 927      BINDING AFFINITY PREDICTED BY RF-SCORE:    0.00 PKD
ROOT
HETATM    1  C   UNL     1     -10.374  19.750  66.763  1.00  0.00    -0.604 C  
HETATM    2  C   UNL     1      -9.334  18.986  67.519  1.00  0.00    -0.298 A  
HETATM    3  N   UNL     1      -8.258  19.673  67.978  1.00  0.00    -0.308 NA 
HETATM    4  C   UNL     1      -7.321  18.939  68.628  1.00  0.00    -0.310 A  
HETATM    5  C   UNL     1      -7.450  17.572  68.820  1.00  0.00    -0.258 A  
HETATM    6  C   UNL     1      -9.462  17.613  67.730  1.00  0.00    -0.260 A  
HETATM    7  N   UNL     1      -8.533  16.867  68.381  1.00  0.00    -0.230 NA 
ENDROOT
BRANCH   5   8
HETATM    8  C   UNL     1      -6.354  16.823  69.497  1.00  0.00    -0.229 C  
HETATM    9  O   UNL     1      -5.481  17.416  70.120  1.00  0.00    -0.219 OA 
HETATM   10  N   UNL     1      -6.389  15.450  69.350  1.00  0.00    -0.125 N  
HETATM   11  H   UNL     1      -7.189  15.018  68.888  1.00  0.00     0.000 HD 
BRANCH  10  12
HETATM   12  C   UNL     1      -5.314  14.608  69.838  1.00  0.00    -0.096 C  
BRANCH  12  13
HETATM   13  C   UNL     1      -5.681  13.115  69.856  1.00  0.00    -0.121 C  
BRANCH  13  14
HETATM   14  C   UNL     1      -6.674  12.694  68.788  1.00  0.00    -0.093 A  
HETATM   15  C   UNL     1      -7.975  13.217  68.745  1.00  0.00     0.034 A  
HETATM   16  C   UNL     1      -8.894  12.787  67.786  1.00  0.00    -0.187 A  
HETATM   17  C   UNL     1      -8.506  11.869  66.812  1.00  0.00    -0.167 A  
HETATM   18  C   UNL     1      -7.200  11.370  66.804  1.00  0.00    -0.131 A  
HETATM   19  C   UNL     1      -6.290  11.787  67.784  1.00  0.00    -0.067 A  
BRANCH  17  20
HETATM   20  S   UNL     1      -9.725  11.235  65.685  1.00  0.00    -0.240 S  
HETATM   21  O   UNL     1      -9.163  11.200  64.353  1.00  0.00    -0.188 OA 
HETATM   22  O   UNL     1     -10.959  11.953  65.937  1.00  0.00    -0.288 OA 
BRANCH  20  23
HETATM   23  N   UNL     1     -10.021   9.684  66.213  1.00  0.00    -0.256 N  
HETATM   24  H   UNL     1     -10.206   8.970  65.508  1.00  0.00     0.000 HD 
BRANCH  23  25
HETATM   25  C   UNL     1     -10.035   9.296  67.541  1.00  0.00    -0.202 C  
HETATM   26  O   UNL     1     -10.719   9.841  68.391  1.00  0.00    -0.221 OA 
BRANCH  25  27
HETATM   27  N   UNL     1      -9.225   8.227  67.802  1.00  0.00    -0.134 N  
HETATM   28  H   UNL     1      -8.419   8.343  68.417  1.00  0.00     0.000 HD 
BRANCH  27  29
HETATM   29  C   UNL     1      -9.499   6.921  67.211  1.00  0.00    -0.137 C  
HETATM   30  C   UNL     1      -8.307   5.971  67.372  1.00  0.00    -0.105 C  
HETATM   31  C   UNL     1      -8.157   5.432  68.793  1.00  0.00    -0.087 C  
HETATM   32  C   UNL     1      -9.451   4.804  69.298  1.00  0.00    -0.221 C  
HETATM   33  C   UNL     1     -10.624   5.772  69.192  1.00  0.00    -0.365 C  
HETATM   34  C   UNL     1     -10.789   6.303  67.769  1.00  0.00    -0.424 C  
ENDBRANCH  27  29
ENDBRANCH  25  27
ENDBRANCH  23  25
ENDBRANCH  20  23
ENDBRANCH  17  20
ENDBRANCH  13  14
ENDBRANCH  12  13
ENDBRANCH  10  12
ENDBRANCH   5   8
TORSDOF 9
ENDMDL
MODEL      294
REMARK 921   NORMALIZED FREE ENERGY PREDICTED BY IDOCK:   -3.65 KCAL/MOL
REMARK 922        TOTAL FREE ENERGY PREDICTED BY IDOCK:   -7.06 KCAL/MOL
REMARK 923 INTER-LIGAND FREE ENERGY PREDICTED BY IDOCK:   -6.09 KCAL/MOL
REMARK 924 INTRA-LIGAND FREE ENERGY PREDICTED BY IDOCK:   -0.96 KCAL/MOL
REMARK 927      BINDING AFFINITY PREDICTED BY RF-SCORE:    0.00 PKD
ROOT
HETATM    1  C   UNL     1      -8.606  15.484  67.621  1.00  0.00    -0.175 C  
HETATM    2  C   UNL     1      -8.062  14.101  67.444  1.00  0.00    -0.189 A  
HETATM    3  N   UNL     1      -6.719  13.938  67.535  1.00  0.00    -0.236 NA 
HETATM    4  C   UNL     1      -6.262  12.676  67.334  1.00  0.00    -0.148 A  
HETATM    5  C   UNL     1      -7.109  11.614  67.058  1.00  0.00    -0.145 A  
HETATM    6  C   UNL     1      -8.909  13.024  67.180  1.00  0.00    -0.218 A  
HETATM    7  N   UNL     1      -8.464  11.757  66.980  1.00  0.00    -0.169 NA 
ENDROOT
BRANCH   5   8
HETATM    8  C   UNL     1      -6.530  10.267  66.795  1.00  0.00    -0.073 C  
HETATM    9  O   UNL     1      -5.535   9.884  67.400  1.00  0.00    -0.039 OA 
HETATM   10  N   UNL     1      -7.173   9.518  65.829  1.00  0.00    -0.094 N  
HETATM   11  H   UNL     1      -8.043   9.865  65.426  1.00  0.00     0.000 HD 
BRANCH  10  12
HETATM   12  C   UNL     1      -6.640   8.248  65.376  1.00  0.00    -0.052 C  
BRANCH  12  13
HETATM   13  C   UNL     1      -7.547   7.056  65.727  1.00  0.00    -0.094 C  
BRANCH  13  14
HETATM   14  C   UNL     1      -7.725   6.811  67.215  1.00  0.00    -0.109 A  
HETATM   15  C   UNL     1      -8.959   7.011  67.851  1.00  0.00    -0.122 A  
HETATM   16  C   UNL     1      -9.098   6.827  69.228  1.00  0.00    -0.139 A  
HETATM   17  C   UNL     1      -8.017   6.379  69.983  1.00  0.00    -0.112 A  
HETATM   18  C   UNL     1      -6.789   6.126  69.364  1.00  0.00    -0.062 A  
HETATM   19  C   UNL     1      -6.650   6.335  67.987  1.00  0.00    -0.062 A  
BRANCH  17  20
HETATM   20  S   UNL     1      -8.176   6.280  71.751  1.00  0.00    -0.117 S  
HETATM   21  O   UNL     1      -7.998   7.599  72.315  1.00  0.00    -0.097 OA 
HETATM   22  O   UNL     1      -7.345   5.178  72.196  1.00  0.00    -0.086 OA 
BRANCH  20  23
HETATM   23  N   UNL     1      -9.738   5.762  72.005  1.00  0.00    -0.154 N  
HETATM   24  H   UNL     1     -10.054   4.939  71.493  1.00  0.00     0.000 HD 
BRANCH  23  25
HETATM   25  C   UNL     1     -10.637   6.371  72.862  1.00  0.00    -0.235 C  
HETATM   26  O   UNL     1     -10.305   6.941  73.888  1.00  0.00    -0.346 OA 
BRANCH  25  27
HETATM   27  N   UNL     1     -11.934   6.289  72.436  1.00  0.00    -0.506 N  
HETATM   28  H   UNL     1     -12.602   5.725  72.960  1.00  0.00     0.000 HD 
BRANCH  27  29
HETATM   29  C   UNL     1     -12.371   7.002  71.240  1.00  0.00    -0.383 C  
HETATM   30  C   UNL     1     -13.896   7.158  71.207  1.00  0.00    -0.292 C  
HETATM   31  C   UNL     1     -14.411   8.221  72.176  1.00  0.00    -0.498 C  
HETATM   32  C   UNL     1     -13.701   9.556  71.979  1.00  0.00    -0.435 C  
HETATM   33  C   UNL     1     -12.187   9.407  72.071  1.00  0.00    -0.396 C  
HETATM   34  C   UNL     1     -11.664   8.356  71.093  1.00  0.00    -0.315 C  
ENDBRANCH  27  29
ENDBRANCH  25  27
ENDBRANCH  23  25
ENDBRANCH  20  23
ENDBRANCH  17  20
ENDBRANCH  13  14
ENDBRANCH  12  13
ENDBRANCH  10  12
ENDBRANCH   5   8
TORSDOF 9
ENDMDL
MODEL      295
REMARK 921   NORMALIZED FREE ENERGY PREDICTED BY IDOCK:   -3.63 KCAL/MOL
REMARK 922        TOTAL FREE ENERGY PREDICTED BY IDOCK:   -7.04 KCAL/MOL
REMARK 923 INTER-LIGAND FREE ENERGY PREDICTED BY IDOCK:   -6.33 KCAL/MOL
REMARK 924 INTRA-LIGAND FREE ENERGY PREDICTED BY IDOCK:   -0.71 KCAL/MOL
REMARK 927      BINDING AFFINITY PREDICTED BY RF-SCORE:    0.00 PKD
ROOT
HETATM    1  C   UNL     1      -9.120  15.694  66.122  1.00  0.00    -0.378 C  
HETATM    2  C   UNL     1      -9.848  14.685  66.953  1.00  0.00    -0.249 A  
HETATM    3  N   UNL     1      -9.108  13.742  67.588  1.00  0.00    -0.186 NA 
HETATM    4  C   UNL     1      -9.807  12.825  68.302  1.00  0.00    -0.224 A  
HETATM    5  C   UNL     1     -11.191  12.847  68.387  1.00  0.00    -0.270 A  
HETATM    6  C   UNL     1     -11.239  14.708  67.056  1.00  0.00    -0.344 A  
HETATM    7  N   UNL     1     -11.950  13.798  67.770  1.00  0.00    -0.370 NA 
ENDROOT
BRANCH   5   8
HETATM    8  C   UNL     1     -11.892  11.775  69.147  1.00  0.00    -0.326 C  
HETATM    9  O   UNL     1     -12.608  10.963  68.571  1.00  0.00    -0.137 OA 
HETATM   10  N   UNL     1     -11.695  11.784  70.514  1.00  0.00    -0.493 N  
HETATM   11  H   UNL     1     -11.023  12.437  70.916  1.00  0.00     0.000 HD 
BRANCH  10  12
HETATM   12  C   UNL     1     -12.421  10.885  71.391  1.00  0.00    -0.355 C  
BRANCH  12  13
HETATM   13  C   UNL     1     -12.286   9.409  70.983  1.00  0.00    -0.332 C  
BRANCH  13  14
HETATM   14  C   UNL     1     -10.857   8.917  70.844  1.00  0.00    -0.308 A  
HETATM   15  C   UNL     1      -9.892   9.170  71.830  1.00  0.00    -0.123 A  
HETATM   16  C   UNL     1      -8.570   8.753  71.669  1.00  0.00    -0.228 A  
HETATM   17  C   UNL     1      -8.204   8.018  70.544  1.00  0.00    -0.118 A  
HETATM   18  C   UNL     1      -9.159   7.710  69.569  1.00  0.00    -0.146 A  
HETATM   19  C   UNL     1     -10.477   8.153  69.725  1.00  0.00    -0.227 A  
BRANCH  17  20
HETATM   20  S   UNL     1      -6.491   7.612  70.293  1.00  0.00    -0.038 S  
HETATM   21  O   UNL     1      -5.781   8.801  69.874  1.00  0.00    -0.028 OA 
HETATM   22  O   UNL     1      -6.449   6.413  69.479  1.00  0.00    -0.040 OA 
BRANCH  20  23
HETATM   23  N   UNL     1      -5.949   7.128  71.790  1.00  0.00    -0.037 N  
HETATM   24  H   UNL     1      -5.090   7.550  72.143  1.00  0.00     0.000 HD 
BRANCH  23  25
HETATM   25  C   UNL     1      -6.580   6.193  72.590  1.00  0.00    -0.064 C  
HETATM   26  O   UNL     1      -6.371   6.084  73.787  1.00  0.00    -0.066 OA 
BRANCH  25  27
HETATM   27  N   UNL     1      -7.479   5.417  71.912  1.00  0.00    -0.091 N  
HETATM   28  H   UNL     1      -7.521   5.467  70.894  1.00  0.00     0.000 HD 
BRANCH  27  29
HETATM   29  C   UNL     1      -8.377   4.518  72.629  1.00  0.00    -0.110 C  
HETATM   30  C   UNL     1      -9.047   5.223  73.814  1.00  0.00    -0.123 C  
HETATM   31  C   UNL     1     -10.153   6.188  73.391  1.00  0.00    -0.207 C  
HETATM   32  C   UNL     1     -11.176   5.511  72.484  1.00  0.00    -0.330 C  
HETATM   33  C   UNL     1     -10.512   4.862  71.275  1.00  0.00    -0.168 C  
HETATM   34  C   UNL     1      -9.415   3.884  71.692  1.00  0.00    -0.220 C  
ENDBRANCH  27  29
ENDBRANCH  25  27
ENDBRANCH  23  25
ENDBRANCH  20  23
ENDBRANCH  17  20
ENDBRANCH  13  14
ENDBRANCH  12  13
ENDBRANCH  10  12
ENDBRANCH   5   8
TORSDOF 9
ENDMDL
MODEL      296
REMARK 921   NORMALIZED FREE ENERGY PREDICTED BY IDOCK:   -3.62 KCAL/MOL
REMARK 922        TOTAL FREE ENERGY PREDICTED BY IDOCK:   -7.03 KCAL/MOL
REMARK 923 INTER-LIGAND FREE ENERGY PREDICTED BY IDOCK:   -6.07 KCAL/MOL
REMARK 924 INTRA-LIGAND FREE ENERGY PREDICTED BY IDOCK:   -0.95 KCAL/MOL
REMARK 927      BINDING AFFINITY PREDICTED BY RF-SCORE:    0.00 PKD
ROOT
HETATM    1  C   UNL     1     -10.452  19.761  67.782  1.00  0.00    -0.555 C  
HETATM    2  C   UNL     1      -9.358  18.820  68.176  1.00  0.00    -0.316 A  
HETATM    3  N   UNL     1      -8.089  19.300  68.182  1.00  0.00    -0.302 NA 
HETATM    4  C   UNL     1      -7.121  18.408  68.510  1.00  0.00    -0.273 A  
HETATM    5  C   UNL     1      -7.403  17.088  68.826  1.00  0.00    -0.236 A  
HETATM    6  C   UNL     1      -9.634  17.494  68.510  1.00  0.00    -0.305 A  
HETATM    7  N   UNL     1      -8.674  16.592  68.842  1.00  0.00    -0.254 NA 
ENDROOT
BRANCH   5   8
HETATM    8  C   UNL     1      -6.283  16.153  69.125  1.00  0.00    -0.153 C  
HETATM    9  O   UNL     1      -5.127  16.557  69.184  1.00  0.00    -0.119 OA 
HETATM   10  N   UNL     1      -6.640  14.830  69.302  1.00  0.00    -0.117 N  
HETATM   11  H   UNL     1      -7.628  14.578  69.320  1.00  0.00     0.000 HD 
BRANCH  10  12
HETATM   12  C   UNL     1      -5.641  13.791  69.463  1.00  0.00    -0.090 C  
BRANCH  12  13
HETATM   13  C   UNL     1      -6.141  12.600  70.297  1.00  0.00    -0.066 C  
BRANCH  13  14
HETATM   14  C   UNL     1      -6.649  11.424  69.483  1.00  0.00    -0.129 A  
HETATM   15  C   UNL     1      -7.596  11.591  68.461  1.00  0.00    -0.130 A  
HETATM   16  C   UNL     1      -8.089  10.495  67.750  1.00  0.00    -0.106 A  
HETATM   17  C   UNL     1      -7.595   9.218  68.008  1.00  0.00    -0.084 A  
HETATM   18  C   UNL     1      -6.615   9.033  68.987  1.00  0.00    -0.048 A  
HETATM   19  C   UNL     1      -6.142  10.133  69.713  1.00  0.00    -0.050 A  
BRANCH  17  20
HETATM   20  S   UNL     1      -8.330   7.823  67.188  1.00  0.00    -0.118 S  
HETATM   21  O   UNL     1      -7.683   6.613  67.644  1.00  0.00    -0.103 OA 
HETATM   22  O   UNL     1      -8.381   8.134  65.772  1.00  0.00    -0.120 OA 
BRANCH  20  23
HETATM   23  N   UNL     1      -9.920   7.833  67.681  1.00  0.00    -0.166 N  
HETATM   24  H   UNL     1     -10.640   7.749  66.963  1.00  0.00     0.000 HD 
BRANCH  23  25
HETATM   25  C   UNL     1     -10.334   7.948  68.996  1.00  0.00    -0.214 C  
HETATM   26  O   UNL     1     -11.036   8.861  69.400  1.00  0.00    -0.173 OA 
BRANCH  25  27
HETATM   27  N   UNL     1      -9.898   6.927  69.793  1.00  0.00    -0.170 N  
HETATM   28  H   UNL     1      -8.903   6.835  69.995  1.00  0.00     0.000 HD 
BRANCH  27  29
HETATM   29  C   UNL     1     -10.842   5.968  70.360  1.00  0.00    -0.318 C  
HETATM   30  C   UNL     1     -10.120   4.743  70.931  1.00  0.00    -0.275 C  
HETATM   31  C   UNL     1      -9.420   5.023  72.260  1.00  0.00    -0.169 C  
HETATM   32  C   UNL     1     -10.370   5.645  73.278  1.00  0.00    -0.234 C  
HETATM   33  C   UNL     1     -11.041   6.899  72.727  1.00  0.00    -0.304 C  
HETATM   34  C   UNL     1     -11.756   6.620  71.406  1.00  0.00    -0.374 C  
ENDBRANCH  27  29
ENDBRANCH  25  27
ENDBRANCH  23  25
ENDBRANCH  20  23
ENDBRANCH  17  20
ENDBRANCH  13  14
ENDBRANCH  12  13
ENDBRANCH  10  12
ENDBRANCH   5   8
TORSDOF 9
ENDMDL
MODEL      297
REMARK 921   NORMALIZED FREE ENERGY PREDICTED BY IDOCK:   -3.62 KCAL/MOL
REMARK 922        TOTAL FREE ENERGY PREDICTED BY IDOCK:   -7.02 KCAL/MOL
REMARK 923 INTER-LIGAND FREE ENERGY PREDICTED BY IDOCK:   -6.38 KCAL/MOL
REMARK 924 INTRA-LIGAND FREE ENERGY PREDICTED BY IDOCK:   -0.64 KCAL/MOL
REMARK 927      BINDING AFFINITY PREDICTED BY RF-SCORE:    0.00 PKD
ROOT
HETATM    1  C   UNL     1     -12.585  12.135  63.332  1.00  0.00    -0.584 C  
HETATM    2  C   UNL     1     -11.541  12.432  64.361  1.00  0.00    -0.354 A  
HETATM    3  N   UNL     1     -11.061  11.392  65.088  1.00  0.00    -0.188 NA 
HETATM    4  C   UNL     1     -10.141  11.707  66.034  1.00  0.00    -0.224 A  
HETATM    5  C   UNL     1      -9.710  13.007  66.247  1.00  0.00    -0.263 A  
HETATM    6  C   UNL     1     -11.090  13.735  64.573  1.00  0.00    -0.380 A  
HETATM    7  N   UNL     1     -10.168  14.063  65.515  1.00  0.00    -0.332 NA 
ENDROOT
BRANCH   5   8
HETATM    8  C   UNL     1      -8.737  13.283  67.341  1.00  0.00    -0.206 C  
HETATM    9  O   UNL     1      -8.475  14.434  67.672  1.00  0.00    -0.162 OA 
HETATM   10  N   UNL     1      -8.156  12.171  67.919  1.00  0.00    -0.142 N  
HETATM   11  H   UNL     1      -8.481  11.242  67.651  1.00  0.00     0.000 HD 
BRANCH  10  12
HETATM   12  C   UNL     1      -7.094  12.294  68.898  1.00  0.00    -0.088 C  
BRANCH  12  13
HETATM   13  C   UNL     1      -6.561  10.934  69.381  1.00  0.00    -0.095 C  
BRANCH  13  14
HETATM   14  C   UNL     1      -7.579  10.077  70.110  1.00  0.00    -0.168 A  
HETATM   15  C   UNL     1      -8.938  10.089  69.760  1.00  0.00    -0.209 A  
HETATM   16  C   UNL     1      -9.871   9.331  70.468  1.00  0.00    -0.310 A  
HETATM   17  C   UNL     1      -9.451   8.497  71.502  1.00  0.00    -0.222 A  
HETATM   18  C   UNL     1      -8.095   8.430  71.838  1.00  0.00    -0.193 A  
HETATM   19  C   UNL     1      -7.167   9.212  71.140  1.00  0.00    -0.091 A  
BRANCH  17  20
HETATM   20  S   UNL     1     -10.668   7.645  72.478  1.00  0.00    -0.327 S  
HETATM   21  O   UNL     1     -11.943   8.313  72.331  1.00  0.00    -0.361 OA 
HETATM   22  O   UNL     1     -10.098   7.443  73.796  1.00  0.00    -0.327 OA 
BRANCH  20  23
HETATM   23  N   UNL     1     -10.749   6.121  71.813  1.00  0.00    -0.234 N  
HETATM   24  H   UNL     1     -10.645   6.038  70.801  1.00  0.00     0.000 HD 
BRANCH  23  25
HETATM   25  C   UNL     1     -10.948   4.958  72.535  1.00  0.00    -0.137 C  
HETATM   26  O   UNL     1     -11.835   4.827  73.363  1.00  0.00    -0.218 OA 
BRANCH  25  27
HETATM   27  N   UNL     1     -10.068   3.963  72.215  1.00  0.00    -0.169 N  
HETATM   28  H   UNL     1     -10.031   3.611  71.259  1.00  0.00     0.000 HD 
BRANCH  27  29
HETATM   29  C   UNL     1      -9.181   3.398  73.228  1.00  0.00    -0.097 C  
HETATM   30  C   UNL     1      -8.315   2.273  72.649  1.00  0.00    -0.059 C  
HETATM   31  C   UNL     1      -7.179   2.785  71.765  1.00  0.00    -0.039 C  
HETATM   32  C   UNL     1      -6.337   3.836  72.479  1.00  0.00    -0.017 C  
HETATM   33  C   UNL     1      -7.195   4.984  73.002  1.00  0.00    -0.086 C  
HETATM   34  C   UNL     1      -8.323   4.479  73.899  1.00  0.00    -0.104 C  
ENDBRANCH  27  29
ENDBRANCH  25  27
ENDBRANCH  23  25
ENDBRANCH  20  23
ENDBRANCH  17  20
ENDBRANCH  13  14
ENDBRANCH  12  13
ENDBRANCH  10  12
ENDBRANCH   5   8
TORSDOF 9
ENDMDL
MODEL      298
REMARK 921   NORMALIZED FREE ENERGY PREDICTED BY IDOCK:   -3.62 KCAL/MOL
REMARK 922        TOTAL FREE ENERGY PREDICTED BY IDOCK:   -7.01 KCAL/MOL
REMARK 923 INTER-LIGAND FREE ENERGY PREDICTED BY IDOCK:   -5.61 KCAL/MOL
REMARK 924 INTRA-LIGAND FREE ENERGY PREDICTED BY IDOCK:   -1.40 KCAL/MOL
REMARK 927      BINDING AFFINITY PREDICTED BY RF-SCORE:    0.00 PKD
ROOT
HETATM    1  C   UNL     1     -11.756  15.498  68.052  1.00  0.00    -0.198 C  
HETATM    2  C   UNL     1     -10.863  14.383  67.606  1.00  0.00    -0.273 A  
HETATM    3  N   UNL     1      -9.535  14.502  67.858  1.00  0.00    -0.208 NA 
HETATM    4  C   UNL     1      -8.754  13.488  67.408  1.00  0.00    -0.220 A  
HETATM    5  C   UNL     1      -9.275  12.391  66.738  1.00  0.00    -0.212 A  
HETATM    6  C   UNL     1     -11.379  13.269  66.944  1.00  0.00    -0.318 A  
HETATM    7  N   UNL     1     -10.609  12.246  66.492  1.00  0.00    -0.230 NA 
ENDROOT
BRANCH   5   8
HETATM    8  C   UNL     1      -8.350  11.342  66.227  1.00  0.00    -0.111 C  
HETATM    9  O   UNL     1      -7.390  10.972  66.894  1.00  0.00    -0.118 OA 
HETATM   10  N   UNL     1      -8.639  10.850  64.968  1.00  0.00    -0.345 N  
HETATM   11  H   UNL     1      -9.499  11.143  64.505  1.00  0.00     0.000 HD 
BRANCH  10  12
HETATM   12  C   UNL     1      -7.750   9.927  64.292  1.00  0.00    -0.139 C  
BRANCH  12  13
HETATM   13  C   UNL     1      -8.229   8.468  64.364  1.00  0.00    -0.153 C  
BRANCH  13  14
HETATM   14  C   UNL     1      -8.545   7.973  65.765  1.00  0.00    -0.174 A  
HETATM   15  C   UNL     1      -9.866   7.826  66.213  1.00  0.00    -0.111 A  
HETATM   16  C   UNL     1     -10.143   7.415  67.518  1.00  0.00    -0.250 A  
HETATM   17  C   UNL     1      -9.100   7.083  68.379  1.00  0.00    -0.127 A  
HETATM   18  C   UNL     1      -7.775   7.174  67.940  1.00  0.00    -0.113 A  
HETATM   19  C   UNL     1      -7.504   7.611  66.638  1.00  0.00    -0.093 A  
BRANCH  17  20
HETATM   20  S   UNL     1      -9.467   6.691  70.074  1.00  0.00    -0.156 S  
HETATM   21  O   UNL     1      -9.725   5.272  70.185  1.00  0.00    -0.166 OA 
HETATM   22  O   UNL     1     -10.453   7.650  70.533  1.00  0.00    -0.214 OA 
BRANCH  20  23
HETATM   23  N   UNL     1      -8.079   7.079  70.907  1.00  0.00    -0.108 N  
HETATM   24  H   UNL     1      -7.299   7.466  70.375  1.00  0.00     0.000 HD 
BRANCH  23  25
HETATM   25  C   UNL     1      -7.908   6.914  72.269  1.00  0.00    -0.093 C  
HETATM   26  O   UNL     1      -7.490   7.794  73.004  1.00  0.00    -0.094 OA 
BRANCH  25  27
HETATM   27  N   UNL     1      -8.273   5.675  72.716  1.00  0.00    -0.112 N  
HETATM   28  H   UNL     1      -8.046   4.851  72.159  1.00  0.00     0.000 HD 
BRANCH  27  29
HETATM   29  C   UNL     1      -8.984   5.518  73.981  1.00  0.00    -0.119 C  
HETATM   30  C   UNL     1     -10.392   6.122  73.911  1.00  0.00    -0.302 C  
HETATM   31  C   UNL     1     -11.373   5.264  73.113  1.00  0.00    -0.358 C  
HETATM   32  C   UNL     1     -11.400   3.824  73.613  1.00  0.00    -0.231 C  
HETATM   33  C   UNL     1     -10.005   3.207  73.625  1.00  0.00    -0.167 C  
HETATM   34  C   UNL     1      -9.023   4.053  74.435  1.00  0.00    -0.099 C  
ENDBRANCH  27  29
ENDBRANCH  25  27
ENDBRANCH  23  25
ENDBRANCH  20  23
ENDBRANCH  17  20
ENDBRANCH  13  14
ENDBRANCH  12  13
ENDBRANCH  10  12
ENDBRANCH   5   8
TORSDOF 9
ENDMDL
MODEL      299
REMARK 921   NORMALIZED FREE ENERGY PREDICTED BY IDOCK:   -3.62 KCAL/MOL
REMARK 922        TOTAL FREE ENERGY PREDICTED BY IDOCK:   -7.01 KCAL/MOL
REMARK 923 INTER-LIGAND FREE ENERGY PREDICTED BY IDOCK:   -5.71 KCAL/MOL
REMARK 924 INTRA-LIGAND FREE ENERGY PREDICTED BY IDOCK:   -1.30 KCAL/MOL
REMARK 927      BINDING AFFINITY PREDICTED BY RF-SCORE:    0.00 PKD
ROOT
HETATM    1  C   UNL     1     -12.375  15.907  71.569  1.00  0.00    -0.503 C  
HETATM    2  C   UNL     1     -11.625  15.140  70.526  1.00  0.00    -0.300 A  
HETATM    3  N   UNL     1     -12.068  13.894  70.223  1.00  0.00    -0.333 NA 
HETATM    4  C   UNL     1     -11.341  13.217  69.299  1.00  0.00    -0.253 A  
HETATM    5  C   UNL     1     -10.218  13.760  68.693  1.00  0.00    -0.208 A  
HETATM    6  C   UNL     1     -10.503  15.684  69.901  1.00  0.00    -0.320 A  
HETATM    7  N   UNL     1      -9.769  15.018  68.973  1.00  0.00    -0.225 NA 
ENDROOT
BRANCH   5   8
HETATM    8  C   UNL     1      -9.440  12.937  67.727  1.00  0.00    -0.202 C  
HETATM    9  O   UNL     1      -8.226  12.812  67.844  1.00  0.00    -0.144 OA 
HETATM   10  N   UNL     1     -10.172  12.360  66.707  1.00  0.00    -0.218 N  
HETATM   11  H   UNL     1     -11.189  12.438  66.718  1.00  0.00     0.000 HD 
BRANCH  10  12
HETATM   12  C   UNL     1      -9.528  11.647  65.621  1.00  0.00    -0.209 C  
BRANCH  12  13
HETATM   13  C   UNL     1     -10.083  10.227  65.423  1.00  0.00    -0.354 C  
BRANCH  13  14
HETATM   14  C   UNL     1      -9.683   9.234  66.500  1.00  0.00    -0.305 A  
HETATM   15  C   UNL     1     -10.516   8.164  66.860  1.00  0.00    -0.379 A  
HETATM   16  C   UNL     1     -10.158   7.286  67.884  1.00  0.00    -0.217 A  
HETATM   17  C   UNL     1      -8.928   7.426  68.524  1.00  0.00    -0.128 A  
HETATM   18  C   UNL     1      -8.059   8.455  68.148  1.00  0.00    -0.120 A  
HETATM   19  C   UNL     1      -8.434   9.347  67.137  1.00  0.00    -0.128 A  
BRANCH  17  20
HETATM   20  S   UNL     1      -8.549   6.382  69.912  1.00  0.00    -0.139 S  
HETATM   21  O   UNL     1      -8.994   7.031  71.126  1.00  0.00    -0.145 OA 
HETATM   22  O   UNL     1      -7.167   5.966  69.772  1.00  0.00    -0.066 OA 
BRANCH  20  23
HETATM   23  N   UNL     1      -9.437   4.998  69.654  1.00  0.00    -0.130 N  
HETATM   24  H   UNL     1     -10.299   5.081  69.115  1.00  0.00     0.000 HD 
BRANCH  23  25
HETATM   25  C   UNL     1      -9.088   3.743  70.119  1.00  0.00    -0.125 C  
HETATM   26  O   UNL     1      -9.577   2.710  69.692  1.00  0.00    -0.107 OA 
BRANCH  25  27
HETATM   27  N   UNL     1      -8.126   3.771  71.089  1.00  0.00    -0.063 N  
HETATM   28  H   UNL     1      -7.216   4.184  70.885  1.00  0.00     0.000 HD 
BRANCH  27  29
HETATM   29  C   UNL     1      -8.387   3.218  72.415  1.00  0.00    -0.079 C  
HETATM   30  C   UNL     1      -7.143   2.531  72.990  1.00  0.00    -0.028 C  
HETATM   31  C   UNL     1      -6.083   3.517  73.477  1.00  0.00    -0.015 C  
HETATM   32  C   UNL     1      -6.665   4.537  74.449  1.00  0.00    -0.065 C  
HETATM   33  C   UNL     1      -7.866   5.262  73.851  1.00  0.00    -0.101 C  
HETATM   34  C   UNL     1      -8.937   4.281  73.377  1.00  0.00    -0.104 C  
ENDBRANCH  27  29
ENDBRANCH  25  27
ENDBRANCH  23  25
ENDBRANCH  20  23
ENDBRANCH  17  20
ENDBRANCH  13  14
ENDBRANCH  12  13
ENDBRANCH  10  12
ENDBRANCH   5   8
TORSDOF 9
ENDMDL
MODEL      300
REMARK 921   NORMALIZED FREE ENERGY PREDICTED BY IDOCK:   -3.60 KCAL/MOL
REMARK 922        TOTAL FREE ENERGY PREDICTED BY IDOCK:   -6.99 KCAL/MOL
REMARK 923 INTER-LIGAND FREE ENERGY PREDICTED BY IDOCK:   -5.73 KCAL/MOL
REMARK 924 INTRA-LIGAND FREE ENERGY PREDICTED BY IDOCK:   -1.26 KCAL/MOL
REMARK 927      BINDING AFFINITY PREDICTED BY RF-SCORE:    0.00 PKD
ROOT
HETATM    1  C   UNL     1      -7.266   2.397  67.708  1.00  0.00    -0.048 C  
HETATM    2  C   UNL     1      -7.178   3.753  67.082  1.00  0.00    -0.064 A  
HETATM    3  N   UNL     1      -6.531   4.724  67.774  1.00  0.00    -0.044 NA 
HETATM    4  C   UNL     1      -6.503   5.948  67.189  1.00  0.00    -0.047 A  
HETATM    5  C   UNL     1      -7.091   6.197  65.958  1.00  0.00    -0.067 A  
HETATM    6  C   UNL     1      -7.754   4.009  65.837  1.00  0.00    -0.090 A  
HETATM    7  N   UNL     1      -7.730   5.229  65.240  1.00  0.00    -0.082 NA 
ENDROOT
BRANCH   5   8
HETATM    8  C   UNL     1      -7.065   7.579  65.404  1.00  0.00    -0.063 C  
HETATM    9  O   UNL     1      -7.068   7.769  64.193  1.00  0.00    -0.069 OA 
HETATM   10  N   UNL     1      -7.017   8.597  66.337  1.00  0.00    -0.077 N  
HETATM   11  H   UNL     1      -7.100   8.369  67.328  1.00  0.00     0.000 HD 
BRANCH  10  12
HETATM   12  C   UNL     1      -6.851   9.981  65.940  1.00  0.00    -0.108 C  
BRANCH  12  13
HETATM   13  C   UNL     1      -8.182  10.674  65.604  1.00  0.00    -0.154 C  
BRANCH  13  14
HETATM   14  C   UNL     1      -9.137  10.814  66.775  1.00  0.00    -0.167 A  
HETATM   15  C   UNL     1      -8.795  10.370  68.061  1.00  0.00    -0.130 A  
HETATM   16  C   UNL     1      -9.700  10.463  69.120  1.00  0.00    -0.234 A  
HETATM   17  C   UNL     1     -10.943  11.060  68.923  1.00  0.00    -0.227 A  
HETATM   18  C   UNL     1     -11.289  11.555  67.662  1.00  0.00    -0.358 A  
HETATM   19  C   UNL     1     -10.386  11.437  66.599  1.00  0.00    -0.272 A  
BRANCH  17  20
HETATM   20  S   UNL     1     -12.130  11.047  70.247  1.00  0.00    -0.384 S  
HETATM   21  O   UNL     1     -13.337  10.392  69.793  1.00  0.00     0.122 OA 
HETATM   22  O   UNL     1     -12.188  12.393  70.785  1.00  0.00    -0.369 OA 
BRANCH  20  23
HETATM   23  N   UNL     1     -11.413  10.143  71.447  1.00  0.00    -0.266 N  
HETATM   24  H   UNL     1     -10.651  10.571  71.973  1.00  0.00     0.000 HD 
BRANCH  23  25
HETATM   25  C   UNL     1     -11.779   8.851  71.782  1.00  0.00    -0.362 C  
HETATM   26  O   UNL     1     -12.742   8.588  72.483  1.00  0.00    -0.362 OA 
BRANCH  25  27
HETATM   27  N   UNL     1     -10.968   7.898  71.232  1.00  0.00    -0.235 N  
HETATM   28  H   UNL     1     -10.036   8.154  70.909  1.00  0.00     0.000 HD 
BRANCH  27  29
HETATM   29  C   UNL     1     -11.423   6.517  71.103  1.00  0.00    -0.326 C  
HETATM   30  C   UNL     1     -11.123   5.956  69.708  1.00  0.00    -0.422 C  
HETATM   31  C   UNL     1      -9.648   5.618  69.501  1.00  0.00    -0.192 C  
HETATM   32  C   UNL     1      -9.119   4.706  70.603  1.00  0.00    -0.181 C  
HETATM   33  C   UNL     1      -9.365   5.295  71.987  1.00  0.00    -0.159 C  
HETATM   34  C   UNL     1     -10.842   5.621  72.205  1.00  0.00    -0.295 C  
ENDBRANCH  27  29
ENDBRANCH  25  27
ENDBRANCH  23  25
ENDBRANCH  20  23
ENDBRANCH  17  20
ENDBRANCH  13  14
ENDBRANCH  12  13
ENDBRANCH  10  12
ENDBRANCH   5   8
TORSDOF 9
ENDMDL
MODEL      301
REMARK 921   NORMALIZED FREE ENERGY PREDICTED BY IDOCK:   -3.58 KCAL/MOL
REMARK 922        TOTAL FREE ENERGY PREDICTED BY IDOCK:   -6.95 KCAL/MOL
REMARK 923 INTER-LIGAND FREE ENERGY PREDICTED BY IDOCK:   -4.73 KCAL/MOL
REMARK 924 INTRA-LIGAND FREE ENERGY PREDICTED BY IDOCK:   -2.22 KCAL/MOL
REMARK 927      BINDING AFFINITY PREDICTED BY RF-SCORE:    0.00 PKD
ROOT
HETATM    1  C   UNL     1      -5.236  14.296  71.785  1.00  0.00    -0.183 C  
HETATM    2  C   UNL     1      -5.868  13.600  70.622  1.00  0.00    -0.179 A  
HETATM    3  N   UNL     1      -5.900  12.244  70.642  1.00  0.00    -0.276 NA 
HETATM    4  C   UNL     1      -6.450  11.649  69.554  1.00  0.00    -0.122 A  
HETATM    5  C   UNL     1      -6.955  12.375  68.486  1.00  0.00    -0.092 A  
HETATM    6  C   UNL     1      -6.393  14.322  69.549  1.00  0.00    -0.127 A  
HETATM    7  N   UNL     1      -6.948  13.739  68.456  1.00  0.00    -0.094 NA 
ENDROOT
BRANCH   5   8
HETATM    8  C   UNL     1      -7.495  11.651  67.302  1.00  0.00    -0.143 C  
HETATM    9  O   UNL     1      -6.919  11.697  66.221  1.00  0.00     0.047 OA 
HETATM   10  N   UNL     1      -8.675  10.962  67.510  1.00  0.00    -0.129 N  
HETATM   11  H   UNL     1      -9.056  10.899  68.453  1.00  0.00     0.000 HD 
BRANCH  10  12
HETATM   12  C   UNL     1      -9.384  10.327  66.416  1.00  0.00    -0.165 C  
BRANCH  12  13
HETATM   13  C   UNL     1     -10.418   9.292  66.890  1.00  0.00    -0.284 C  
BRANCH  13  14
HETATM   14  C   UNL     1      -9.982   7.846  66.738  1.00  0.00    -0.333 A  
HETATM   15  C   UNL     1     -10.803   6.783  67.147  1.00  0.00    -0.462 A  
HETATM   16  C   UNL     1     -10.371   5.459  67.044  1.00  0.00    -0.299 A  
HETATM   17  C   UNL     1      -9.134   5.172  66.472  1.00  0.00    -0.127 A  
HETATM   18  C   UNL     1      -8.319   6.212  66.012  1.00  0.00    -0.136 A  
HETATM   19  C   UNL     1      -8.747   7.538  66.140  1.00  0.00    -0.174 A  
BRANCH  17  20
HETATM   20  S   UNL     1      -8.547   3.494  66.473  1.00  0.00    -0.123 S  
HETATM   21  O   UNL     1      -8.009   3.182  65.167  1.00  0.00    -0.081 OA 
HETATM   22  O   UNL     1      -9.596   2.672  67.045  1.00  0.00    -0.032 OA 
BRANCH  20  23
HETATM   23  N   UNL     1      -7.328   3.475  67.606  1.00  0.00    -0.058 N  
HETATM   24  H   UNL     1      -6.397   3.764  67.306  1.00  0.00     0.000 HD 
BRANCH  23  25
HETATM   25  C   UNL     1      -7.489   3.093  68.926  1.00  0.00    -0.048 C  
HETATM   26  O   UNL     1      -6.737   2.320  69.496  1.00  0.00    -0.032 OA 
BRANCH  25  27
HETATM   27  N   UNL     1      -8.560   3.685  69.536  1.00  0.00    -0.064 N  
HETATM   28  H   UNL     1      -9.484   3.613  69.111  1.00  0.00     0.000 HD 
BRANCH  27  29
HETATM   29  C   UNL     1      -8.394   4.416  70.788  1.00  0.00    -0.079 C  
HETATM   30  C   UNL     1      -7.492   5.642  70.605  1.00  0.00    -0.085 C  
HETATM   31  C   UNL     1      -8.186   6.795  69.882  1.00  0.00    -0.127 C  
HETATM   32  C   UNL     1      -9.510   7.161  70.543  1.00  0.00    -0.162 C  
HETATM   33  C   UNL     1     -10.429   5.951  70.669  1.00  0.00    -0.316 C  
HETATM   34  C   UNL     1      -9.746   4.800  71.406  1.00  0.00    -0.240 C  
ENDBRANCH  27  29
ENDBRANCH  25  27
ENDBRANCH  23  25
ENDBRANCH  20  23
ENDBRANCH  17  20
ENDBRANCH  13  14
ENDBRANCH  12  13
ENDBRANCH  10  12
ENDBRANCH   5   8
TORSDOF 9
ENDMDL
MODEL      302
REMARK 921   NORMALIZED FREE ENERGY PREDICTED BY IDOCK:   -3.56 KCAL/MOL
REMARK 922        TOTAL FREE ENERGY PREDICTED BY IDOCK:   -6.93 KCAL/MOL
REMARK 923 INTER-LIGAND FREE ENERGY PREDICTED BY IDOCK:   -5.79 KCAL/MOL
REMARK 924 INTRA-LIGAND FREE ENERGY PREDICTED BY IDOCK:   -1.14 KCAL/MOL
REMARK 927      BINDING AFFINITY PREDICTED BY RF-SCORE:    0.00 PKD
ROOT
HETATM    1  C   UNL     1      -6.273  18.114  69.347  1.00  0.00    -0.251 C  
HETATM    2  C   UNL     1      -7.006  17.047  68.598  1.00  0.00    -0.202 A  
HETATM    3  N   UNL     1      -7.027  17.131  67.244  1.00  0.00    -0.156 NA 
HETATM    4  C   UNL     1      -7.731  16.165  66.602  1.00  0.00    -0.230 A  
HETATM    5  C   UNL     1      -8.385  15.148  67.281  1.00  0.00    -0.201 A  
HETATM    6  C   UNL     1      -7.655  16.012  69.271  1.00  0.00    -0.230 A  
HETATM    7  N   UNL     1      -8.360  15.037  68.641  1.00  0.00    -0.157 NA 
ENDROOT
BRANCH   5   8
HETATM    8  C   UNL     1      -9.183  14.153  66.512  1.00  0.00    -0.224 C  
HETATM    9  O   UNL     1     -10.245  14.469  65.989  1.00  0.00    -0.288 OA 
HETATM   10  N   UNL     1      -8.654  12.877  66.456  1.00  0.00    -0.427 N  
HETATM   11  H   UNL     1      -7.726  12.705  66.843  1.00  0.00     0.000 HD 
BRANCH  10  12
HETATM   12  C   UNL     1      -9.387  11.779  65.858  1.00  0.00    -0.202 C  
BRANCH  12  13
HETATM   13  C   UNL     1      -9.946  10.793  66.898  1.00  0.00    -0.240 C  
BRANCH  13  14
HETATM   14  C   UNL     1      -9.589   9.339  66.649  1.00  0.00    -0.263 A  
HETATM   15  C   UNL     1      -9.976   8.324  67.536  1.00  0.00    -0.252 A  
HETATM   16  C   UNL     1      -9.602   6.996  67.319  1.00  0.00    -0.175 A  
HETATM   17  C   UNL     1      -8.886   6.652  66.175  1.00  0.00    -0.149 A  
HETATM   18  C   UNL     1      -8.531   7.639  65.250  1.00  0.00    -0.090 A  
HETATM   19  C   UNL     1      -8.888   8.972  65.486  1.00  0.00    -0.233 A  
BRANCH  17  20
HETATM   20  S   UNL     1      -8.305   4.983  65.985  1.00  0.00    -0.116 S  
HETATM   21  O   UNL     1      -7.944   4.763  64.602  1.00  0.00    -0.092 OA 
HETATM   22  O   UNL     1      -9.270   4.116  66.633  1.00  0.00    -0.133 OA 
BRANCH  20  23
HETATM   23  N   UNL     1      -6.947   4.897  66.944  1.00  0.00    -0.062 N  
HETATM   24  H   UNL     1      -6.057   5.180  66.532  1.00  0.00     0.000 HD 
BRANCH  23  25
HETATM   25  C   UNL     1      -6.940   4.469  68.259  1.00  0.00    -0.056 C  
HETATM   26  O   UNL     1      -6.331   3.482  68.639  1.00  0.00    -0.031 OA 
BRANCH  25  27
HETATM   27  N   UNL     1      -7.664   5.271  69.095  1.00  0.00    -0.080 N  
HETATM   28  H   UNL     1      -7.795   6.255  68.862  1.00  0.00     0.000 HD 
BRANCH  27  29
HETATM   29  C   UNL     1      -8.252   4.735  70.319  1.00  0.00    -0.079 C  
HETATM   30  C   UNL     1      -8.121   5.724  71.483  1.00  0.00    -0.118 C  
HETATM   31  C   UNL     1      -9.094   6.897  71.386  1.00  0.00    -0.148 C  
HETATM   32  C   UNL     1     -10.532   6.424  71.204  1.00  0.00    -0.265 C  
HETATM   33  C   UNL     1     -10.670   5.488  70.009  1.00  0.00    -0.356 C  
HETATM   34  C   UNL     1      -9.709   4.304  70.109  1.00  0.00    -0.282 C  
ENDBRANCH  27  29
ENDBRANCH  25  27
ENDBRANCH  23  25
ENDBRANCH  20  23
ENDBRANCH  17  20
ENDBRANCH  13  14
ENDBRANCH  12  13
ENDBRANCH  10  12
ENDBRANCH   5   8
TORSDOF 9
ENDMDL
MODEL      303
REMARK 921   NORMALIZED FREE ENERGY PREDICTED BY IDOCK:   -3.53 KCAL/MOL
REMARK 922        TOTAL FREE ENERGY PREDICTED BY IDOCK:   -6.89 KCAL/MOL
REMARK 923 INTER-LIGAND FREE ENERGY PREDICTED BY IDOCK:   -5.69 KCAL/MOL
REMARK 924 INTRA-LIGAND FREE ENERGY PREDICTED BY IDOCK:   -1.20 KCAL/MOL
REMARK 927      BINDING AFFINITY PREDICTED BY RF-SCORE:    0.00 PKD
ROOT
HETATM    1  C   UNL     1     -13.021  11.798  63.332  1.00  0.00    -0.177 C  
HETATM    2  C   UNL     1     -12.010  12.511  64.171  1.00  0.00    -0.429 A  
HETATM    3  N   UNL     1     -11.002  11.775  64.702  1.00  0.00    -0.305 NA 
HETATM    4  C   UNL     1     -10.124  12.452  65.486  1.00  0.00    -0.267 A  
HETATM    5  C   UNL     1     -10.241  13.812  65.728  1.00  0.00    -0.311 A  
HETATM    6  C   UNL     1     -12.111  13.883  64.409  1.00  0.00    -0.443 A  
HETATM    7  N   UNL     1     -11.238  14.571  65.189  1.00  0.00    -0.348 NA 
ENDROOT
BRANCH   5   8
HETATM    8  C   UNL     1      -9.271  14.476  66.642  1.00  0.00    -0.266 C  
HETATM    9  O   UNL     1      -9.490  15.599  67.082  1.00  0.00    -0.212 OA 
HETATM   10  N   UNL     1      -8.128  13.753  66.928  1.00  0.00    -0.389 N  
HETATM   11  H   UNL     1      -8.049  12.793  66.594  1.00  0.00     0.000 HD 
BRANCH  10  12
HETATM   12  C   UNL     1      -7.038  14.330  67.691  1.00  0.00    -0.183 C  
BRANCH  12  13
HETATM   13  C   UNL     1      -5.766  13.466  67.670  1.00  0.00    -0.072 C  
BRANCH  13  14
HETATM   14  C   UNL     1      -5.884  12.146  68.410  1.00  0.00    -0.053 A  
HETATM   15  C   UNL     1      -6.239  12.091  69.766  1.00  0.00    -0.136 A  
HETATM   16  C   UNL     1      -6.299  10.874  70.447  1.00  0.00    -0.090 A  
HETATM   17  C   UNL     1      -6.065   9.682  69.765  1.00  0.00    -0.044 A  
HETATM   18  C   UNL     1      -5.759   9.707  68.401  1.00  0.00    -0.040 A  
HETATM   19  C   UNL     1      -5.676  10.932  67.730  1.00  0.00    -0.042 A  
BRANCH  17  20
HETATM   20  S   UNL     1      -6.014   8.157  70.677  1.00  0.00    -0.032 S  
HETATM   21  O   UNL     1      -5.388   8.395  71.959  1.00  0.00    -0.035 OA 
HETATM   22  O   UNL     1      -5.489   7.141  69.786  1.00  0.00    -0.021 OA 
BRANCH  20  23
HETATM   23  N   UNL     1      -7.612   7.743  70.897  1.00  0.00    -0.077 N  
HETATM   24  H   UNL     1      -8.275   8.496  71.081  1.00  0.00     0.000 HD 
BRANCH  23  25
HETATM   25  C   UNL     1      -8.102   6.451  70.848  1.00  0.00    -0.124 C  
HETATM   26  O   UNL     1      -7.778   5.581  71.639  1.00  0.00    -0.101 OA 
BRANCH  25  27
HETATM   27  N   UNL     1      -9.003   6.250  69.840  1.00  0.00    -0.140 N  
HETATM   28  H   UNL     1      -9.913   5.840  70.051  1.00  0.00     0.000 HD 
BRANCH  27  29
HETATM   29  C   UNL     1      -8.677   6.616  68.465  1.00  0.00    -0.123 C  
HETATM   30  C   UNL     1      -8.133   5.417  67.681  1.00  0.00    -0.100 C  
HETATM   31  C   UNL     1      -9.217   4.416  67.286  1.00  0.00    -0.160 C  
HETATM   32  C   UNL     1     -10.371   5.093  66.554  1.00  0.00    -0.336 C  
HETATM   33  C   UNL     1     -10.950   6.247  67.365  1.00  0.00    -0.447 C  
HETATM   34  C   UNL     1      -9.872   7.260  67.749  1.00  0.00    -0.181 C  
ENDBRANCH  27  29
ENDBRANCH  25  27
ENDBRANCH  23  25
ENDBRANCH  20  23
ENDBRANCH  17  20
ENDBRANCH  13  14
ENDBRANCH  12  13
ENDBRANCH  10  12
ENDBRANCH   5   8
TORSDOF 9
ENDMDL
MODEL      304
REMARK 921   NORMALIZED FREE ENERGY PREDICTED BY IDOCK:   -3.53 KCAL/MOL
REMARK 922        TOTAL FREE ENERGY PREDICTED BY IDOCK:   -6.88 KCAL/MOL
REMARK 923 INTER-LIGAND FREE ENERGY PREDICTED BY IDOCK:   -6.53 KCAL/MOL
REMARK 924 INTRA-LIGAND FREE ENERGY PREDICTED BY IDOCK:   -0.34 KCAL/MOL
REMARK 927      BINDING AFFINITY PREDICTED BY RF-SCORE:    0.00 PKD
ROOT
HETATM    1  C   UNL     1      -9.151   4.703  67.826  1.00  0.00    -0.136 C  
HETATM    2  C   UNL     1      -9.600   6.076  68.212  1.00  0.00    -0.119 A  
HETATM    3  N   UNL     1      -9.938   6.931  67.215  1.00  0.00    -0.158 NA 
HETATM    4  C   UNL     1     -10.306   8.178  67.604  1.00  0.00    -0.247 A  
HETATM    5  C   UNL     1     -10.343   8.559  68.936  1.00  0.00    -0.210 A  
HETATM    6  C   UNL     1      -9.654   6.465  69.551  1.00  0.00    -0.144 A  
HETATM    7  N   UNL     1     -10.024   7.708  69.953  1.00  0.00    -0.188 NA 
ENDROOT
BRANCH   5   8
HETATM    8  C   UNL     1     -10.707   9.961  69.283  1.00  0.00    -0.224 C  
HETATM    9  O   UNL     1     -10.888  10.292  70.450  1.00  0.00    -0.294 OA 
HETATM   10  N   UNL     1     -10.840  10.827  68.214  1.00  0.00    -0.210 N  
HETATM   11  H   UNL     1     -10.595  10.504  67.279  1.00  0.00     0.000 HD 
BRANCH  10  12
HETATM   12  C   UNL     1     -11.321  12.183  68.393  1.00  0.00    -0.286 C  
BRANCH  12  13
HETATM   13  C   UNL     1     -11.451  12.954  67.069  1.00  0.00    -0.390 C  
BRANCH  13  14
HETATM   14  C   UNL     1     -11.045  14.414  67.144  1.00  0.00    -0.318 A  
HETATM   15  C   UNL     1     -10.929  15.084  68.371  1.00  0.00    -0.266 A  
HETATM   16  C   UNL     1     -10.599  16.440  68.424  1.00  0.00    -0.311 A  
HETATM   17  C   UNL     1     -10.318  17.134  67.249  1.00  0.00    -0.320 A  
HETATM   18  C   UNL     1     -10.378  16.476  66.017  1.00  0.00    -0.358 A  
HETATM   19  C   UNL     1     -10.733  15.123  65.969  1.00  0.00    -0.333 A  
BRANCH  17  20
HETATM   20  S   UNL     1     -10.032  18.887  67.326  1.00  0.00    -0.355 S  
HETATM   21  O   UNL     1     -10.160  19.326  68.698  1.00  0.00    -0.406 OA 
HETATM   22  O   UNL     1     -10.836  19.500  66.286  1.00  0.00    -0.410 OA 
BRANCH  20  23
HETATM   23  N   UNL     1      -8.460  19.081  66.815  1.00  0.00    -0.287 N  
HETATM   24  H   UNL     1      -8.049  18.336  66.252  1.00  0.00     0.000 HD 
BRANCH  23  25
HETATM   25  C   UNL     1      -7.671  20.181  67.100  1.00  0.00    -0.308 C  
HETATM   26  O   UNL     1      -7.705  21.215  66.454  1.00  0.00     0.258 OA 
BRANCH  25  27
HETATM   27  N   UNL     1      -6.865  20.004  68.190  1.00  0.00    -0.285 N  
HETATM   28  H   UNL     1      -5.913  20.368  68.177  1.00  0.00     0.000 HD 
BRANCH  27  29
HETATM   29  C   UNL     1      -7.354  19.299  69.371  1.00  0.00    -0.178 C  
HETATM   30  C   UNL     1      -6.583  17.995  69.604  1.00  0.00    -0.076 C  
HETATM   31  C   UNL     1      -5.181  18.219  70.168  1.00  0.00    -0.234 C  
HETATM   32  C   UNL     1      -5.208  19.090  71.419  1.00  0.00    -0.321 C  
HETATM   33  C   UNL     1      -5.923  20.413  71.167  1.00  0.00    -0.229 C  
HETATM   34  C   UNL     1      -7.332  20.195  70.618  1.00  0.00     0.807 C  
ENDBRANCH  27  29
ENDBRANCH  25  27
ENDBRANCH  23  25
ENDBRANCH  20  23
ENDBRANCH  17  20
ENDBRANCH  13  14
ENDBRANCH  12  13
ENDBRANCH  10  12
ENDBRANCH   5   8
TORSDOF 9
ENDMDL
MODEL      305
REMARK 921   NORMALIZED FREE ENERGY PREDICTED BY IDOCK:   -3.52 KCAL/MOL
REMARK 922        TOTAL FREE ENERGY PREDICTED BY IDOCK:   -6.87 KCAL/MOL
REMARK 923 INTER-LIGAND FREE ENERGY PREDICTED BY IDOCK:   -5.35 KCAL/MOL
REMARK 924 INTRA-LIGAND FREE ENERGY PREDICTED BY IDOCK:   -1.52 KCAL/MOL
REMARK 927      BINDING AFFINITY PREDICTED BY RF-SCORE:    0.00 PKD
ROOT
HETATM    1  C   UNL     1     -12.269  15.672  63.754  1.00  0.00     0.525 C  
HETATM    2  C   UNL     1     -11.766  14.629  64.702  1.00  0.00    -0.426 A  
HETATM    3  N   UNL     1     -10.432  14.387  64.719  1.00  0.00    -0.418 NA 
HETATM    4  C   UNL     1     -10.019  13.410  65.566  1.00  0.00    -0.210 A  
HETATM    5  C   UNL     1     -10.900  12.703  66.371  1.00  0.00    -0.269 A  
HETATM    6  C   UNL     1     -12.643  13.923  65.526  1.00  0.00    -0.526 A  
HETATM    7  N   UNL     1     -12.243  12.946  66.379  1.00  0.00    -0.482 NA 
ENDROOT
BRANCH   5   8
HETATM    8  C   UNL     1     -10.381  11.609  67.236  1.00  0.00    -0.204 C  
HETATM    9  O   UNL     1      -9.201  11.578  67.568  1.00  0.00    -0.162 OA 
HETATM   10  N   UNL     1     -11.303  10.648  67.605  1.00  0.00    -0.314 N  
HETATM   11  H   UNL     1     -12.285  10.781  67.361  1.00  0.00     0.000 HD 
BRANCH  10  12
HETATM   12  C   UNL     1     -10.908   9.457  68.330  1.00  0.00    -0.109 C  
BRANCH  12  13
HETATM   13  C   UNL     1     -11.373   9.464  69.796  1.00  0.00    -0.071 C  
BRANCH  13  14
HETATM   14  C   UNL     1     -10.744   8.391  70.666  1.00  0.00    -0.245 A  
HETATM   15  C   UNL     1     -11.500   7.333  71.191  1.00  0.00    -0.312 A  
HETATM   16  C   UNL     1     -10.920   6.377  72.027  1.00  0.00    -0.289 A  
HETATM   17  C   UNL     1      -9.555   6.429  72.301  1.00  0.00    -0.150 A  
HETATM   18  C   UNL     1      -8.770   7.446  71.749  1.00  0.00    -0.125 A  
HETATM   19  C   UNL     1      -9.363   8.415  70.931  1.00  0.00    -0.201 A  
BRANCH  17  20
HETATM   20  S   UNL     1      -8.862   5.285  73.473  1.00  0.00    -0.115 S  
HETATM   21  O   UNL     1      -9.847   4.273  73.783  1.00  0.00    -0.118 OA 
HETATM   22  O   UNL     1      -8.261   6.069  74.535  1.00  0.00    -0.111 OA 
BRANCH  20  23
HETATM   23  N   UNL     1      -7.574   4.594  72.676  1.00  0.00    -0.085 N  
HETATM   24  H   UNL     1      -6.652   5.010  72.814  1.00  0.00     0.000 HD 
BRANCH  23  25
HETATM   25  C   UNL     1      -7.664   3.497  71.839  1.00  0.00    -0.058 C  
HETATM   26  O   UNL     1      -7.143   2.422  72.085  1.00  0.00    -0.032 OA 
BRANCH  25  27
HETATM   27  N   UNL     1      -8.414   3.728  70.720  1.00  0.00    -0.069 N  
HETATM   28  H   UNL     1      -9.423   3.583  70.749  1.00  0.00     0.000 HD 
BRANCH  27  29
HETATM   29  C   UNL     1      -7.785   4.182  69.482  1.00  0.00    -0.053 C  
HETATM   30  C   UNL     1      -7.599   3.026  68.493  1.00  0.00    -0.048 C  
HETATM   31  C   UNL     1      -8.900   2.597  67.818  1.00  0.00    -0.160 C  
HETATM   32  C   UNL     1      -9.619   3.779  67.177  1.00  0.00    -0.218 C  
HETATM   33  C   UNL     1      -9.857   4.903  68.179  1.00  0.00    -0.198 C  
HETATM   34  C   UNL     1      -8.556   5.347  68.846  1.00  0.00    -0.099 C  
ENDBRANCH  27  29
ENDBRANCH  25  27
ENDBRANCH  23  25
ENDBRANCH  20  23
ENDBRANCH  17  20
ENDBRANCH  13  14
ENDBRANCH  12  13
ENDBRANCH  10  12
ENDBRANCH   5   8
TORSDOF 9
ENDMDL
MODEL      306
REMARK 921   NORMALIZED FREE ENERGY PREDICTED BY IDOCK:   -3.51 KCAL/MOL
REMARK 922        TOTAL FREE ENERGY PREDICTED BY IDOCK:   -6.85 KCAL/MOL
REMARK 923 INTER-LIGAND FREE ENERGY PREDICTED BY IDOCK:   -6.19 KCAL/MOL
REMARK 924 INTRA-LIGAND FREE ENERGY PREDICTED BY IDOCK:   -0.67 KCAL/MOL
REMARK 927      BINDING AFFINITY PREDICTED BY RF-SCORE:    0.00 PKD
ROOT
HETATM    1  C   UNL     1      -5.125  19.032  68.720  1.00  0.00    -0.192 C  
HETATM    2  C   UNL     1      -6.416  18.348  68.397  1.00  0.00    -0.212 A  
HETATM    3  N   UNL     1      -7.045  18.703  67.249  1.00  0.00    -0.204 NA 
HETATM    4  C   UNL     1      -8.230  18.087  67.009  1.00  0.00    -0.227 A  
HETATM    5  C   UNL     1      -8.767  17.147  67.875  1.00  0.00    -0.222 A  
HETATM    6  C   UNL     1      -6.957  17.390  69.255  1.00  0.00    -0.175 A  
HETATM    7  N   UNL     1      -8.140  16.764  69.025  1.00  0.00    -0.219 NA 
ENDROOT
BRANCH   5   8
HETATM    8  C   UNL     1     -10.098  16.551  67.571  1.00  0.00    -0.267 C  
HETATM    9  O   UNL     1     -11.131  17.143  67.860  1.00  0.00    -0.288 OA 
HETATM   10  N   UNL     1     -10.073  15.305  66.975  1.00  0.00    -0.245 N  
HETATM   11  H   UNL     1      -9.179  14.907  66.688  1.00  0.00     0.000 HD 
BRANCH  10  12
HETATM   12  C   UNL     1     -11.289  14.550  66.747  1.00  0.00    -0.352 C  
BRANCH  12  13
HETATM   13  C   UNL     1     -11.843  13.902  68.026  1.00  0.00    -0.411 C  
BRANCH  13  14
HETATM   14  C   UNL     1     -11.564  12.415  68.156  1.00  0.00    -0.395 A  
HETATM   15  C   UNL     1     -11.539  11.778  69.406  1.00  0.00    -0.386 A  
HETATM   16  C   UNL     1     -11.235  10.419  69.515  1.00  0.00    -0.325 A  
HETATM   17  C   UNL     1     -11.012   9.661  68.368  1.00  0.00    -0.113 A  
HETATM   18  C   UNL     1     -11.080  10.263  67.108  1.00  0.00    -0.165 A  
HETATM   19  C   UNL     1     -11.361  11.631  67.007  1.00  0.00    -0.373 A  
BRANCH  17  20
HETATM   20  S   UNL     1     -10.496   7.968  68.536  1.00  0.00    -0.118 S  
HETATM   21  O   UNL     1     -10.647   7.300  67.261  1.00  0.00    -0.268 OA 
HETATM   22  O   UNL     1     -11.144   7.436  69.719  1.00  0.00    -0.234 OA 
BRANCH  20  23
HETATM   23  N   UNL     1      -8.883   8.056  68.939  1.00  0.00    -0.141 N  
HETATM   24  H   UNL     1      -8.546   8.924  69.355  1.00  0.00     0.000 HD 
BRANCH  23  25
HETATM   25  C   UNL     1      -7.969   7.036  68.749  1.00  0.00    -0.120 C  
HETATM   26  O   UNL     1      -7.533   6.722  67.654  1.00  0.00    -0.093 OA 
BRANCH  25  27
HETATM   27  N   UNL     1      -7.584   6.428  69.912  1.00  0.00    -0.097 N  
HETATM   28  H   UNL     1      -7.769   6.885  70.805  1.00  0.00     0.000 HD 
BRANCH  27  29
HETATM   29  C   UNL     1      -6.912   5.133  69.889  1.00  0.00    -0.057 C  
HETATM   30  C   UNL     1      -5.965   4.972  71.083  1.00  0.00    -0.017 C  
HETATM   31  C   UNL     1      -6.696   4.706  72.398  1.00  0.00    -0.051 C  
HETATM   32  C   UNL     1      -7.661   3.531  72.279  1.00  0.00    -0.058 C  
HETATM   33  C   UNL     1      -8.641   3.722  71.127  1.00  0.00    -0.110 C  
HETATM   34  C   UNL     1      -7.914   3.973  69.806  1.00  0.00    -0.057 C  
ENDBRANCH  27  29
ENDBRANCH  25  27
ENDBRANCH  23  25
ENDBRANCH  20  23
ENDBRANCH  17  20
ENDBRANCH  13  14
ENDBRANCH  12  13
ENDBRANCH  10  12
ENDBRANCH   5   8
TORSDOF 9
ENDMDL
MODEL      307
REMARK 921   NORMALIZED FREE ENERGY PREDICTED BY IDOCK:   -3.47 KCAL/MOL
REMARK 922        TOTAL FREE ENERGY PREDICTED BY IDOCK:   -6.80 KCAL/MOL
REMARK 923 INTER-LIGAND FREE ENERGY PREDICTED BY IDOCK:   -5.55 KCAL/MOL
REMARK 924 INTRA-LIGAND FREE ENERGY PREDICTED BY IDOCK:   -1.25 KCAL/MOL
REMARK 927      BINDING AFFINITY PREDICTED BY RF-SCORE:    0.00 PKD
ROOT
HETATM    1  C   UNL     1     -10.445  19.716  67.757  1.00  0.00    -0.573 C  
HETATM    2  C   UNL     1      -9.356  18.741  68.076  1.00  0.00    -0.306 A  
HETATM    3  N   UNL     1      -8.083  19.210  68.111  1.00  0.00    -0.304 NA 
HETATM    4  C   UNL     1      -7.121  18.289  68.369  1.00  0.00    -0.257 A  
HETATM    5  C   UNL     1      -7.413  16.952  68.590  1.00  0.00    -0.226 A  
HETATM    6  C   UNL     1      -9.641  17.397  68.314  1.00  0.00    -0.292 A  
HETATM    7  N   UNL     1      -8.688  16.466  68.576  1.00  0.00    -0.213 NA 
ENDROOT
BRANCH   5   8
HETATM    8  C   UNL     1      -6.299  15.989  68.814  1.00  0.00    -0.117 C  
HETATM    9  O   UNL     1      -5.148  16.385  68.964  1.00  0.00    -0.108 OA 
HETATM   10  N   UNL     1      -6.654  14.654  68.818  1.00  0.00    -0.086 N  
HETATM   11  H   UNL     1      -7.640  14.400  68.769  1.00  0.00     0.000 HD 
BRANCH  10  12
HETATM   12  C   UNL     1      -5.655  13.605  68.889  1.00  0.00    -0.074 C  
BRANCH  12  13
HETATM   13  C   UNL     1      -6.205  12.291  69.468  1.00  0.00    -0.127 C  
BRANCH  13  14
HETATM   14  C   UNL     1      -6.391  11.179  68.450  1.00  0.00    -0.049 A  
HETATM   15  C   UNL     1      -6.891  11.435  67.164  1.00  0.00    -0.124 A  
HETATM   16  C   UNL     1      -7.102  10.398  66.254  1.00  0.00    -0.123 A  
HETATM   17  C   UNL     1      -6.756   9.092  66.594  1.00  0.00    -0.075 A  
HETATM   18  C   UNL     1      -6.210   8.819  67.852  1.00  0.00    -0.052 A  
HETATM   19  C   UNL     1      -6.024   9.860  68.769  1.00  0.00    -0.038 A  
BRANCH  17  20
HETATM   20  S   UNL     1      -7.155   7.770  65.474  1.00  0.00    -0.064 S  
HETATM   21  O   UNL     1      -6.680   6.522  66.029  1.00  0.00    -0.046 OA 
HETATM   22  O   UNL     1      -6.734   8.187  64.150  1.00  0.00    -0.065 OA 
BRANCH  20  23
HETATM   23  N   UNL     1      -8.818   7.762  65.406  1.00  0.00    -0.371 N  
HETATM   24  H   UNL     1      -9.255   7.713  64.486  1.00  0.00     0.000 HD 
BRANCH  23  25
HETATM   25  C   UNL     1      -9.650   7.818  66.510  1.00  0.00    -0.201 C  
HETATM   26  O   UNL     1     -10.536   8.647  66.640  1.00  0.00    -0.277 OA 
BRANCH  25  27
HETATM   27  N   UNL     1      -9.395   6.841  67.431  1.00  0.00    -0.128 N  
HETATM   28  H   UNL     1      -8.511   6.845  67.940  1.00  0.00     0.000 HD 
BRANCH  27  29
HETATM   29  C   UNL     1     -10.376   5.792  67.695  1.00  0.00    -0.217 C  
HETATM   30  C   UNL     1     -10.654   4.956  66.441  1.00  0.00    -0.276 C  
HETATM   31  C   UNL     1      -9.524   3.984  66.105  1.00  0.00    -0.192 C  
HETATM   32  C   UNL     1      -9.160   3.108  67.299  1.00  0.00    -0.201 C  
HETATM   33  C   UNL     1      -8.826   3.945  68.529  1.00  0.00    -0.148 C  
HETATM   34  C   UNL     1      -9.959   4.908  68.879  1.00  0.00    -0.220 C  
ENDBRANCH  27  29
ENDBRANCH  25  27
ENDBRANCH  23  25
ENDBRANCH  20  23
ENDBRANCH  17  20
ENDBRANCH  13  14
ENDBRANCH  12  13
ENDBRANCH  10  12
ENDBRANCH   5   8
TORSDOF 9
ENDMDL
MODEL      308
REMARK 921   NORMALIZED FREE ENERGY PREDICTED BY IDOCK:   -3.40 KCAL/MOL
REMARK 922        TOTAL FREE ENERGY PREDICTED BY IDOCK:   -6.68 KCAL/MOL
REMARK 923 INTER-LIGAND FREE ENERGY PREDICTED BY IDOCK:   -4.88 KCAL/MOL
REMARK 924 INTRA-LIGAND FREE ENERGY PREDICTED BY IDOCK:   -1.81 KCAL/MOL
REMARK 927      BINDING AFFINITY PREDICTED BY RF-SCORE:    0.00 PKD
ROOT
HETATM    1  C   UNL     1     -10.351  18.260  66.155  1.00  0.00    -0.414 C  
HETATM    2  C   UNL     1     -10.421  16.864  66.688  1.00  0.00    -0.257 A  
HETATM    3  N   UNL     1     -10.603  16.709  68.023  1.00  0.00    -0.325 NA 
HETATM    4  C   UNL     1     -10.626  15.429  68.472  1.00  0.00    -0.240 A  
HETATM    5  C   UNL     1     -10.479  14.341  67.624  1.00  0.00    -0.248 A  
HETATM    6  C   UNL     1     -10.289  15.763  65.840  1.00  0.00    -0.354 A  
HETATM    7  N   UNL     1     -10.313  14.477  66.277  1.00  0.00    -0.285 NA 
ENDROOT
BRANCH   5   8
HETATM    8  C   UNL     1     -10.462  12.967  68.197  1.00  0.00    -0.237 C  
HETATM    9  O   UNL     1     -11.506  12.397  68.492  1.00  0.00    -0.257 OA 
HETATM   10  N   UNL     1      -9.210  12.412  68.383  1.00  0.00    -0.311 N  
HETATM   11  H   UNL     1      -8.389  12.910  68.040  1.00  0.00     0.000 HD 
BRANCH  10  12
HETATM   12  C   UNL     1      -9.037  11.140  69.056  1.00  0.00    -0.023 C  
BRANCH  12  13
HETATM   13  C   UNL     1      -7.652  10.986  69.705  1.00  0.00     0.080 C  
BRANCH  13  14
HETATM   14  C   UNL     1      -7.410   9.643  70.371  1.00  0.00    -0.156 A  
HETATM   15  C   UNL     1      -6.143   9.042  70.375  1.00  0.00    -0.037 A  
HETATM   16  C   UNL     1      -5.943   7.785  70.951  1.00  0.00    -0.034 A  
HETATM   17  C   UNL     1      -6.998   7.136  71.588  1.00  0.00    -0.067 A  
HETATM   18  C   UNL     1      -8.260   7.737  71.639  1.00  0.00    -0.121 A  
HETATM   19  C   UNL     1      -8.459   8.986  71.039  1.00  0.00    -0.254 A  
BRANCH  17  20
HETATM   20  S   UNL     1      -6.758   5.482  72.195  1.00  0.00    -0.068 S  
HETATM   21  O   UNL     1      -7.914   5.093  72.972  1.00  0.00    -0.100 OA 
HETATM   22  O   UNL     1      -5.433   5.428  72.782  1.00  0.00    -0.017 OA 
BRANCH  20  23
HETATM   23  N   UNL     1      -6.654   4.541  70.826  1.00  0.00    -0.033 N  
HETATM   24  H   UNL     1      -5.751   4.491  70.353  1.00  0.00     0.000 HD 
BRANCH  23  25
HETATM   25  C   UNL     1      -7.704   3.823  70.284  1.00  0.00    -0.047 C  
HETATM   26  O   UNL     1      -7.706   2.607  70.189  1.00  0.00    -0.043 OA 
BRANCH  25  27
HETATM   27  N   UNL     1      -8.750   4.608  69.886  1.00  0.00    -0.083 N  
HETATM   28  H   UNL     1      -9.328   5.072  70.587  1.00  0.00     0.000 HD 
BRANCH  27  29
HETATM   29  C   UNL     1      -9.049   4.789  68.469  1.00  0.00    -0.117 C  
HETATM   30  C   UNL     1     -10.461   5.347  68.261  1.00  0.00    -0.191 C  
HETATM   31  C   UNL     1     -10.575   6.832  68.599  1.00  0.00    -0.263 C  
HETATM   32  C   UNL     1      -9.526   7.661  67.865  1.00  0.00    -0.156 C  
HETATM   33  C   UNL     1      -8.117   7.139  68.123  1.00  0.00    -0.124 C  
HETATM   34  C   UNL     1      -7.993   5.658  67.771  1.00  0.00    -0.098 C  
ENDBRANCH  27  29
ENDBRANCH  25  27
ENDBRANCH  23  25
ENDBRANCH  20  23
ENDBRANCH  17  20
ENDBRANCH  13  14
ENDBRANCH  12  13
ENDBRANCH  10  12
ENDBRANCH   5   8
TORSDOF 9
ENDMDL
MODEL      309
REMARK 921   NORMALIZED FREE ENERGY PREDICTED BY IDOCK:   -3.37 KCAL/MOL
REMARK 922        TOTAL FREE ENERGY PREDICTED BY IDOCK:   -6.64 KCAL/MOL
REMARK 923 INTER-LIGAND FREE ENERGY PREDICTED BY IDOCK:   -7.02 KCAL/MOL
REMARK 924 INTRA-LIGAND FREE ENERGY PREDICTED BY IDOCK:    0.37 KCAL/MOL
REMARK 927      BINDING AFFINITY PREDICTED BY RF-SCORE:    0.00 PKD
ROOT
HETATM    1  C   UNL     1     -14.280  15.181  71.585  1.00  0.00    -0.664 C  
HETATM    2  C   UNL     1     -13.591  13.859  71.457  1.00  0.00    -0.279 A  
HETATM    3  N   UNL     1     -12.645  13.734  70.492  1.00  0.00    -0.317 NA 
HETATM    4  C   UNL     1     -12.069  12.510  70.385  1.00  0.00    -0.297 A  
HETATM    5  C   UNL     1     -12.415  11.451  71.210  1.00  0.00    -0.318 A  
HETATM    6  C   UNL     1     -13.923  12.792  72.292  1.00  0.00    -0.167 A  
HETATM    7  N   UNL     1     -13.351  11.564  72.196  1.00  0.00    -0.374 NA 
ENDROOT
BRANCH   5   8
HETATM    8  C   UNL     1     -11.777  10.122  70.997  1.00  0.00    -0.382 C  
HETATM    9  O   UNL     1     -11.454   9.422  71.950  1.00  0.00    -0.373 OA 
HETATM   10  N   UNL     1     -11.566   9.765  69.679  1.00  0.00    -0.448 N  
HETATM   11  H   UNL     1     -11.934  10.358  68.936  1.00  0.00     0.000 HD 
BRANCH  10  12
HETATM   12  C   UNL     1     -10.833   8.564  69.329  1.00  0.00    -0.056 C  
BRANCH  12  13
HETATM   13  C   UNL     1     -10.095   8.680  67.985  1.00  0.00    -0.241 C  
BRANCH  13  14
HETATM   14  C   UNL     1     -10.409   9.939  67.197  1.00  0.00    -0.304 A  
HETATM   15  C   UNL     1     -11.035   9.886  65.942  1.00  0.00     0.677 A  
HETATM   16  C   UNL     1     -11.276  11.048  65.207  1.00  0.00     0.104 A  
HETATM   17  C   UNL     1     -10.951  12.292  65.744  1.00  0.00    -0.301 A  
HETATM   18  C   UNL     1     -10.372  12.375  67.014  1.00  0.00    -0.235 A  
HETATM   19  C   UNL     1     -10.110  11.204  67.735  1.00  0.00    -0.200 A  
BRANCH  17  20
HETATM   20  S   UNL     1     -11.143  13.746  64.739  1.00  0.00    -0.395 S  
HETATM   21  O   UNL     1     -12.511  13.824  64.278  1.00  0.00    -0.629 OA 
HETATM   22  O   UNL     1     -10.050  13.756  63.785  1.00  0.00     0.497 OA 
BRANCH  20  23
HETATM   23  N   UNL     1     -10.819  15.014  65.767  1.00  0.00    -0.337 N  
HETATM   24  H   UNL     1     -11.613  15.508  66.176  1.00  0.00     0.000 HD 
BRANCH  23  25
HETATM   25  C   UNL     1      -9.550  15.446  66.107  1.00  0.00    -0.329 C  
HETATM   26  O   UNL     1      -8.701  14.716  66.590  1.00  0.00    -0.237 OA 
BRANCH  25  27
HETATM   27  N   UNL     1      -9.333  16.767  65.828  1.00  0.00    -0.107 N  
HETATM   28  H   UNL     1      -9.574  17.134  64.907  1.00  0.00     0.000 HD 
BRANCH  27  29
HETATM   29  C   UNL     1      -8.761  17.657  66.833  1.00  0.00    -0.246 C  
HETATM   30  C   UNL     1      -9.302  19.084  66.691  1.00  0.00    -0.360 C  
HETATM   31  C   UNL     1     -10.735  19.236  67.197  1.00  0.00    -0.584 C  
HETATM   32  C   UNL     1     -10.890  18.712  68.620  1.00  0.00     0.488 C  
HETATM   33  C   UNL     1     -10.406  17.271  68.745  1.00  0.00    -0.358 C  
HETATM   34  C   UNL     1      -8.967  17.117  68.255  1.00  0.00    -0.248 C  
ENDBRANCH  27  29
ENDBRANCH  25  27
ENDBRANCH  23  25
ENDBRANCH  20  23
ENDBRANCH  17  20
ENDBRANCH  13  14
ENDBRANCH  12  13
ENDBRANCH  10  12
ENDBRANCH   5   8
TORSDOF 9
ENDMDL
MODEL      310
REMARK 921   NORMALIZED FREE ENERGY PREDICTED BY IDOCK:   -3.27 KCAL/MOL
REMARK 922        TOTAL FREE ENERGY PREDICTED BY IDOCK:   -6.49 KCAL/MOL
REMARK 923 INTER-LIGAND FREE ENERGY PREDICTED BY IDOCK:   -5.99 KCAL/MOL
REMARK 924 INTRA-LIGAND FREE ENERGY PREDICTED BY IDOCK:   -0.49 KCAL/MOL
REMARK 927      BINDING AFFINITY PREDICTED BY RF-SCORE:    0.00 PKD
ROOT
HETATM    1  C   UNL     1     -14.130  16.038  72.521  1.00  0.00    -0.187 C  
HETATM    2  C   UNL     1     -13.601  14.686  72.160  1.00  0.00    -0.414 A  
HETATM    3  N   UNL     1     -12.536  14.631  71.322  1.00  0.00    -0.310 NA 
HETATM    4  C   UNL     1     -12.107  13.387  70.991  1.00  0.00    -0.102 A  
HETATM    5  C   UNL     1     -12.711  12.239  71.480  1.00  0.00    -0.233 A  
HETATM    6  C   UNL     1     -14.193  13.525  72.659  1.00  0.00    -0.018 A  
HETATM    7  N   UNL     1     -13.771  12.275  72.338  1.00  0.00    -0.207 NA 
ENDROOT
BRANCH   5   8
HETATM    8  C   UNL     1     -12.219  10.907  71.030  1.00  0.00    -0.358 C  
HETATM    9  O   UNL     1     -12.315   9.924  71.757  1.00  0.00    -0.383 OA 
HETATM   10  N   UNL     1     -11.642  10.876  69.775  1.00  0.00    -0.292 N  
HETATM   11  H   UNL     1     -11.669  11.713  69.193  1.00  0.00     0.000 HD 
BRANCH  10  12
HETATM   12  C   UNL     1     -10.999   9.680  69.266  1.00  0.00    -0.168 C  
BRANCH  12  13
HETATM   13  C   UNL     1     -10.371   9.880  67.877  1.00  0.00    -0.256 C  
BRANCH  13  14
HETATM   14  C   UNL     1     -10.411  11.308  67.363  1.00  0.00    -0.247 A  
HETATM   15  C   UNL     1     -11.060  11.640  66.164  1.00  0.00    -0.335 A  
HETATM   16  C   UNL     1     -11.051  12.949  65.678  1.00  0.00    -0.307 A  
HETATM   17  C   UNL     1     -10.444  13.962  66.417  1.00  0.00    -0.284 A  
HETATM   18  C   UNL     1      -9.834  13.664  67.640  1.00  0.00    -0.228 A  
HETATM   19  C   UNL     1      -9.826  12.346  68.110  1.00  0.00    -0.213 A  
BRANCH  17  20
HETATM   20  S   UNL     1     -10.327  15.592  65.720  1.00  0.00    -0.391 S  
HETATM   21  O   UNL     1     -11.617  16.240  65.814  1.00  0.00     0.422 OA 
HETATM   22  O   UNL     1      -9.667  15.463  64.434  1.00  0.00     0.550 OA 
BRANCH  20  23
HETATM   23  N   UNL     1      -9.225  16.385  66.683  1.00  0.00    -0.236 N  
HETATM   24  H   UNL     1      -9.587  16.952  67.451  1.00  0.00     0.000 HD 
BRANCH  23  25
HETATM   25  C   UNL     1      -7.853  16.330  66.517  1.00  0.00    -0.263 C  
HETATM   26  O   UNL     1      -7.221  15.287  66.501  1.00  0.00     0.179 OA 
BRANCH  25  27
HETATM   27  N   UNL     1      -7.277  17.559  66.349  1.00  0.00    -0.262 N  
HETATM   28  H   UNL     1      -7.731  18.252  65.756  1.00  0.00     0.000 HD 
BRANCH  27  29
HETATM   29  C   UNL     1      -6.018  17.888  67.011  1.00  0.00    -0.141 C  
HETATM   30  C   UNL     1      -5.437  19.206  66.485  1.00  0.00    -0.164 C  
HETATM   31  C   UNL     1      -6.174  20.437  67.008  1.00  0.00    -0.239 C  
HETATM   32  C   UNL     1      -6.275  20.430  68.530  1.00  0.00    -0.352 C  
HETATM   33  C   UNL     1      -6.909  19.143  69.046  1.00  0.00    -0.363 C  
HETATM   34  C   UNL     1      -6.166  17.908  68.538  1.00  0.00    -0.189 C  
ENDBRANCH  27  29
ENDBRANCH  25  27
ENDBRANCH  23  25
ENDBRANCH  20  23
ENDBRANCH  17  20
ENDBRANCH  13  14
ENDBRANCH  12  13
ENDBRANCH  10  12
ENDBRANCH   5   8
TORSDOF 9
ENDMDL
MODEL      311
REMARK 921   NORMALIZED FREE ENERGY PREDICTED BY IDOCK:   -3.26 KCAL/MOL
REMARK 922        TOTAL FREE ENERGY PREDICTED BY IDOCK:   -6.46 KCAL/MOL
REMARK 923 INTER-LIGAND FREE ENERGY PREDICTED BY IDOCK:   -6.02 KCAL/MOL
REMARK 924 INTRA-LIGAND FREE ENERGY PREDICTED BY IDOCK:   -0.44 KCAL/MOL
REMARK 927      BINDING AFFINITY PREDICTED BY RF-SCORE:    0.00 PKD
ROOT
HETATM    1  C   UNL     1     -10.275  20.169  69.595  1.00  0.00     0.104 C  
HETATM    2  C   UNL     1     -10.055  19.003  68.684  1.00  0.00    -0.382 A  
HETATM    3  N   UNL     1     -10.842  17.912  68.859  1.00  0.00     0.184 NA 
HETATM    4  C   UNL     1     -10.588  16.862  68.037  1.00  0.00    -0.367 A  
HETATM    5  C   UNL     1      -9.592  16.897  67.073  1.00  0.00    -0.248 A  
HETATM    6  C   UNL     1      -9.064  19.034  67.702  1.00  0.00    -0.291 A  
HETATM    7  N   UNL     1      -8.803  17.991  66.872  1.00  0.00    -0.251 NA 
ENDROOT
BRANCH   5   8
HETATM    8  C   UNL     1      -9.337  15.687  66.244  1.00  0.00    -0.323 C  
HETATM    9  O   UNL     1      -8.193  15.356  65.952  1.00  0.00     0.489 OA 
HETATM   10  N   UNL     1     -10.461  15.001  65.825  1.00  0.00    -0.315 N  
HETATM   11  H   UNL     1     -11.377  15.285  66.173  1.00  0.00     0.000 HD 
BRANCH  10  12
HETATM   12  C   UNL     1     -10.369  13.887  64.903  1.00  0.00    -0.406 C  
BRANCH  12  13
HETATM   13  C   UNL     1      -9.678  12.656  65.513  1.00  0.00    -0.110 C  
BRANCH  13  14
HETATM   14  C   UNL     1     -10.313  12.142  66.793  1.00  0.00    -0.237 A  
HETATM   15  C   UNL     1     -11.691  12.261  67.029  1.00  0.00    -0.399 A  
HETATM   16  C   UNL     1     -12.256  11.826  68.229  1.00  0.00     0.174 A  
HETATM   17  C   UNL     1     -11.460  11.206  69.190  1.00  0.00    -0.298 A  
HETATM   18  C   UNL     1     -10.092  11.032  68.957  1.00  0.00    -0.197 A  
HETATM   19  C   UNL     1      -9.527  11.492  67.761  1.00  0.00    -0.168 A  
BRANCH  17  20
HETATM   20  S   UNL     1     -12.171  10.781  70.763  1.00  0.00    -0.406 S  
HETATM   21  O   UNL     1     -13.359   9.986  70.544  1.00  0.00    -0.213 OA 
HETATM   22  O   UNL     1     -12.244  12.001  71.545  1.00  0.00    -0.006 OA 
BRANCH  20  23
HETATM   23  N   UNL     1     -11.007   9.862  71.518  1.00  0.00    -0.092 N  
HETATM   24  H   UNL     1     -10.035  10.159  71.426  1.00  0.00     0.000 HD 
BRANCH  23  25
HETATM   25  C   UNL     1     -11.264   8.725  72.261  1.00  0.00    -0.273 C  
HETATM   26  O   UNL     1     -12.274   8.575  72.929  1.00  0.00    -0.270 OA 
BRANCH  25  27
HETATM   27  N   UNL     1     -10.286   7.776  72.158  1.00  0.00    -0.201 N  
HETATM   28  H   UNL     1      -9.306   8.059  72.165  1.00  0.00     0.000 HD 
BRANCH  27  29
HETATM   29  C   UNL     1     -10.628   6.362  72.039  1.00  0.00    -0.213 C  
HETATM   30  C   UNL     1     -11.655   6.126  70.926  1.00  0.00    -0.259 C  
HETATM   31  C   UNL     1     -11.055   6.224  69.525  1.00  0.00    -0.476 C  
HETATM   32  C   UNL     1      -9.836   5.321  69.369  1.00  0.00    -0.265 C  
HETATM   33  C   UNL     1      -8.790   5.600  70.443  1.00  0.00    -0.143 C  
HETATM   34  C   UNL     1      -9.381   5.488  71.847  1.00  0.00    -0.163 C  
ENDBRANCH  27  29
ENDBRANCH  25  27
ENDBRANCH  23  25
ENDBRANCH  20  23
ENDBRANCH  17  20
ENDBRANCH  13  14
ENDBRANCH  12  13
ENDBRANCH  10  12
ENDBRANCH   5   8
TORSDOF 9
ENDMDL
MODEL      312
REMARK 921   NORMALIZED FREE ENERGY PREDICTED BY IDOCK:   -3.19 KCAL/MOL
REMARK 922        TOTAL FREE ENERGY PREDICTED BY IDOCK:   -6.37 KCAL/MOL
REMARK 923 INTER-LIGAND FREE ENERGY PREDICTED BY IDOCK:   -5.62 KCAL/MOL
REMARK 924 INTRA-LIGAND FREE ENERGY PREDICTED BY IDOCK:   -0.75 KCAL/MOL
REMARK 927      BINDING AFFINITY PREDICTED BY RF-SCORE:    0.00 PKD
ROOT
HETATM    1  C   UNL     1      -9.691   5.809  74.322  1.00  0.00    -0.195 C  
HETATM    2  C   UNL     1      -9.696   5.780  72.827  1.00  0.00    -0.155 A  
HETATM    3  N   UNL     1      -9.968   4.596  72.222  1.00  0.00    -0.170 NA 
HETATM    4  C   UNL     1      -9.929   4.603  70.866  1.00  0.00    -0.203 A  
HETATM    5  C   UNL     1      -9.637   5.746  70.136  1.00  0.00    -0.166 A  
HETATM    6  C   UNL     1      -9.418   6.928  72.084  1.00  0.00    -0.138 A  
HETATM    7  N   UNL     1      -9.379   6.948  70.727  1.00  0.00    -0.161 NA 
ENDROOT
BRANCH   5   8
HETATM    8  C   UNL     1      -9.560   5.663  68.651  1.00  0.00    -0.130 C  
HETATM    9  O   UNL     1     -10.527   5.297  67.992  1.00  0.00    -0.153 OA 
HETATM   10  N   UNL     1      -8.341   6.002  68.096  1.00  0.00    -0.112 N  
HETATM   11  H   UNL     1      -7.607   6.377  68.696  1.00  0.00     0.000 HD 
BRANCH  10  12
HETATM   12  C   UNL     1      -8.083   5.839  66.679  1.00  0.00    -0.102 C  
BRANCH  12  13
HETATM   13  C   UNL     1      -7.324   7.027  66.065  1.00  0.00    -0.075 C  
BRANCH  13  14
HETATM   14  C   UNL     1      -8.120   8.317  65.991  1.00  0.00    -0.110 A  
HETATM   15  C   UNL     1      -9.355   8.458  66.641  1.00  0.00    -0.245 A  
HETATM   16  C   UNL     1     -10.100   9.634  66.528  1.00  0.00    -0.314 A  
HETATM   17  C   UNL     1      -9.590  10.714  65.810  1.00  0.00    -0.210 A  
HETATM   18  C   UNL     1      -8.339  10.615  65.194  1.00  0.00    -0.117 A  
HETATM   19  C   UNL     1      -7.608   9.425  65.292  1.00  0.00    -0.107 A  
BRANCH  17  20
HETATM   20  S   UNL     1     -10.609  12.150  65.566  1.00  0.00    -0.289 S  
HETATM   21  O   UNL     1     -11.990  11.735  65.455  1.00  0.00    -0.324 OA 
HETATM   22  O   UNL     1      -9.997  12.936  64.512  1.00  0.00    -0.249 OA 
BRANCH  20  23
HETATM   23  N   UNL     1     -10.400  13.056  66.946  1.00  0.00    -0.244 N  
HETATM   24  H   UNL     1     -10.348  14.070  66.845  1.00  0.00     0.000 HD 
BRANCH  23  25
HETATM   25  C   UNL     1     -10.291  12.531  68.221  1.00  0.00    -0.236 C  
HETATM   26  O   UNL     1     -11.204  11.956  68.790  1.00  0.00    -0.220 OA 
BRANCH  25  27
HETATM   27  N   UNL     1      -9.052  12.701  68.774  1.00  0.00    -0.394 N  
HETATM   28  H   UNL     1      -8.889  12.420  69.741  1.00  0.00     0.000 HD 
BRANCH  27  29
HETATM   29  C   UNL     1      -7.961  13.279  67.995  1.00  0.00    -0.152 C  
HETATM   30  C   UNL     1      -7.869  14.795  68.200  1.00  0.00    -0.125 C  
HETATM   31  C   UNL     1      -7.272  15.183  69.551  1.00  0.00    -0.204 C  
HETATM   32  C   UNL     1      -5.932  14.497  69.794  1.00  0.00    -0.122 C  
HETATM   33  C   UNL     1      -6.040  12.983  69.649  1.00  0.00    -0.122 C  
HETATM   34  C   UNL     1      -6.622  12.589  68.293  1.00  0.00    -0.073 C  
ENDBRANCH  27  29
ENDBRANCH  25  27
ENDBRANCH  23  25
ENDBRANCH  20  23
ENDBRANCH  17  20
ENDBRANCH  13  14
ENDBRANCH  12  13
ENDBRANCH  10  12
ENDBRANCH   5   8
TORSDOF 9
ENDMDL
MODEL      313
REMARK 921   NORMALIZED FREE ENERGY PREDICTED BY IDOCK:   -3.17 KCAL/MOL
REMARK 922        TOTAL FREE ENERGY PREDICTED BY IDOCK:   -6.34 KCAL/MOL
REMARK 923 INTER-LIGAND FREE ENERGY PREDICTED BY IDOCK:   -5.16 KCAL/MOL
REMARK 924 INTRA-LIGAND FREE ENERGY PREDICTED BY IDOCK:   -1.18 KCAL/MOL
REMARK 927      BINDING AFFINITY PREDICTED BY RF-SCORE:    0.00 PKD
ROOT
HETATM    1  C   UNL     1      -7.259   6.218  62.640  1.00  0.00    -0.053 C  
HETATM    2  C   UNL     1      -7.957   7.416  63.202  1.00  0.00    -0.093 A  
HETATM    3  N   UNL     1      -8.340   8.385  62.333  1.00  0.00    -0.192 NA 
HETATM    4  C   UNL     1      -8.938   9.471  62.885  1.00  0.00    -0.213 A  
HETATM    5  C   UNL     1      -9.152   9.587  64.250  1.00  0.00    -0.170 A  
HETATM    6  C   UNL     1      -8.190   7.535  64.572  1.00  0.00    -0.033 A  
HETATM    7  N   UNL     1      -8.790   8.615  65.136  1.00  0.00    -0.149 NA 
ENDROOT
BRANCH   5   8
HETATM    8  C   UNL     1      -9.767  10.832  64.788  1.00  0.00    -0.283 C  
HETATM    9  O   UNL     1     -10.914  11.145  64.492  1.00  0.00    -0.300 OA 
HETATM   10  N   UNL     1      -8.955  11.594  65.607  1.00  0.00    -0.395 N  
HETATM   11  H   UNL     1      -8.040  11.233  65.877  1.00  0.00     0.000 HD 
BRANCH  10  12
HETATM   12  C   UNL     1      -9.373  12.895  66.090  1.00  0.00    -0.092 C  
BRANCH  12  13
HETATM   13  C   UNL     1      -8.977  13.149  67.554  1.00  0.00    -0.197 C  
BRANCH  13  14
HETATM   14  C   UNL     1      -8.831  11.895  68.397  1.00  0.00    -0.159 A  
HETATM   15  C   UNL     1      -7.596  11.518  68.947  1.00  0.00    -0.102 A  
HETATM   16  C   UNL     1      -7.465  10.338  69.682  1.00  0.00    -0.159 A  
HETATM   17  C   UNL     1      -8.583   9.545  69.932  1.00  0.00    -0.204 A  
HETATM   18  C   UNL     1      -9.834   9.925  69.436  1.00  0.00    -0.231 A  
HETATM   19  C   UNL     1      -9.954  11.097  68.680  1.00  0.00    -0.210 A  
BRANCH  17  20
HETATM   20  S   UNL     1      -8.371   7.983  70.753  1.00  0.00    -0.119 S  
HETATM   21  O   UNL     1      -7.894   8.217  72.098  1.00  0.00    -0.112 OA 
HETATM   22  O   UNL     1      -7.625   7.123  69.854  1.00  0.00    -0.093 OA 
BRANCH  20  23
HETATM   23  N   UNL     1      -9.898   7.321  70.801  1.00  0.00    -0.179 N  
HETATM   24  H   UNL     1     -10.609   7.810  71.345  1.00  0.00     0.000 HD 
BRANCH  23  25
HETATM   25  C   UNL     1     -10.270   6.156  70.157  1.00  0.00    -0.199 C  
HETATM   26  O   UNL     1     -11.284   6.056  69.485  1.00  0.00    -0.398 OA 
BRANCH  25  27
HETATM   27  N   UNL     1      -9.380   5.132  70.328  1.00  0.00    -0.148 N  
HETATM   28  H   UNL     1      -8.544   5.281  70.894  1.00  0.00     0.000 HD 
BRANCH  27  29
HETATM   29  C   UNL     1      -9.613   3.830  69.711  1.00  0.00    -0.183 C  
HETATM   30  C   UNL     1      -8.720   3.625  68.483  1.00  0.00    -0.137 C  
HETATM   31  C   UNL     1      -7.265   3.330  68.841  1.00  0.00    -0.049 C  
HETATM   32  C   UNL     1      -7.150   2.170  69.824  1.00  0.00    -0.033 C  
HETATM   33  C   UNL     1      -7.993   2.405  71.073  1.00  0.00    -0.054 C  
HETATM   34  C   UNL     1      -9.453   2.685  70.721  1.00  0.00    -0.214 C  
ENDBRANCH  27  29
ENDBRANCH  25  27
ENDBRANCH  23  25
ENDBRANCH  20  23
ENDBRANCH  17  20
ENDBRANCH  13  14
ENDBRANCH  12  13
ENDBRANCH  10  12
ENDBRANCH   5   8
TORSDOF 9
ENDMDL
MODEL      314
REMARK 921   NORMALIZED FREE ENERGY PREDICTED BY IDOCK:   -3.17 KCAL/MOL
REMARK 922        TOTAL FREE ENERGY PREDICTED BY IDOCK:   -6.33 KCAL/MOL
REMARK 923 INTER-LIGAND FREE ENERGY PREDICTED BY IDOCK:   -5.43 KCAL/MOL
REMARK 924 INTRA-LIGAND FREE ENERGY PREDICTED BY IDOCK:   -0.90 KCAL/MOL
REMARK 927      BINDING AFFINITY PREDICTED BY RF-SCORE:    0.00 PKD
ROOT
HETATM    1  C   UNL     1      -8.769   1.791  68.960  1.00  0.00    -0.109 C  
HETATM    2  C   UNL     1      -8.482   3.172  68.460  1.00  0.00    -0.079 A  
HETATM    3  N   UNL     1      -7.247   3.413  67.955  1.00  0.00    -0.051 NA 
HETATM    4  C   UNL     1      -7.014   4.685  67.544  1.00  0.00    -0.061 A  
HETATM    5  C   UNL     1      -7.976   5.680  67.625  1.00  0.00    -0.101 A  
HETATM    6  C   UNL     1      -9.449   4.176  68.524  1.00  0.00    -0.153 A  
HETATM    7  N   UNL     1      -9.229   5.451  68.114  1.00  0.00    -0.109 NA 
ENDROOT
BRANCH   5   8
HETATM    8  C   UNL     1      -7.630   7.065  67.204  1.00  0.00    -0.107 C  
HETATM    9  O   UNL     1      -7.297   7.908  68.029  1.00  0.00    -0.091 OA 
HETATM   10  N   UNL     1      -7.734   7.322  65.850  1.00  0.00    -0.092 N  
HETATM   11  H   UNL     1      -7.937   6.553  65.211  1.00  0.00     0.000 HD 
BRANCH  10  12
HETATM   12  C   UNL     1      -7.559   8.658  65.316  1.00  0.00    -0.088 C  
BRANCH  12  13
HETATM   13  C   UNL     1      -8.723   9.102  64.415  1.00  0.00    -0.184 C  
BRANCH  13  14
HETATM   14  C   UNL     1      -9.594  10.200  64.999  1.00  0.00    -0.362 A  
HETATM   15  C   UNL     1     -10.580  10.843  64.235  1.00  0.00    -0.336 A  
HETATM   16  C   UNL     1     -11.343  11.882  64.770  1.00  0.00    -0.344 A  
HETATM   17  C   UNL     1     -11.174  12.256  66.102  1.00  0.00    -0.328 A  
HETATM   18  C   UNL     1     -10.232  11.597  66.898  1.00  0.00    -0.244 A  
HETATM   19  C   UNL     1      -9.453  10.572  66.348  1.00  0.00    -0.208 A  
BRANCH  17  20
HETATM   20  S   UNL     1     -12.057  13.667  66.724  1.00  0.00    -0.373 S  
HETATM   21  O   UNL     1     -12.397  13.437  68.111  1.00  0.00    -0.190 OA 
HETATM   22  O   UNL     1     -13.095  13.983  65.762  1.00  0.00    -0.543 OA 
BRANCH  20  23
HETATM   23  N   UNL     1     -10.975  14.927  66.609  1.00  0.00    -0.321 N  
HETATM   24  H   UNL     1     -10.593  15.141  65.688  1.00  0.00     0.000 HD 
BRANCH  23  25
HETATM   25  C   UNL     1     -10.556  15.703  67.675  1.00  0.00    -0.294 C  
HETATM   26  O   UNL     1     -11.319  16.171  68.504  1.00  0.00    -0.359 OA 
BRANCH  25  27
HETATM   27  N   UNL     1      -9.201  15.876  67.721  1.00  0.00    -0.201 N  
HETATM   28  H   UNL     1      -8.771  16.263  68.560  1.00  0.00     0.000 HD 
BRANCH  27  29
HETATM   29  C   UNL     1      -8.364  15.512  66.581  1.00  0.00    -0.251 C  
HETATM   30  C   UNL     1      -8.029  16.735  65.720  1.00  0.00     0.445 C  
HETATM   31  C   UNL     1      -6.981  17.648  66.354  1.00  0.00    -0.300 C  
HETATM   32  C   UNL     1      -5.727  16.876  66.751  1.00  0.00    -0.177 C  
HETATM   33  C   UNL     1      -6.058  15.695  67.658  1.00  0.00    -0.174 C  
HETATM   34  C   UNL     1      -7.094  14.771  67.022  1.00  0.00     0.354 C  
ENDBRANCH  27  29
ENDBRANCH  25  27
ENDBRANCH  23  25
ENDBRANCH  20  23
ENDBRANCH  17  20
ENDBRANCH  13  14
ENDBRANCH  12  13
ENDBRANCH  10  12
ENDBRANCH   5   8
TORSDOF 9
ENDMDL
MODEL      315
REMARK 921   NORMALIZED FREE ENERGY PREDICTED BY IDOCK:   -3.17 KCAL/MOL
REMARK 922        TOTAL FREE ENERGY PREDICTED BY IDOCK:   -6.33 KCAL/MOL
REMARK 923 INTER-LIGAND FREE ENERGY PREDICTED BY IDOCK:   -5.03 KCAL/MOL
REMARK 924 INTRA-LIGAND FREE ENERGY PREDICTED BY IDOCK:   -1.30 KCAL/MOL
REMARK 927      BINDING AFFINITY PREDICTED BY RF-SCORE:    0.00 PKD
ROOT
HETATM    1  C   UNL     1      -5.694  19.994  69.763  1.00  0.00    -0.317 C  
HETATM    2  C   UNL     1      -6.464  18.899  69.097  1.00  0.00    -0.287 A  
HETATM    3  N   UNL     1      -7.758  19.147  68.774  1.00  0.00    -0.351 NA 
HETATM    4  C   UNL     1      -8.434  18.118  68.203  1.00  0.00    -0.273 A  
HETATM    5  C   UNL     1      -7.843  16.888  67.957  1.00  0.00    -0.179 A  
HETATM    6  C   UNL     1      -5.874  17.663  68.832  1.00  0.00    -0.186 A  
HETATM    7  N   UNL     1      -6.538  16.626  68.259  1.00  0.00    -0.134 NA 
ENDROOT
BRANCH   5   8
HETATM    8  C   UNL     1      -8.662  15.788  67.377  1.00  0.00    -0.183 C  
HETATM    9  O   UNL     1      -9.441  16.005  66.454  1.00  0.00    -0.248 OA 
HETATM   10  N   UNL     1      -8.495  14.546  67.959  1.00  0.00    -0.152 N  
HETATM   11  H   UNL     1      -7.772  14.421  68.667  1.00  0.00     0.000 HD 
BRANCH  10  12
HETATM   12  C   UNL     1      -9.325  13.417  67.587  1.00  0.00    -0.217 C  
BRANCH  12  13
HETATM   13  C   UNL     1      -8.510  12.204  67.108  1.00  0.00    -0.182 C  
BRANCH  13  14
HETATM   14  C   UNL     1      -8.398  11.078  68.119  1.00  0.00    -0.130 A  
HETATM   15  C   UNL     1      -9.510  10.308  68.491  1.00  0.00    -0.158 A  
HETATM   16  C   UNL     1      -9.403   9.305  69.456  1.00  0.00    -0.177 A  
HETATM   17  C   UNL     1      -8.164   9.013  70.022  1.00  0.00    -0.127 A  
HETATM   18  C   UNL     1      -7.030   9.733  69.631  1.00  0.00    -0.078 A  
HETATM   19  C   UNL     1      -7.149  10.753  68.681  1.00  0.00    -0.078 A  
BRANCH  17  20
HETATM   20  S   UNL     1      -8.072   7.826  71.343  1.00  0.00    -0.103 S  
HETATM   21  O   UNL     1      -8.872   8.295  72.453  1.00  0.00    -0.180 OA 
HETATM   22  O   UNL     1      -6.671   7.506  71.536  1.00  0.00    -0.048 OA 
BRANCH  20  23
HETATM   23  N   UNL     1      -8.740   6.439  70.711  1.00  0.00    -0.139 N  
HETATM   24  H   UNL     1      -9.743   6.295  70.836  1.00  0.00     0.000 HD 
BRANCH  23  25
HETATM   25  C   UNL     1      -8.032   5.467  70.028  1.00  0.00    -0.082 C  
HETATM   26  O   UNL     1      -7.539   4.492  70.570  1.00  0.00    -0.052 OA 
BRANCH  25  27
HETATM   27  N   UNL     1      -7.958   5.694  68.682  1.00  0.00    -0.099 N  
HETATM   28  H   UNL     1      -7.063   5.594  68.203  1.00  0.00     0.000 HD 
BRANCH  27  29
HETATM   29  C   UNL     1      -9.145   6.078  67.923  1.00  0.00    -0.117 C  
HETATM   30  C   UNL     1      -8.785   6.987  66.743  1.00  0.00    -0.124 C  
HETATM   31  C   UNL     1      -8.137   6.236  65.582  1.00  0.00    -0.129 C  
HETATM   32  C   UNL     1      -8.980   5.044  65.141  1.00  0.00    -0.143 C  
HETATM   33  C   UNL     1      -9.285   4.109  66.306  1.00  0.00    -0.156 C  
HETATM   34  C   UNL     1      -9.948   4.853  67.465  1.00  0.00    -0.202 C  
ENDBRANCH  27  29
ENDBRANCH  25  27
ENDBRANCH  23  25
ENDBRANCH  20  23
ENDBRANCH  17  20
ENDBRANCH  13  14
ENDBRANCH  12  13
ENDBRANCH  10  12
ENDBRANCH   5   8
TORSDOF 9
ENDMDL
MODEL      316
REMARK 921   NORMALIZED FREE ENERGY PREDICTED BY IDOCK:   -3.16 KCAL/MOL
REMARK 922        TOTAL FREE ENERGY PREDICTED BY IDOCK:   -6.32 KCAL/MOL
REMARK 923 INTER-LIGAND FREE ENERGY PREDICTED BY IDOCK:   -6.09 KCAL/MOL
REMARK 924 INTRA-LIGAND FREE ENERGY PREDICTED BY IDOCK:   -0.23 KCAL/MOL
REMARK 927      BINDING AFFINITY PREDICTED BY RF-SCORE:    0.00 PKD
ROOT
HETATM    1  C   UNL     1     -13.486  15.921  73.289  1.00  0.00    -0.599 C  
HETATM    2  C   UNL     1     -13.120  14.793  72.377  1.00  0.00    -0.377 A  
HETATM    3  N   UNL     1     -13.504  13.543  72.737  1.00  0.00    -0.627 NA 
HETATM    4  C   UNL     1     -13.122  12.544  71.903  1.00  0.00    -0.368 A  
HETATM    5  C   UNL     1     -12.391  12.778  70.748  1.00  0.00    -0.287 A  
HETATM    6  C   UNL     1     -12.397  15.021  71.205  1.00  0.00    -0.323 A  
HETATM    7  N   UNL     1     -12.012  14.030  70.361  1.00  0.00    -0.323 NA 
ENDROOT
BRANCH   5   8
HETATM    8  C   UNL     1     -11.963  11.625  69.909  1.00  0.00    -0.340 C  
HETATM    9  O   UNL     1     -12.644  10.607  69.847  1.00  0.00    -0.277 OA 
HETATM   10  N   UNL     1     -10.762  11.783  69.244  1.00  0.00    -0.424 N  
HETATM   11  H   UNL     1     -10.290  12.686  69.275  1.00  0.00     0.000 HD 
BRANCH  10  12
HETATM   12  C   UNL     1     -10.158  10.694  68.501  1.00  0.00    -0.172 C  
BRANCH  12  13
HETATM   13  C   UNL     1     -10.092  10.961  66.989  1.00  0.00    -0.244 C  
BRANCH  13  14
HETATM   14  C   UNL     1      -9.096  10.097  66.236  1.00  0.00    -0.180 A  
HETATM   15  C   UNL     1      -9.308   9.724  64.900  1.00  0.00    -0.327 A  
HETATM   16  C   UNL     1      -8.407   8.891  64.233  1.00  0.00    -0.176 A  
HETATM   17  C   UNL     1      -7.245   8.468  64.874  1.00  0.00    -0.084 A  
HETATM   18  C   UNL     1      -6.987   8.866  66.189  1.00  0.00    -0.081 A  
HETATM   19  C   UNL     1      -7.906   9.682  66.860  1.00  0.00    -0.102 A  
BRANCH  17  20
HETATM   20  S   UNL     1      -6.181   7.302  64.056  1.00  0.00    -0.045 S  
HETATM   21  O   UNL     1      -5.163   8.024  63.325  1.00  0.00    -0.048 OA 
HETATM   22  O   UNL     1      -7.033   6.349  63.371  1.00  0.00    -0.043 OA 
BRANCH  20  23
HETATM   23  N   UNL     1      -5.480   6.432  65.291  1.00  0.00    -0.017 N  
HETATM   24  H   UNL     1      -4.744   6.886  65.832  1.00  0.00     0.000 HD 
BRANCH  23  25
HETATM   25  C   UNL     1      -5.825   5.138  65.634  1.00  0.00    -0.018 C  
HETATM   26  O   UNL     1      -5.196   4.467  66.437  1.00  0.00    -0.008 OA 
BRANCH  25  27
HETATM   27  N   UNL     1      -6.952   4.691  65.003  1.00  0.00    -0.060 N  
HETATM   28  H   UNL     1      -6.926   4.496  64.003  1.00  0.00     0.000 HD 
BRANCH  27  29
HETATM   29  C   UNL     1      -8.192   4.488  65.747  1.00  0.00    -0.110 C  
HETATM   30  C   UNL     1      -9.414   4.902  64.920  1.00  0.00    -0.001 C  
HETATM   31  C   UNL     1      -9.766   3.899  63.823  1.00  0.00    -0.161 C  
HETATM   32  C   UNL     1      -9.910   2.486  64.376  1.00  0.00    -0.052 C  
HETATM   33  C   UNL     1      -8.668   2.054  65.147  1.00  0.00    -0.114 C  
HETATM   34  C   UNL     1      -8.321   3.046  66.256  1.00  0.00    -0.098 C  
ENDBRANCH  27  29
ENDBRANCH  25  27
ENDBRANCH  23  25
ENDBRANCH  20  23
ENDBRANCH  17  20
ENDBRANCH  13  14
ENDBRANCH  12  13
ENDBRANCH  10  12
ENDBRANCH   5   8
TORSDOF 9
ENDMDL
MODEL      317
REMARK 921   NORMALIZED FREE ENERGY PREDICTED BY IDOCK:   -3.13 KCAL/MOL
REMARK 922        TOTAL FREE ENERGY PREDICTED BY IDOCK:   -6.28 KCAL/MOL
REMARK 923 INTER-LIGAND FREE ENERGY PREDICTED BY IDOCK:   -5.64 KCAL/MOL
REMARK 924 INTRA-LIGAND FREE ENERGY PREDICTED BY IDOCK:   -0.64 KCAL/MOL
REMARK 927      BINDING AFFINITY PREDICTED BY RF-SCORE:    0.00 PKD
ROOT
HETATM    1  C   UNL     1     -12.842  11.777  63.123  1.00  0.00    -0.089 C  
HETATM    2  C   UNL     1     -12.040  12.782  63.887  1.00  0.00    -0.486 A  
HETATM    3  N   UNL     1     -10.955  12.334  64.568  1.00  0.00    -0.299 NA 
HETATM    4  C   UNL     1     -10.274  13.270  65.276  1.00  0.00    -0.290 A  
HETATM    5  C   UNL     1     -10.652  14.603  65.302  1.00  0.00    -0.391 A  
HETATM    6  C   UNL     1     -12.404  14.129  63.907  1.00  0.00    -0.187 A  
HETATM    7  N   UNL     1     -11.729  15.075  64.609  1.00  0.00    -0.414 NA 
ENDROOT
BRANCH   5   8
HETATM    8  C   UNL     1      -9.886  15.563  66.145  1.00  0.00    -0.316 C  
HETATM    9  O   UNL     1     -10.455  16.478  66.729  1.00  0.00    -0.296 OA 
HETATM   10  N   UNL     1      -8.521  15.356  66.195  1.00  0.00    -0.351 N  
HETATM   11  H   UNL     1      -8.125  14.528  65.752  1.00  0.00     0.000 HD 
BRANCH  10  12
HETATM   12  C   UNL     1      -7.638  16.291  66.865  1.00  0.00    -0.244 C  
BRANCH  12  13
HETATM   13  C   UNL     1      -6.666  15.606  67.841  1.00  0.00    -0.167 C  
BRANCH  13  14
HETATM   14  C   UNL     1      -6.827  14.100  67.942  1.00  0.00    -0.173 A  
HETATM   15  C   UNL     1      -5.826  13.222  67.500  1.00  0.00    -0.050 A  
HETATM   16  C   UNL     1      -6.005  11.838  67.556  1.00  0.00    -0.089 A  
HETATM   17  C   UNL     1      -7.166  11.308  68.115  1.00  0.00    -0.081 A  
HETATM   18  C   UNL     1      -8.157  12.163  68.608  1.00  0.00    -0.048 A  
HETATM   19  C   UNL     1      -7.982  13.549  68.526  1.00  0.00    -0.119 A  
BRANCH  17  20
HETATM   20  S   UNL     1      -7.432   9.552  68.055  1.00  0.00    -0.083 S  
HETATM   21  O   UNL     1      -6.305   8.925  67.400  1.00  0.00    -0.055 OA 
HETATM   22  O   UNL     1      -8.777   9.338  67.554  1.00  0.00    -0.116 OA 
BRANCH  20  23
HETATM   23  N   UNL     1      -7.494   9.080  69.650  1.00  0.00    -0.073 N  
HETATM   24  H   UNL     1      -6.971   9.634  70.329  1.00  0.00     0.000 HD 
BRANCH  23  25
HETATM   25  C   UNL     1      -8.203   7.989  70.120  1.00  0.00    -0.120 C  
HETATM   26  O   UNL     1      -9.270   8.085  70.705  1.00  0.00    -0.151 OA 
BRANCH  25  27
HETATM   27  N   UNL     1      -7.604   6.792  69.845  1.00  0.00    -0.097 N  
HETATM   28  H   UNL     1      -6.904   6.420  70.487  1.00  0.00     0.000 HD 
BRANCH  27  29
HETATM   29  C   UNL     1      -7.954   6.041  68.643  1.00  0.00    -0.104 C  
HETATM   30  C   UNL     1      -7.286   4.662  68.630  1.00  0.00    -0.057 C  
HETATM   31  C   UNL     1      -7.940   3.669  69.588  1.00  0.00    -0.056 C  
HETATM   32  C   UNL     1      -9.444   3.570  69.359  1.00  0.00    -0.234 C  
HETATM   33  C   UNL     1     -10.115   4.937  69.433  1.00  0.00    -0.270 C  
HETATM   34  C   UNL     1      -9.475   5.930  68.464  1.00  0.00    -0.134 C  
ENDBRANCH  27  29
ENDBRANCH  25  27
ENDBRANCH  23  25
ENDBRANCH  20  23
ENDBRANCH  17  20
ENDBRANCH  13  14
ENDBRANCH  12  13
ENDBRANCH  10  12
ENDBRANCH   5   8
TORSDOF 9
ENDMDL
MODEL      318
REMARK 921   NORMALIZED FREE ENERGY PREDICTED BY IDOCK:   -3.05 KCAL/MOL
REMARK 922        TOTAL FREE ENERGY PREDICTED BY IDOCK:   -6.14 KCAL/MOL
REMARK 923 INTER-LIGAND FREE ENERGY PREDICTED BY IDOCK:   -6.99 KCAL/MOL
REMARK 924 INTRA-LIGAND FREE ENERGY PREDICTED BY IDOCK:    0.85 KCAL/MOL
REMARK 927      BINDING AFFINITY PREDICTED BY RF-SCORE:    0.00 PKD
ROOT
HETATM    1  C   UNL     1     -12.096   7.015  70.916  1.00  0.00    -0.403 C  
HETATM    2  C   UNL     1     -12.356   8.481  71.064  1.00  0.00    -0.131 A  
HETATM    3  N   UNL     1     -11.588   9.331  70.338  1.00  0.00    -0.222 NA 
HETATM    4  C   UNL     1     -11.830  10.653  70.525  1.00  0.00    -0.357 A  
HETATM    5  C   UNL     1     -12.804  11.113  71.398  1.00  0.00    -0.439 A  
HETATM    6  C   UNL     1     -13.343   8.953  71.929  1.00  0.00    -0.405 A  
HETATM    7  N   UNL     1     -13.597  10.273  72.123  1.00  0.00    -0.265 NA 
ENDROOT
BRANCH   5   8
HETATM    8  C   UNL     1     -12.976  12.580  71.591  1.00  0.00    -0.302 C  
HETATM    9  O   UNL     1     -14.001  13.031  72.090  1.00  0.00    -0.406 OA 
HETATM   10  N   UNL     1     -11.928  13.368  71.156  1.00  0.00    -0.361 N  
HETATM   11  H   UNL     1     -11.072  12.921  70.827  1.00  0.00     0.000 HD 
BRANCH  10  12
HETATM   12  C   UNL     1     -12.016  14.815  71.157  1.00  0.00    -0.335 C  
BRANCH  12  13
HETATM   13  C   UNL     1     -12.284  15.402  69.761  1.00  0.00    -0.336 C  
BRANCH  13  14
HETATM   14  C   UNL     1     -11.754  14.566  68.610  1.00  0.00    -0.364 A  
HETATM   15  C   UNL     1     -11.936  14.954  67.274  1.00  0.00    -0.149 A  
HETATM   16  C   UNL     1     -11.484  14.153  66.223  1.00  0.00    -0.358 A  
HETATM   17  C   UNL     1     -10.785  12.979  66.493  1.00  0.00    -0.278 A  
HETATM   18  C   UNL     1     -10.547  12.596  67.817  1.00  0.00    -0.233 A  
HETATM   19  C   UNL     1     -11.024  13.391  68.866  1.00  0.00    -0.284 A  
BRANCH  17  20
HETATM   20  S   UNL     1     -10.336  11.908  65.147  1.00  0.00    -0.287 S  
HETATM   21  O   UNL     1      -9.316  12.555  64.350  1.00  0.00     0.283 OA 
HETATM   22  O   UNL     1     -11.568  11.457  64.528  1.00  0.00    -0.146 OA 
BRANCH  20  23
HETATM   23  N   UNL     1      -9.707  10.552  65.878  1.00  0.00    -0.205 N  
HETATM   24  H   UNL     1     -10.245   9.687  65.817  1.00  0.00     0.000 HD 
BRANCH  23  25
HETATM   25  C   UNL     1      -8.506  10.514  66.563  1.00  0.00    -0.139 C  
HETATM   26  O   UNL     1      -7.701  11.431  66.555  1.00  0.00    -0.149 OA 
BRANCH  25  27
HETATM   27  N   UNL     1      -8.318   9.358  67.268  1.00  0.00    -0.124 N  
HETATM   28  H   UNL     1      -8.982   9.099  67.997  1.00  0.00     0.000 HD 
BRANCH  27  29
HETATM   29  C   UNL     1      -7.179   8.490  66.988  1.00  0.00    -0.079 C  
HETATM   30  C   UNL     1      -7.407   7.074  67.527  1.00  0.00    -0.092 C  
HETATM   31  C   UNL     1      -8.388   6.261  66.684  1.00  0.00    -0.112 C  
HETATM   32  C   UNL     1      -7.991   6.248  65.212  1.00  0.00    -0.117 C  
HETATM   33  C   UNL     1      -7.823   7.660  64.663  1.00  0.00    -0.126 C  
HETATM   34  C   UNL     1      -6.831   8.473  65.493  1.00  0.00    -0.071 C  
ENDBRANCH  27  29
ENDBRANCH  25  27
ENDBRANCH  23  25
ENDBRANCH  20  23
ENDBRANCH  17  20
ENDBRANCH  13  14
ENDBRANCH  12  13
ENDBRANCH  10  12
ENDBRANCH   5   8
TORSDOF 9
ENDMDL
MODEL      319
REMARK 921   NORMALIZED FREE ENERGY PREDICTED BY IDOCK:   -2.92 KCAL/MOL
REMARK 922        TOTAL FREE ENERGY PREDICTED BY IDOCK:   -5.95 KCAL/MOL
REMARK 923 INTER-LIGAND FREE ENERGY PREDICTED BY IDOCK:   -5.73 KCAL/MOL
REMARK 924 INTRA-LIGAND FREE ENERGY PREDICTED BY IDOCK:   -0.22 KCAL/MOL
REMARK 927      BINDING AFFINITY PREDICTED BY RF-SCORE:    0.00 PKD
ROOT
HETATM    1  C   UNL     1      -6.787   6.962  62.912  1.00  0.00    -0.051 C  
HETATM    2  C   UNL     1      -7.721   8.066  63.292  1.00  0.00    -0.143 A  
HETATM    3  N   UNL     1      -7.948   9.041  62.376  1.00  0.00    -0.124 NA 
HETATM    4  C   UNL     1      -8.774  10.043  62.771  1.00  0.00    -0.210 A  
HETATM    5  C   UNL     1      -9.357  10.073  64.028  1.00  0.00    -0.270 A  
HETATM    6  C   UNL     1      -8.324   8.097  64.550  1.00  0.00    -0.058 A  
HETATM    7  N   UNL     1      -9.154   9.093  64.956  1.00  0.00    -0.194 NA 
ENDROOT
BRANCH   5   8
HETATM    8  C   UNL     1     -10.210  11.232  64.409  1.00  0.00    -0.320 C  
HETATM    9  O   UNL     1     -11.248  11.474  63.804  1.00  0.00    -0.400 OA 
HETATM   10  N   UNL     1      -9.739  12.003  65.455  1.00  0.00    -0.308 N  
HETATM   11  H   UNL     1      -8.911  11.697  65.966  1.00  0.00     0.000 HD 
BRANCH  10  12
HETATM   12  C   UNL     1     -10.394  13.237  65.843  1.00  0.00    -0.292 C  
BRANCH  12  13
HETATM   13  C   UNL     1     -10.526  13.395  67.366  1.00  0.00    -0.243 C  
BRANCH  13  14
HETATM   14  C   UNL     1      -9.922  12.261  68.176  1.00  0.00    -0.210 A  
HETATM   15  C   UNL     1      -8.566  12.256  68.537  1.00  0.00    -0.068 A  
HETATM   16  C   UNL     1      -8.013  11.185  69.242  1.00  0.00     0.018 A  
HETATM   17  C   UNL     1      -8.822  10.128  69.651  1.00  0.00    -0.164 A  
HETATM   18  C   UNL     1     -10.187  10.134  69.346  1.00  0.00    -0.246 A  
HETATM   19  C   UNL     1     -10.731  11.199  68.618  1.00  0.00    -0.234 A  
BRANCH  17  20
HETATM   20  S   UNL     1      -8.074   8.714  70.428  1.00  0.00    -0.119 S  
HETATM   21  O   UNL     1      -7.321   9.154  71.582  1.00  0.00    -0.315 OA 
HETATM   22  O   UNL     1      -7.427   7.943  69.384  1.00  0.00    -0.086 OA 
BRANCH  20  23
HETATM   23  N   UNL     1      -9.358   7.774  70.917  1.00  0.00    -0.153 N  
HETATM   24  H   UNL     1      -9.603   6.969  70.339  1.00  0.00     0.000 HD 
BRANCH  23  25
HETATM   25  C   UNL     1     -10.115   8.006  72.051  1.00  0.00    -0.218 C  
HETATM   26  O   UNL     1     -10.490   9.116  72.390  1.00  0.00    -0.038 OA 
BRANCH  25  27
HETATM   27  N   UNL     1     -10.421   6.867  72.742  1.00  0.00    -0.210 N  
HETATM   28  H   UNL     1     -10.431   6.883  73.761  1.00  0.00     0.000 HD 
BRANCH  27  29
HETATM   29  C   UNL     1     -10.734   5.628  72.036  1.00  0.00    -0.235 C  
HETATM   30  C   UNL     1      -9.461   4.864  71.655  1.00  0.00    -0.204 C  
HETATM   31  C   UNL     1      -8.802   4.164  72.841  1.00  0.00    -0.109 C  
HETATM   32  C   UNL     1      -9.789   3.278  73.593  1.00  0.00    -0.157 C  
HETATM   33  C   UNL     1     -11.027   4.055  74.024  1.00  0.00    -0.240 C  
HETATM   34  C   UNL     1     -11.700   4.745  72.838  1.00  0.00    -0.128 C  
ENDBRANCH  27  29
ENDBRANCH  25  27
ENDBRANCH  23  25
ENDBRANCH  20  23
ENDBRANCH  17  20
ENDBRANCH  13  14
ENDBRANCH  12  13
ENDBRANCH  10  12
ENDBRANCH   5   8
TORSDOF 9
ENDMDL
MODEL      320
REMARK 921   NORMALIZED FREE ENERGY PREDICTED BY IDOCK:   -2.91 KCAL/MOL
REMARK 922        TOTAL FREE ENERGY PREDICTED BY IDOCK:   -5.94 KCAL/MOL
REMARK 923 INTER-LIGAND FREE ENERGY PREDICTED BY IDOCK:   -4.57 KCAL/MOL
REMARK 924 INTRA-LIGAND FREE ENERGY PREDICTED BY IDOCK:   -1.37 KCAL/MOL
REMARK 927      BINDING AFFINITY PREDICTED BY RF-SCORE:    0.00 PKD
ROOT
HETATM    1  C   UNL     1      -6.498   7.737  62.465  1.00  0.00    -0.076 C  
HETATM    2  C   UNL     1      -7.289   6.828  63.351  1.00  0.00    -0.073 A  
HETATM    3  N   UNL     1      -7.319   7.111  64.677  1.00  0.00    -0.073 NA 
HETATM    4  C   UNL     1      -8.018   6.243  65.452  1.00  0.00    -0.118 A  
HETATM    5  C   UNL     1      -8.669   5.137  64.927  1.00  0.00    -0.140 A  
HETATM    6  C   UNL     1      -7.960   5.721  62.830  1.00  0.00    -0.103 A  
HETATM    7  N   UNL     1      -8.665   4.847  63.594  1.00  0.00    -0.132 NA 
ENDROOT
BRANCH   5   8
HETATM    8  C   UNL     1      -9.372   4.200  65.846  1.00  0.00    -0.163 C  
HETATM    9  O   UNL     1     -10.590   4.246  65.978  1.00  0.00    -0.125 OA 
HETATM   10  N   UNL     1      -8.561   3.317  66.534  1.00  0.00    -0.111 N  
HETATM   11  H   UNL     1      -7.566   3.280  66.314  1.00  0.00     0.000 HD 
BRANCH  10  12
HETATM   12  C   UNL     1      -9.094   2.442  67.560  1.00  0.00    -0.174 C  
BRANCH  12  13
HETATM   13  C   UNL     1      -8.245   2.433  68.842  1.00  0.00    -0.071 C  
BRANCH  13  14
HETATM   14  C   UNL     1      -8.688   3.424  69.903  1.00  0.00    -0.131 A  
HETATM   15  C   UNL     1      -9.851   3.220  70.661  1.00  0.00    -0.033 A  
HETATM   16  C   UNL     1     -10.273   4.162  71.601  1.00  0.00    -0.133 A  
HETATM   17  C   UNL     1      -9.503   5.297  71.844  1.00  0.00    -0.146 A  
HETATM   18  C   UNL     1      -8.314   5.499  71.137  1.00  0.00    -0.125 A  
HETATM   19  C   UNL     1      -7.909   4.563  70.178  1.00  0.00    -0.060 A  
BRANCH  17  20
HETATM   20  S   UNL     1     -10.124   6.546  72.945  1.00  0.00    -0.190 S  
HETATM   21  O   UNL     1      -9.130   7.586  73.088  1.00  0.00    -0.144 OA 
HETATM   22  O   UNL     1     -10.642   5.867  74.117  1.00  0.00    -0.263 OA 
BRANCH  20  23
HETATM   23  N   UNL     1     -11.471   7.153  72.178  1.00  0.00    -0.262 N  
HETATM   24  H   UNL     1     -12.118   6.486  71.756  1.00  0.00     0.000 HD 
BRANCH  23  25
HETATM   25  C   UNL     1     -11.775   8.498  72.071  1.00  0.00    -0.362 C  
HETATM   26  O   UNL     1     -12.799   8.991  72.514  1.00  0.00    -0.404 OA 
BRANCH  25  27
HETATM   27  N   UNL     1     -10.805   9.225  71.438  1.00  0.00    -0.341 N  
HETATM   28  H   UNL     1     -10.520  10.126  71.821  1.00  0.00     0.000 HD 
BRANCH  27  29
HETATM   29  C   UNL     1     -10.173   8.726  70.221  1.00  0.00    -0.196 C  
HETATM   30  C   UNL     1     -10.949   9.156  68.971  1.00  0.00    -0.035 C  
HETATM   31  C   UNL     1     -10.747  10.628  68.616  1.00  0.00    -0.239 C  
HETATM   32  C   UNL     1      -9.268  10.987  68.516  1.00  0.00    -0.177 C  
HETATM   33  C   UNL     1      -8.512  10.612  69.785  1.00  0.00     0.228 C  
HETATM   34  C   UNL     1      -8.697   9.137  70.136  1.00  0.00    -0.196 C  
ENDBRANCH  27  29
ENDBRANCH  25  27
ENDBRANCH  23  25
ENDBRANCH  20  23
ENDBRANCH  17  20
ENDBRANCH  13  14
ENDBRANCH  12  13
ENDBRANCH  10  12
ENDBRANCH   5   8
TORSDOF 9
ENDMDL
MODEL      321
REMARK 921   NORMALIZED FREE ENERGY PREDICTED BY IDOCK:   -2.86 KCAL/MOL
REMARK 922        TOTAL FREE ENERGY PREDICTED BY IDOCK:   -5.87 KCAL/MOL
REMARK 923 INTER-LIGAND FREE ENERGY PREDICTED BY IDOCK:   -4.21 KCAL/MOL
REMARK 924 INTRA-LIGAND FREE ENERGY PREDICTED BY IDOCK:   -1.66 KCAL/MOL
REMARK 927      BINDING AFFINITY PREDICTED BY RF-SCORE:    0.00 PKD
ROOT
HETATM    1  C   UNL     1      -5.128  15.607  71.461  1.00  0.00    -0.093 C  
HETATM    2  C   UNL     1      -5.802  14.602  70.582  1.00  0.00    -0.167 A  
HETATM    3  N   UNL     1      -5.658  13.291  70.900  1.00  0.00    -0.190 NA 
HETATM    4  C   UNL     1      -6.255  12.409  70.059  1.00  0.00    -0.075 A  
HETATM    5  C   UNL     1      -6.974  12.815  68.945  1.00  0.00    -0.084 A  
HETATM    6  C   UNL     1      -6.541  15.002  69.467  1.00  0.00    -0.155 A  
HETATM    7  N   UNL     1      -7.145  14.129  68.620  1.00  0.00    -0.103 NA 
ENDROOT
BRANCH   5   8
HETATM    8  C   UNL     1      -7.556  11.788  68.039  1.00  0.00    -0.116 C  
HETATM    9  O   UNL     1      -7.018  11.515  66.971  1.00  0.00    -0.126 OA 
HETATM   10  N   UNL     1      -8.729  11.201  68.475  1.00  0.00    -0.156 N  
HETATM   11  H   UNL     1      -9.076  11.416  69.409  1.00  0.00     0.000 HD 
BRANCH  10  12
HETATM   12  C   UNL     1      -9.476  10.285  67.635  1.00  0.00    -0.151 C  
BRANCH  12  13
HETATM   13  C   UNL     1     -10.652   9.620  68.368  1.00  0.00    -0.264 C  
BRANCH  13  14
HETATM   14  C   UNL     1     -10.381   8.205  68.847  1.00  0.00    -0.225 A  
HETATM   15  C   UNL     1     -11.128   7.623  69.882  1.00  0.00    -0.160 A  
HETATM   16  C   UNL     1     -10.838   6.338  70.345  1.00  0.00    -0.360 A  
HETATM   17  C   UNL     1      -9.834   5.588  69.736  1.00  0.00    -0.194 A  
HETATM   18  C   UNL     1      -9.108   6.128  68.670  1.00  0.00    -0.125 A  
HETATM   19  C   UNL     1      -9.387   7.426  68.227  1.00  0.00    -0.140 A  
BRANCH  17  20
HETATM   20  S   UNL     1      -9.391   4.010  70.426  1.00  0.00    -0.177 S  
HETATM   21  O   UNL     1      -9.473   3.004  69.390  1.00  0.00    -0.161 OA 
HETATM   22  O   UNL     1     -10.143   3.853  71.656  1.00  0.00    -0.173 OA 
BRANCH  20  23
HETATM   23  N   UNL     1      -7.811   4.192  70.914  1.00  0.00    -0.058 N  
HETATM   24  H   UNL     1      -7.104   4.331  70.192  1.00  0.00     0.000 HD 
BRANCH  23  25
HETATM   25  C   UNL     1      -7.388   4.167  72.231  1.00  0.00    -0.062 C  
HETATM   26  O   UNL     1      -6.996   3.156  72.790  1.00  0.00    -0.038 OA 
BRANCH  25  27
HETATM   27  N   UNL     1      -7.431   5.390  72.839  1.00  0.00    -0.095 N  
HETATM   28  H   UNL     1      -7.513   5.446  73.854  1.00  0.00     0.000 HD 
BRANCH  27  29
HETATM   29  C   UNL     1      -7.362   6.617  72.051  1.00  0.00    -0.090 C  
HETATM   30  C   UNL     1      -8.311   7.689  72.599  1.00  0.00    -0.158 C  
HETATM   31  C   UNL     1      -7.802   8.341  73.883  1.00  0.00    -0.245 C  
HETATM   32  C   UNL     1      -6.382   8.872  73.722  1.00  0.00     0.015 C  
HETATM   33  C   UNL     1      -5.428   7.787  73.234  1.00  0.00    -0.044 C  
HETATM   34  C   UNL     1      -5.924   7.142  71.941  1.00  0.00    -0.037 C  
ENDBRANCH  27  29
ENDBRANCH  25  27
ENDBRANCH  23  25
ENDBRANCH  20  23
ENDBRANCH  17  20
ENDBRANCH  13  14
ENDBRANCH  12  13
ENDBRANCH  10  12
ENDBRANCH   5   8
TORSDOF 9
ENDMDL
MODEL      322
REMARK 921   NORMALIZED FREE ENERGY PREDICTED BY IDOCK:   -2.83 KCAL/MOL
REMARK 922        TOTAL FREE ENERGY PREDICTED BY IDOCK:   -5.82 KCAL/MOL
REMARK 923 INTER-LIGAND FREE ENERGY PREDICTED BY IDOCK:   -4.41 KCAL/MOL
REMARK 924 INTRA-LIGAND FREE ENERGY PREDICTED BY IDOCK:   -1.41 KCAL/MOL
REMARK 927      BINDING AFFINITY PREDICTED BY RF-SCORE:    0.00 PKD
ROOT
HETATM    1  C   UNL     1      -8.243   7.016  62.330  1.00  0.00    -0.066 C  
HETATM    2  C   UNL     1      -8.325   8.074  63.384  1.00  0.00     0.046 A  
HETATM    3  N   UNL     1      -8.898   9.256  63.045  1.00  0.00    -0.204 NA 
HETATM    4  C   UNL     1      -8.923  10.202  64.018  1.00  0.00    -0.238 A  
HETATM    5  C   UNL     1      -8.403   9.979  65.284  1.00  0.00    -0.154 A  
HETATM    6  C   UNL     1      -7.819   7.854  64.666  1.00  0.00    -0.133 A  
HETATM    7  N   UNL     1      -7.840   8.791  65.648  1.00  0.00    -0.094 NA 
ENDROOT
BRANCH   5   8
HETATM    8  C   UNL     1      -8.419  11.083  66.283  1.00  0.00    -0.165 C  
HETATM    9  O   UNL     1      -9.478  11.542  66.696  1.00  0.00    -0.184 OA 
HETATM   10  N   UNL     1      -7.179  11.549  66.678  1.00  0.00    -0.298 N  
HETATM   11  H   UNL     1      -6.340  11.067  66.357  1.00  0.00     0.000 HD 
BRANCH  10  12
HETATM   12  C   UNL     1      -7.045  12.707  67.540  1.00  0.00    -0.152 C  
BRANCH  12  13
HETATM   13  C   UNL     1      -6.480  12.362  68.928  1.00  0.00    -0.090 C  
BRANCH  13  14
HETATM   14  C   UNL     1      -6.557  10.891  69.295  1.00  0.00    -0.079 A  
HETATM   15  C   UNL     1      -5.451  10.039  69.157  1.00  0.00    -0.035 A  
HETATM   16  C   UNL     1      -5.548   8.679  69.454  1.00  0.00    -0.034 A  
HETATM   17  C   UNL     1      -6.739   8.159  69.956  1.00  0.00    -0.040 A  
HETATM   18  C   UNL     1      -7.840   8.998  70.150  1.00  0.00    -0.100 A  
HETATM   19  C   UNL     1      -7.744  10.356  69.827  1.00  0.00    -0.126 A  
BRANCH  17  20
HETATM   20  S   UNL     1      -6.883   6.404  70.202  1.00  0.00    -0.059 S  
HETATM   21  O   UNL     1      -5.715   5.753  69.650  1.00  0.00    -0.014 OA 
HETATM   22  O   UNL     1      -8.210   6.016  69.763  1.00  0.00    -0.114 OA 
BRANCH  20  23
HETATM   23  N   UNL     1      -6.910   6.210  71.855  1.00  0.00    -0.064 N  
HETATM   24  H   UNL     1      -6.029   6.315  72.359  1.00  0.00     0.000 HD 
BRANCH  23  25
HETATM   25  C   UNL     1      -8.042   5.916  72.593  1.00  0.00    -0.105 C  
HETATM   26  O   UNL     1      -8.154   4.913  73.277  1.00  0.00    -0.099 OA 
BRANCH  25  27
HETATM   27  N   UNL     1      -9.016   6.871  72.497  1.00  0.00    -0.129 N  
HETATM   28  H   UNL     1      -8.753   7.845  72.351  1.00  0.00     0.000 HD 
BRANCH  27  29
HETATM   29  C   UNL     1     -10.426   6.511  72.602  1.00  0.00    -0.211 C  
HETATM   30  C   UNL     1     -11.277   7.704  73.054  1.00  0.00    -0.388 C  
HETATM   31  C   UNL     1     -11.498   8.736  71.950  1.00  0.00    -0.428 C  
HETATM   32  C   UNL     1     -12.050   8.095  70.681  1.00  0.00     0.029 C  
HETATM   33  C   UNL     1     -11.169   6.947  70.201  1.00  0.00    -0.361 C  
HETATM   34  C   UNL     1     -10.958   5.904  71.297  1.00  0.00    -0.325 C  
ENDBRANCH  27  29
ENDBRANCH  25  27
ENDBRANCH  23  25
ENDBRANCH  20  23
ENDBRANCH  17  20
ENDBRANCH  13  14
ENDBRANCH  12  13
ENDBRANCH  10  12
ENDBRANCH   5   8
TORSDOF 9
ENDMDL
MODEL      323
REMARK 921   NORMALIZED FREE ENERGY PREDICTED BY IDOCK:   -2.79 KCAL/MOL
REMARK 922        TOTAL FREE ENERGY PREDICTED BY IDOCK:   -5.75 KCAL/MOL
REMARK 923 INTER-LIGAND FREE ENERGY PREDICTED BY IDOCK:   -4.85 KCAL/MOL
REMARK 924 INTRA-LIGAND FREE ENERGY PREDICTED BY IDOCK:   -0.90 KCAL/MOL
REMARK 927      BINDING AFFINITY PREDICTED BY RF-SCORE:    0.00 PKD
ROOT
HETATM    1  C   UNL     1      -7.376   6.979  62.332  1.00  0.00    -0.076 C  
HETATM    2  C   UNL     1      -7.969   8.034  63.211  1.00  0.00    -0.143 A  
HETATM    3  N   UNL     1      -8.844   8.904  62.646  1.00  0.00    -0.137 NA 
HETATM    4  C   UNL     1      -9.334   9.867  63.467  1.00  0.00    -0.182 A  
HETATM    5  C   UNL     1      -8.971   9.959  64.802  1.00  0.00    -0.217 A  
HETATM    6  C   UNL     1      -7.622   8.126  64.559  1.00  0.00    -0.113 A  
HETATM    7  N   UNL     1      -8.107   9.083  65.391  1.00  0.00    -0.114 NA 
ENDROOT
BRANCH   5   8
HETATM    8  C   UNL     1      -9.509  11.076  65.628  1.00  0.00    -0.217 C  
HETATM    9  O   UNL     1     -10.717  11.208  65.796  1.00  0.00    -0.250 OA 
HETATM   10  N   UNL     1      -8.566  11.937  66.156  1.00  0.00    -0.390 N  
HETATM   11  H   UNL     1      -7.576  11.720  66.045  1.00  0.00     0.000 HD 
BRANCH  10  12
HETATM   12  C   UNL     1      -8.952  13.141  66.865  1.00  0.00    -0.209 C  
BRANCH  12  13
HETATM   13  C   UNL     1      -8.247  13.292  68.223  1.00  0.00    -0.156 C  
BRANCH  13  14
HETATM   14  C   UNL     1      -8.004  11.987  68.959  1.00  0.00     0.175 A  
HETATM   15  C   UNL     1      -6.764  11.693  69.546  1.00  0.00    -0.089 A  
HETATM   16  C   UNL     1      -6.540  10.470  70.181  1.00  0.00    -0.149 A  
HETATM   17  C   UNL     1      -7.574   9.544  70.294  1.00  0.00    -0.155 A  
HETATM   18  C   UNL     1      -8.833   9.834  69.760  1.00  0.00    -0.241 A  
HETATM   19  C   UNL     1      -9.045  11.052  69.104  1.00  0.00    -0.006 A  
BRANCH  17  20
HETATM   20  S   UNL     1      -7.232   7.942  70.985  1.00  0.00    -0.059 S  
HETATM   21  O   UNL     1      -6.194   8.072  71.985  1.00  0.00    -0.040 OA 
HETATM   22  O   UNL     1      -7.066   7.022  69.876  1.00  0.00    -0.066 OA 
BRANCH  20  23
HETATM   23  N   UNL     1      -8.658   7.481  71.708  1.00  0.00    -0.113 N  
HETATM   24  H   UNL     1      -8.924   7.949  72.575  1.00  0.00     0.000 HD 
BRANCH  23  25
HETATM   25  C   UNL     1      -9.509   6.507  71.218  1.00  0.00    -0.166 C  
HETATM   26  O   UNL     1     -10.468   6.080  71.839  1.00  0.00    -0.207 OA 
BRANCH  25  27
HETATM   27  N   UNL     1      -9.182   6.085  69.959  1.00  0.00    -0.148 N  
HETATM   28  H   UNL     1      -8.281   6.343  69.559  1.00  0.00     0.000 HD 
BRANCH  27  29
HETATM   29  C   UNL     1     -10.110   5.267  69.183  1.00  0.00    -0.219 C  
HETATM   30  C   UNL     1     -11.137   6.134  68.445  1.00  0.00    -0.343 C  
HETATM   31  C   UNL     1     -10.555   6.847  67.226  1.00  0.00    -0.393 C  
HETATM   32  C   UNL     1      -9.855   5.875  66.284  1.00  0.00    -0.119 C  
HETATM   33  C   UNL     1      -8.791   5.057  67.009  1.00  0.00    -0.106 C  
HETATM   34  C   UNL     1      -9.371   4.328  68.220  1.00  0.00    -0.207 C  
ENDBRANCH  27  29
ENDBRANCH  25  27
ENDBRANCH  23  25
ENDBRANCH  20  23
ENDBRANCH  17  20
ENDBRANCH  13  14
ENDBRANCH  12  13
ENDBRANCH  10  12
ENDBRANCH   5   8
TORSDOF 9
ENDMDL
MODEL      324
REMARK 921   NORMALIZED FREE ENERGY PREDICTED BY IDOCK:   -2.61 KCAL/MOL
REMARK 922        TOTAL FREE ENERGY PREDICTED BY IDOCK:   -5.48 KCAL/MOL
REMARK 923 INTER-LIGAND FREE ENERGY PREDICTED BY IDOCK:   -3.59 KCAL/MOL
REMARK 924 INTRA-LIGAND FREE ENERGY PREDICTED BY IDOCK:   -1.88 KCAL/MOL
REMARK 927      BINDING AFFINITY PREDICTED BY RF-SCORE:    0.00 PKD
ROOT
HETATM    1  C   UNL     1      -7.735   5.834  72.063  1.00  0.00    -0.102 C  
HETATM    2  C   UNL     1      -7.896   6.840  70.967  1.00  0.00    -0.101 A  
HETATM    3  N   UNL     1      -6.994   6.815  69.955  1.00  0.00    -0.058 NA 
HETATM    4  C   UNL     1      -7.152   7.765  68.998  1.00  0.00    -0.074 A  
HETATM    5  C   UNL     1      -8.175   8.700  69.043  1.00  0.00    -0.122 A  
HETATM    6  C   UNL     1      -8.930   7.776  70.996  1.00  0.00    -0.142 A  
HETATM    7  N   UNL     1      -9.102   8.729  70.043  1.00  0.00    -0.153 NA 
ENDROOT
BRANCH   5   8
HETATM    8  C   UNL     1      -8.254   9.745  67.984  1.00  0.00    -0.109 C  
HETATM    9  O   UNL     1      -9.326  10.031  67.464  1.00  0.00    -0.143 OA 
HETATM   10  N   UNL     1      -7.053  10.332  67.633  1.00  0.00    -0.085 N  
HETATM   11  H   UNL     1      -6.213  10.105  68.164  1.00  0.00     0.000 HD 
BRANCH  10  12
HETATM   12  C   UNL     1      -6.961  11.264  66.526  1.00  0.00    -0.100 C  
BRANCH  12  13
HETATM   13  C   UNL     1      -6.164  10.707  65.336  1.00  0.00    -0.071 C  
BRANCH  13  14
HETATM   14  C   UNL     1      -6.636   9.355  64.834  1.00  0.00    -0.082 A  
HETATM   15  C   UNL     1      -7.660   9.239  63.882  1.00  0.00    -0.113 A  
HETATM   16  C   UNL     1      -8.117   7.988  63.463  1.00  0.00    -0.097 A  
HETATM   17  C   UNL     1      -7.513   6.829  63.944  1.00  0.00    -0.094 A  
HETATM   18  C   UNL     1      -6.457   6.919  64.857  1.00  0.00    -0.043 A  
HETATM   19  C   UNL     1      -6.020   8.176  65.291  1.00  0.00    -0.045 A  
BRANCH  17  20
HETATM   20  S   UNL     1      -8.196   5.248  63.503  1.00  0.00    -0.112 S  
HETATM   21  O   UNL     1      -7.135   4.266  63.480  1.00  0.00    -0.044 OA 
HETATM   22  O   UNL     1      -9.028   5.451  62.332  1.00  0.00    -0.078 OA 
BRANCH  20  23
HETATM   23  N   UNL     1      -9.267   4.895  64.728  1.00  0.00    -0.302 N  
HETATM   24  H   UNL     1      -9.650   5.674  65.262  1.00  0.00     0.000 HD 
BRANCH  23  25
HETATM   25  C   UNL     1      -9.673   3.618  65.071  1.00  0.00    -0.162 C  
HETATM   26  O   UNL     1     -10.071   2.800  64.259  1.00  0.00    -0.128 OA 
BRANCH  25  27
HETATM   27  N   UNL     1      -9.565   3.355  66.408  1.00  0.00    -0.387 N  
HETATM   28  H   UNL     1      -9.817   2.433  66.763  1.00  0.00     0.000 HD 
BRANCH  27  29
HETATM   29  C   UNL     1      -9.092   4.381  67.334  1.00  0.00    -0.132 C  
HETATM   30  C   UNL     1      -9.676   4.180  68.737  1.00  0.00    -0.166 C  
HETATM   31  C   UNL     1      -9.028   3.024  69.497  1.00  0.00    -0.174 C  
HETATM   32  C   UNL     1      -7.509   3.150  69.529  1.00  0.00    -0.044 C  
HETATM   33  C   UNL     1      -6.927   3.289  68.126  1.00  0.00    -0.050 C  
HETATM   34  C   UNL     1      -7.560   4.454  67.367  1.00  0.00    -0.081 C  
ENDBRANCH  27  29
ENDBRANCH  25  27
ENDBRANCH  23  25
ENDBRANCH  20  23
ENDBRANCH  17  20
ENDBRANCH  13  14
ENDBRANCH  12  13
ENDBRANCH  10  12
ENDBRANCH   5   8
TORSDOF 9
ENDMDL
MODEL      325
REMARK 921   NORMALIZED FREE ENERGY PREDICTED BY IDOCK:   -2.45 KCAL/MOL
REMARK 922        TOTAL FREE ENERGY PREDICTED BY IDOCK:   -5.24 KCAL/MOL
REMARK 923 INTER-LIGAND FREE ENERGY PREDICTED BY IDOCK:   -4.18 KCAL/MOL
REMARK 924 INTRA-LIGAND FREE ENERGY PREDICTED BY IDOCK:   -1.06 KCAL/MOL
REMARK 927      BINDING AFFINITY PREDICTED BY RF-SCORE:    0.00 PKD
ROOT
HETATM    1  C   UNL     1     -10.175   5.255  66.003  1.00  0.00    -0.167 C  
HETATM    2  C   UNL     1      -9.175   4.559  66.870  1.00  0.00    -0.133 A  
HETATM    3  N   UNL     1      -7.892   4.998  66.827  1.00  0.00    -0.099 NA 
HETATM    4  C   UNL     1      -7.009   4.319  67.602  1.00  0.00    -0.059 A  
HETATM    5  C   UNL     1      -7.387   3.247  68.395  1.00  0.00    -0.050 A  
HETATM    6  C   UNL     1      -9.549   3.488  67.683  1.00  0.00    -0.127 A  
HETATM    7  N   UNL     1      -8.675   2.803  68.464  1.00  0.00    -0.084 NA 
ENDROOT
BRANCH   5   8
HETATM    8  C   UNL     1      -6.352   2.517  69.177  1.00  0.00    -0.029 C  
HETATM    9  O   UNL     1      -5.834   1.497  68.736  1.00  0.00    -0.021 OA 
HETATM   10  N   UNL     1      -6.047   3.054  70.413  1.00  0.00    -0.022 N  
HETATM   11  H   UNL     1      -6.455   3.949  70.682  1.00  0.00     0.000 HD 
BRANCH  10  12
HETATM   12  C   UNL     1      -5.159   2.375  71.337  1.00  0.00     0.000 C  
BRANCH  12  13
HETATM   13  C   UNL     1      -5.262   2.912  72.774  1.00  0.00     0.000 C  
BRANCH  13  14
HETATM   14  C   UNL     1      -6.150   4.132  72.933  1.00  0.00    -0.016 A  
HETATM   15  C   UNL     1      -7.548   4.023  72.991  1.00  0.00    -0.075 A  
HETATM   16  C   UNL     1      -8.356   5.157  73.090  1.00  0.00    -0.108 A  
HETATM   17  C   UNL     1      -7.775   6.419  73.197  1.00  0.00    -0.098 A  
HETATM   18  C   UNL     1      -6.383   6.550  73.191  1.00  0.00    -0.063 A  
HETATM   19  C   UNL     1      -5.579   5.411  73.066  1.00  0.00    -0.023 A  
BRANCH  17  20
HETATM   20  S   UNL     1      -8.820   7.857  73.187  1.00  0.00    -0.261 S  
HETATM   21  O   UNL     1      -8.133   8.943  73.851  1.00  0.00    -0.315 OA 
HETATM   22  O   UNL     1     -10.132   7.438  73.641  1.00  0.00    -0.319 OA 
BRANCH  20  23
HETATM   23  N   UNL     1      -9.025   8.219  71.575  1.00  0.00    -0.156 N  
HETATM   24  H   UNL     1      -9.762   7.729  71.069  1.00  0.00     0.000 HD 
BRANCH  23  25
HETATM   25  C   UNL     1      -8.265   9.138  70.874  1.00  0.00    -0.177 C  
HETATM   26  O   UNL     1      -7.045   9.124  70.855  1.00  0.00    -0.087 OA 
BRANCH  25  27
HETATM   27  N   UNL     1      -9.015  10.050  70.186  1.00  0.00    -0.370 N  
HETATM   28  H   UNL     1      -9.296  10.918  70.641  1.00  0.00     0.000 HD 
BRANCH  27  29
HETATM   29  C   UNL     1      -9.419   9.795  68.806  1.00  0.00    -0.154 C  
HETATM   30  C   UNL     1     -10.942   9.677  68.681  1.00  0.00    -0.152 C  
HETATM   31  C   UNL     1     -11.657  11.024  68.769  1.00  0.00    -0.386 C  
HETATM   32  C   UNL     1     -11.085  12.033  67.779  1.00  0.00    -0.303 C  
HETATM   33  C   UNL     1      -9.578  12.193  67.947  1.00  0.00    -0.198 C  
HETATM   34  C   UNL     1      -8.855  10.850  67.844  1.00  0.00    -0.134 C  
ENDBRANCH  27  29
ENDBRANCH  25  27
ENDBRANCH  23  25
ENDBRANCH  20  23
ENDBRANCH  17  20
ENDBRANCH  13  14
ENDBRANCH  12  13
ENDBRANCH  10  12
ENDBRANCH   5   8
TORSDOF 9
ENDMDL
MODEL      326
REMARK 921   NORMALIZED FREE ENERGY PREDICTED BY IDOCK:   -2.43 KCAL/MOL
REMARK 922        TOTAL FREE ENERGY PREDICTED BY IDOCK:   -5.20 KCAL/MOL
REMARK 923 INTER-LIGAND FREE ENERGY PREDICTED BY IDOCK:   -4.75 KCAL/MOL
REMARK 924 INTRA-LIGAND FREE ENERGY PREDICTED BY IDOCK:   -0.45 KCAL/MOL
REMARK 927      BINDING AFFINITY PREDICTED BY RF-SCORE:    0.00 PKD
ROOT
HETATM    1  C   UNL     1     -11.907  12.331  65.147  1.00  0.00    -0.404 C  
HETATM    2  C   UNL     1     -11.179  11.269  65.908  1.00  0.00    -0.027 A  
HETATM    3  N   UNL     1     -10.288  10.506  65.227  1.00  0.00    -0.267 NA 
HETATM    4  C   UNL     1      -9.674   9.531  65.943  1.00  0.00    -0.282 A  
HETATM    5  C   UNL     1      -9.932   9.325  67.290  1.00  0.00    -0.207 A  
HETATM    6  C   UNL     1     -11.422  11.063  67.266  1.00  0.00    -0.081 A  
HETATM    7  N   UNL     1     -10.812  10.093  67.995  1.00  0.00    -0.258 NA 
ENDROOT
BRANCH   5   8
HETATM    8  C   UNL     1      -9.260   8.201  67.998  1.00  0.00    -0.132 C  
HETATM    9  O   UNL     1      -9.654   7.825  69.096  1.00  0.00    -0.155 OA 
HETATM   10  N   UNL     1      -8.174   7.648  67.346  1.00  0.00    -0.115 N  
HETATM   11  H   UNL     1      -7.952   7.955  66.399  1.00  0.00     0.000 HD 
BRANCH  10  12
HETATM   12  C   UNL     1      -7.344   6.641  67.977  1.00  0.00    -0.097 C  
BRANCH  12  13
HETATM   13  C   UNL     1      -6.018   7.204  68.514  1.00  0.00    -0.026 C  
BRANCH  13  14
HETATM   14  C   UNL     1      -6.016   8.704  68.747  1.00  0.00    -0.044 A  
HETATM   15  C   UNL     1      -6.374   9.257  69.986  1.00  0.00    -0.044 A  
HETATM   16  C   UNL     1      -6.412  10.640  70.174  1.00  0.00    -0.152 A  
HETATM   17  C   UNL     1      -6.031  11.494  69.141  1.00  0.00    -0.056 A  
HETATM   18  C   UNL     1      -5.623  10.966  67.913  1.00  0.00    -0.039 A  
HETATM   19  C   UNL     1      -5.610   9.579  67.723  1.00  0.00    -0.040 A  
BRANCH  17  20
HETATM   20  S   UNL     1      -6.215  13.249  69.356  1.00  0.00    -0.112 S  
HETATM   21  O   UNL     1      -5.512  13.931  68.291  1.00  0.00    -0.094 OA 
HETATM   22  O   UNL     1      -5.906  13.547  70.741  1.00  0.00    -0.184 OA 
BRANCH  20  23
HETATM   23  N   UNL     1      -7.851  13.522  69.218  1.00  0.00    -0.299 N  
HETATM   24  H   UNL     1      -8.464  12.709  69.156  1.00  0.00     0.000 HD 
BRANCH  23  25
HETATM   25  C   UNL     1      -8.438  14.774  69.182  1.00  0.00    -0.096 C  
HETATM   26  O   UNL     1      -9.097  15.232  70.102  1.00  0.00     0.058 OA 
BRANCH  25  27
HETATM   27  N   UNL     1      -8.191  15.457  68.024  1.00  0.00    -0.141 N  
HETATM   28  H   UNL     1      -7.356  15.240  67.480  1.00  0.00     0.000 HD 
BRANCH  27  29
HETATM   29  C   UNL     1      -9.108  16.492  67.559  1.00  0.00    -0.197 C  
HETATM   30  C   UNL     1      -9.063  16.636  66.034  1.00  0.00    -0.259 C  
HETATM   31  C   UNL     1      -9.779  15.503  65.302  1.00  0.00    -0.119 C  
HETATM   32  C   UNL     1     -11.204  15.314  65.810  1.00  0.00    -0.247 C  
HETATM   33  C   UNL     1     -11.241  15.111  67.320  1.00  0.00    -0.324 C  
HETATM   34  C   UNL     1     -10.540  16.251  68.058  1.00  0.00    -0.308 C  
ENDBRANCH  27  29
ENDBRANCH  25  27
ENDBRANCH  23  25
ENDBRANCH  20  23
ENDBRANCH  17  20
ENDBRANCH  13  14
ENDBRANCH  12  13
ENDBRANCH  10  12
ENDBRANCH   5   8
TORSDOF 9
ENDMDL
MODEL      327
REMARK 921   NORMALIZED FREE ENERGY PREDICTED BY IDOCK:   -2.41 KCAL/MOL
REMARK 922        TOTAL FREE ENERGY PREDICTED BY IDOCK:   -5.17 KCAL/MOL
REMARK 923 INTER-LIGAND FREE ENERGY PREDICTED BY IDOCK:   -4.15 KCAL/MOL
REMARK 924 INTRA-LIGAND FREE ENERGY PREDICTED BY IDOCK:   -1.02 KCAL/MOL
REMARK 927      BINDING AFFINITY PREDICTED BY RF-SCORE:    0.00 PKD
ROOT
HETATM    1  C   UNL     1      -6.264  20.772  70.769  1.00  0.00     0.500 C  
HETATM    2  C   UNL     1      -6.297  19.514  69.960  1.00  0.00    -0.250 A  
HETATM    3  N   UNL     1      -7.463  19.193  69.345  1.00  0.00    -0.170 NA 
HETATM    4  C   UNL     1      -7.464  18.028  68.650  1.00  0.00    -0.286 A  
HETATM    5  C   UNL     1      -6.345  17.213  68.565  1.00  0.00    -0.157 A  
HETATM    6  C   UNL     1      -5.172  18.696  69.856  1.00  0.00    -0.206 A  
HETATM    7  N   UNL     1      -5.159  17.529  69.162  1.00  0.00    -0.169 NA 
ENDROOT
BRANCH   5   8
HETATM    8  C   UNL     1      -6.437  15.923  67.828  1.00  0.00    -0.156 C  
HETATM    9  O   UNL     1      -6.507  15.902  66.604  1.00  0.00    -0.171 OA 
HETATM   10  N   UNL     1      -6.459  14.786  68.614  1.00  0.00    -0.081 N  
HETATM   11  H   UNL     1      -6.314  14.873  69.620  1.00  0.00     0.000 HD 
BRANCH  10  12
HETATM   12  C   UNL     1      -6.681  13.473  68.041  1.00  0.00    -0.138 C  
BRANCH  12  13
HETATM   13  C   UNL     1      -5.672  12.423  68.533  1.00  0.00    -0.054 C  
BRANCH  13  14
HETATM   14  C   UNL     1      -6.287  11.260  69.292  1.00  0.00    -0.081 A  
HETATM   15  C   UNL     1      -7.325  10.492  68.745  1.00  0.00    -0.092 A  
HETATM   16  C   UNL     1      -7.913   9.454  69.471  1.00  0.00    -0.098 A  
HETATM   17  C   UNL     1      -7.428   9.127  70.736  1.00  0.00    -0.122 A  
HETATM   18  C   UNL     1      -6.361   9.847  71.282  1.00  0.00     0.121 A  
HETATM   19  C   UNL     1      -5.792  10.902  70.559  1.00  0.00    -0.130 A  
BRANCH  17  20
HETATM   20  S   UNL     1      -8.275   7.895  71.697  1.00  0.00    -0.123 S  
HETATM   21  O   UNL     1      -8.729   8.491  72.934  1.00  0.00    -0.337 OA 
HETATM   22  O   UNL     1      -7.432   6.715  71.722  1.00  0.00    -0.089 OA 
BRANCH  20  23
HETATM   23  N   UNL     1      -9.585   7.460  70.766  1.00  0.00    -0.171 N  
HETATM   24  H   UNL     1     -10.188   8.206  70.419  1.00  0.00     0.000 HD 
BRANCH  23  25
HETATM   25  C   UNL     1      -9.912   6.159  70.429  1.00  0.00    -0.181 C  
HETATM   26  O   UNL     1     -10.882   5.574  70.882  1.00  0.00    -0.246 OA 
BRANCH  25  27
HETATM   27  N   UNL     1      -9.055   5.600  69.523  1.00  0.00    -0.124 N  
HETATM   28  H   UNL     1      -8.063   5.526  69.747  1.00  0.00     0.000 HD 
BRANCH  27  29
HETATM   29  C   UNL     1      -9.544   5.108  68.239  1.00  0.00    -0.135 C  
HETATM   30  C   UNL     1     -10.820   5.841  67.808  1.00  0.00    -0.259 C  
HETATM   31  C   UNL     1     -10.555   7.257  67.301  1.00  0.00    -0.395 C  
HETATM   32  C   UNL     1      -9.494   7.277  66.206  1.00  0.00    -0.133 C  
HETATM   33  C   UNL     1      -8.206   6.600  66.660  1.00  0.00    -0.112 C  
HETATM   34  C   UNL     1      -8.462   5.176  67.153  1.00  0.00    -0.106 C  
ENDBRANCH  27  29
ENDBRANCH  25  27
ENDBRANCH  23  25
ENDBRANCH  20  23
ENDBRANCH  17  20
ENDBRANCH  13  14
ENDBRANCH  12  13
ENDBRANCH  10  12
ENDBRANCH   5   8
TORSDOF 9
ENDMDL
MODEL      328
REMARK 921   NORMALIZED FREE ENERGY PREDICTED BY IDOCK:   -2.30 KCAL/MOL
REMARK 922        TOTAL FREE ENERGY PREDICTED BY IDOCK:   -5.00 KCAL/MOL
REMARK 923 INTER-LIGAND FREE ENERGY PREDICTED BY IDOCK:   -4.58 KCAL/MOL
REMARK 924 INTRA-LIGAND FREE ENERGY PREDICTED BY IDOCK:   -0.42 KCAL/MOL
REMARK 927      BINDING AFFINITY PREDICTED BY RF-SCORE:    0.00 PKD
ROOT
HETATM    1  C   UNL     1      -8.139   6.455  62.358  1.00  0.00    -0.097 C  
HETATM    2  C   UNL     1      -8.220   7.633  63.276  1.00  0.00     0.027 A  
HETATM    3  N   UNL     1      -8.771   8.773  62.789  1.00  0.00    -0.127 NA 
HETATM    4  C   UNL     1      -8.794   9.829  63.641  1.00  0.00    -0.236 A  
HETATM    5  C   UNL     1      -8.295   9.753  64.932  1.00  0.00    -0.148 A  
HETATM    6  C   UNL     1      -7.733   7.562  64.582  1.00  0.00    -0.122 A  
HETATM    7  N   UNL     1      -7.754   8.611  65.445  1.00  0.00    -0.091 NA 
ENDROOT
BRANCH   5   8
HETATM    8  C   UNL     1      -8.307  10.970  65.791  1.00  0.00    -0.092 C  
HETATM    9  O   UNL     1      -9.359  11.540  66.057  1.00  0.00    -0.215 OA 
HETATM   10  N   UNL     1      -7.071  11.402  66.233  1.00  0.00    -0.358 N  
HETATM   11  H   UNL     1      -6.246  10.834  66.042  1.00  0.00     0.000 HD 
BRANCH  10  12
HETATM   12  C   UNL     1      -6.920  12.646  66.962  1.00  0.00     0.099 C  
BRANCH  12  13
HETATM   13  C   UNL     1      -6.733  12.438  68.474  1.00  0.00    -0.077 C  
BRANCH  13  14
HETATM   14  C   UNL     1      -6.887  11.001  68.939  1.00  0.00    -0.079 A  
HETATM   15  C   UNL     1      -5.845  10.071  68.812  1.00  0.00    -0.034 A  
HETATM   16  C   UNL     1      -6.014   8.741  69.201  1.00  0.00    -0.042 A  
HETATM   17  C   UNL     1      -7.212   8.333  69.784  1.00  0.00    -0.060 A  
HETATM   18  C   UNL     1      -8.249   9.254  69.967  1.00  0.00    -0.160 A  
HETATM   19  C   UNL     1      -8.081  10.580  69.553  1.00  0.00    -0.105 A  
BRANCH  17  20
HETATM   20  S   UNL     1      -7.456   6.611  70.149  1.00  0.00    -0.096 S  
HETATM   21  O   UNL     1      -8.010   6.484  71.479  1.00  0.00    -0.102 OA 
HETATM   22  O   UNL     1      -6.230   5.920  69.801  1.00  0.00    -0.024 OA 
BRANCH  20  23
HETATM   23  N   UNL     1      -8.568   6.094  69.023  1.00  0.00    -0.121 N  
HETATM   24  H   UNL     1      -8.241   5.467  68.287  1.00  0.00     0.000 HD 
BRANCH  23  25
HETATM   25  C   UNL     1      -9.903   6.455  69.013  1.00  0.00    -0.138 C  
HETATM   26  O   UNL     1     -10.391   7.195  68.174  1.00  0.00    -0.180 OA 
BRANCH  25  27
HETATM   27  N   UNL     1     -10.627   5.886  70.023  1.00  0.00    -0.266 N  
HETATM   28  H   UNL     1     -10.410   4.936  70.325  1.00  0.00     0.000 HD 
BRANCH  27  29
HETATM   29  C   UNL     1     -11.706   6.622  70.674  1.00  0.00    -0.394 C  
HETATM   30  C   UNL     1     -12.072   6.000  72.026  1.00  0.00    -0.170 C  
HETATM   31  C   UNL     1     -11.048   6.295  73.120  1.00  0.00    -0.201 C  
HETATM   32  C   UNL     1     -10.767   7.788  73.242  1.00  0.00    -0.335 C  
HETATM   33  C   UNL     1     -10.344   8.392  71.908  1.00  0.00    -0.353 C  
HETATM   34  C   UNL     1     -11.373   8.114  70.813  1.00  0.00    -0.283 C  
ENDBRANCH  27  29
ENDBRANCH  25  27
ENDBRANCH  23  25
ENDBRANCH  20  23
ENDBRANCH  17  20
ENDBRANCH  13  14
ENDBRANCH  12  13
ENDBRANCH  10  12
ENDBRANCH   5   8
TORSDOF 9
ENDMDL
MODEL      329
REMARK 921   NORMALIZED FREE ENERGY PREDICTED BY IDOCK:   -2.25 KCAL/MOL
REMARK 922        TOTAL FREE ENERGY PREDICTED BY IDOCK:   -4.93 KCAL/MOL
REMARK 923 INTER-LIGAND FREE ENERGY PREDICTED BY IDOCK:   -4.51 KCAL/MOL
REMARK 924 INTRA-LIGAND FREE ENERGY PREDICTED BY IDOCK:   -0.42 KCAL/MOL
REMARK 927      BINDING AFFINITY PREDICTED BY RF-SCORE:    0.00 PKD
ROOT
HETATM    1  C   UNL     1     -10.716   5.093  71.305  1.00  0.00    -0.142 C  
HETATM    2  C   UNL     1     -10.595   6.425  70.636  1.00  0.00    -0.237 A  
HETATM    3  N   UNL     1     -11.132   6.557  69.398  1.00  0.00    -0.331 NA 
HETATM    4  C   UNL     1     -10.971   7.770  68.810  1.00  0.00     0.144 A  
HETATM    5  C   UNL     1     -10.306   8.815  69.433  1.00  0.00    -0.214 A  
HETATM    6  C   UNL     1      -9.940   7.487  71.261  1.00  0.00    -0.186 A  
HETATM    7  N   UNL     1      -9.775   8.706  70.685  1.00  0.00    -0.175 NA 
ENDROOT
BRANCH   5   8
HETATM    8  C   UNL     1     -10.122  10.100  68.704  1.00  0.00    -0.172 C  
HETATM    9  O   UNL     1      -9.270  10.907  69.059  1.00  0.00    -0.176 OA 
HETATM   10  N   UNL     1     -10.980  10.313  67.641  1.00  0.00    -0.303 N  
HETATM   11  H   UNL     1     -11.609   9.565  67.351  1.00  0.00     0.000 HD 
BRANCH  10  12
HETATM   12  C   UNL     1     -11.005  11.575  66.929  1.00  0.00    -0.296 C  
BRANCH  12  13
HETATM   13  C   UNL     1      -9.665  11.911  66.253  1.00  0.00    -0.247 C  
BRANCH  13  14
HETATM   14  C   UNL     1      -9.013  10.749  65.527  1.00  0.00    -0.210 A  
HETATM   15  C   UNL     1      -7.820  10.170  65.986  1.00  0.00    -0.122 A  
HETATM   16  C   UNL     1      -7.206   9.132  65.284  1.00  0.00    -0.089 A  
HETATM   17  C   UNL     1      -7.809   8.612  64.140  1.00  0.00    -0.141 A  
HETATM   18  C   UNL     1      -9.023   9.140  63.690  1.00  0.00     0.015 A  
HETATM   19  C   UNL     1      -9.622  10.197  64.386  1.00  0.00    -0.366 A  
BRANCH  17  20
HETATM   20  S   UNL     1      -6.946   7.385  63.187  1.00  0.00    -0.066 S  
HETATM   21  O   UNL     1      -5.836   8.012  62.505  1.00  0.00    -0.068 OA 
HETATM   22  O   UNL     1      -7.942   6.647  62.433  1.00  0.00    -0.098 OA 
BRANCH  20  23
HETATM   23  N   UNL     1      -6.377   6.299  64.313  1.00  0.00    -0.030 N  
HETATM   24  H   UNL     1      -5.432   6.438  64.670  1.00  0.00     0.000 HD 
BRANCH  23  25
HETATM   25  C   UNL     1      -7.096   5.221  64.798  1.00  0.00    -0.057 C  
HETATM   26  O   UNL     1      -6.592   4.141  65.055  1.00  0.00    -0.044 OA 
BRANCH  25  27
HETATM   27  N   UNL     1      -8.423   5.492  64.982  1.00  0.00    -0.149 N  
HETATM   28  H   UNL     1      -9.056   5.479  64.183  1.00  0.00     0.000 HD 
BRANCH  27  29
HETATM   29  C   UNL     1      -8.944   5.800  66.311  1.00  0.00    -0.146 C  
HETATM   30  C   UNL     1      -9.724   4.617  66.894  1.00  0.00    -0.215 C  
HETATM   31  C   UNL     1      -8.822   3.483  67.378  1.00  0.00    -0.149 C  
HETATM   32  C   UNL     1      -7.752   3.985  68.341  1.00  0.00    -0.066 C  
HETATM   33  C   UNL     1      -6.938   5.123  67.734  1.00  0.00    -0.062 C  
HETATM   34  C   UNL     1      -7.834   6.266  67.263  1.00  0.00    -0.108 C  
ENDBRANCH  27  29
ENDBRANCH  25  27
ENDBRANCH  23  25
ENDBRANCH  20  23
ENDBRANCH  17  20
ENDBRANCH  13  14
ENDBRANCH  12  13
ENDBRANCH  10  12
ENDBRANCH   5   8
TORSDOF 9
ENDMDL
MODEL      330
REMARK 921   NORMALIZED FREE ENERGY PREDICTED BY IDOCK:   -2.24 KCAL/MOL
REMARK 922        TOTAL FREE ENERGY PREDICTED BY IDOCK:   -4.92 KCAL/MOL
REMARK 923 INTER-LIGAND FREE ENERGY PREDICTED BY IDOCK:   -3.60 KCAL/MOL
REMARK 924 INTRA-LIGAND FREE ENERGY PREDICTED BY IDOCK:   -1.32 KCAL/MOL
REMARK 927      BINDING AFFINITY PREDICTED BY RF-SCORE:    0.00 PKD
ROOT
HETATM    1  C   UNL     1      -8.191   6.768  62.404  1.00  0.00    -0.049 C  
HETATM    2  C   UNL     1      -8.106   7.884  63.397  1.00  0.00    -0.083 A  
HETATM    3  N   UNL     1      -8.562   9.102  63.014  1.00  0.00    -0.209 NA 
HETATM    4  C   UNL     1      -8.436  10.096  63.930  1.00  0.00    -0.181 A  
HETATM    5  C   UNL     1      -7.882   9.885  65.183  1.00  0.00    -0.133 A  
HETATM    6  C   UNL     1      -7.563   7.678  64.666  1.00  0.00    -0.111 A  
HETATM    7  N   UNL     1      -7.434   8.663  65.592  1.00  0.00    -0.084 NA 
ENDROOT
BRANCH   5   8
HETATM    8  C   UNL     1      -7.728  11.036  66.116  1.00  0.00    -0.102 C  
HETATM    9  O   UNL     1      -8.709  11.633  66.544  1.00  0.00    -0.184 OA 
HETATM   10  N   UNL     1      -6.427  11.379  66.432  1.00  0.00    -0.324 N  
HETATM   11  H   UNL     1      -5.663  10.789  66.105  1.00  0.00     0.000 HD 
BRANCH  10  12
HETATM   12  C   UNL     1      -6.125  12.559  67.217  1.00  0.00    -0.117 C  
BRANCH  12  13
HETATM   13  C   UNL     1      -5.651  12.228  68.642  1.00  0.00    -0.053 C  
BRANCH  13  14
HETATM   14  C   UNL     1      -6.034  10.843  69.131  1.00  0.00    -0.042 A  
HETATM   15  C   UNL     1      -5.151   9.757  69.032  1.00  0.00    -0.036 A  
HETATM   16  C   UNL     1      -5.532   8.478  69.443  1.00  0.00    -0.031 A  
HETATM   17  C   UNL     1      -6.784   8.276  70.019  1.00  0.00    -0.042 A  
HETATM   18  C   UNL     1      -7.663   9.352  70.174  1.00  0.00    -0.140 A  
HETATM   19  C   UNL     1      -7.284  10.627  69.738  1.00  0.00    -0.135 A  
BRANCH  17  20
HETATM   20  S   UNL     1      -7.300   6.621  70.411  1.00  0.00    -0.083 S  
HETATM   21  O   UNL     1      -7.654   6.557  71.812  1.00  0.00    -0.092 OA 
HETATM   22  O   UNL     1      -6.301   5.719  69.869  1.00  0.00    -0.028 OA 
BRANCH  20  23
HETATM   23  N   UNL     1      -8.652   6.368  69.474  1.00  0.00    -0.132 N  
HETATM   24  H   UNL     1      -8.791   6.976  68.667  1.00  0.00     0.000 HD 
BRANCH  23  25
HETATM   25  C   UNL     1      -9.602   5.391  69.714  1.00  0.00    -0.168 C  
HETATM   26  O   UNL     1     -10.794   5.629  69.828  1.00  0.00    -0.336 OA 
BRANCH  25  27
HETATM   27  N   UNL     1      -9.079   4.131  69.789  1.00  0.00    -0.098 N  
HETATM   28  H   UNL     1      -8.315   3.864  69.168  1.00  0.00     0.000 HD 
BRANCH  27  29
HETATM   29  C   UNL     1      -9.601   3.163  70.748  1.00  0.00    -0.149 C  
HETATM   30  C   UNL     1      -9.066   1.754  70.470  1.00  0.00    -0.149 C  
HETATM   31  C   UNL     1      -7.610   1.570  70.893  1.00  0.00    -0.032 C  
HETATM   32  C   UNL     1      -7.388   1.982  72.344  1.00  0.00    -0.035 C  
HETATM   33  C   UNL     1      -7.866   3.406  72.603  1.00  0.00    -0.067 C  
HETATM   34  C   UNL     1      -9.327   3.592  72.196  1.00  0.00    -0.178 C  
ENDBRANCH  27  29
ENDBRANCH  25  27
ENDBRANCH  23  25
ENDBRANCH  20  23
ENDBRANCH  17  20
ENDBRANCH  13  14
ENDBRANCH  12  13
ENDBRANCH  10  12
ENDBRANCH   5   8
TORSDOF 9
ENDMDL
MODEL      331
REMARK 921   NORMALIZED FREE ENERGY PREDICTED BY IDOCK:   -2.22 KCAL/MOL
REMARK 922        TOTAL FREE ENERGY PREDICTED BY IDOCK:   -4.88 KCAL/MOL
REMARK 923 INTER-LIGAND FREE ENERGY PREDICTED BY IDOCK:   -4.04 KCAL/MOL
REMARK 924 INTRA-LIGAND FREE ENERGY PREDICTED BY IDOCK:   -0.84 KCAL/MOL
REMARK 927      BINDING AFFINITY PREDICTED BY RF-SCORE:    0.00 PKD
ROOT
HETATM    1  C   UNL     1      -8.116   7.318  63.435  1.00  0.00    -0.003 C  
HETATM    2  C   UNL     1      -7.619   8.289  64.458  1.00  0.00    -0.108 A  
HETATM    3  N   UNL     1      -6.958   9.387  64.014  1.00  0.00    -0.093 NA 
HETATM    4  C   UNL     1      -6.493  10.226  64.974  1.00  0.00    -0.120 A  
HETATM    5  C   UNL     1      -6.683   9.986  66.326  1.00  0.00    -0.094 A  
HETATM    6  C   UNL     1      -7.819   8.063  65.821  1.00  0.00    -0.097 A  
HETATM    7  N   UNL     1      -7.361   8.896  66.790  1.00  0.00    -0.082 NA 
ENDROOT
BRANCH   5   8
HETATM    8  C   UNL     1      -6.098  10.924  67.323  1.00  0.00    -0.062 C  
HETATM    9  O   UNL     1      -6.082  10.643  68.516  1.00  0.00    -0.047 OA 
HETATM   10  N   UNL     1      -5.608  12.111  66.811  1.00  0.00    -0.130 N  
HETATM   11  H   UNL     1      -5.579  12.243  65.801  1.00  0.00     0.000 HD 
BRANCH  10  12
HETATM   12  C   UNL     1      -5.135  13.172  67.679  1.00  0.00    -0.041 C  
BRANCH  12  13
HETATM   13  C   UNL     1      -6.165  13.583  68.743  1.00  0.00    -0.090 C  
BRANCH  13  14
HETATM   14  C   UNL     1      -7.334  14.394  68.214  1.00  0.00    -0.122 A  
HETATM   15  C   UNL     1      -8.042  15.286  69.033  1.00  0.00    -0.202 A  
HETATM   16  C   UNL     1      -9.144  15.992  68.546  1.00  0.00    -0.203 A  
HETATM   17  C   UNL     1      -9.519  15.862  67.211  1.00  0.00    -0.212 A  
HETATM   18  C   UNL     1      -8.800  15.016  66.362  1.00  0.00    -0.238 A  
HETATM   19  C   UNL     1      -7.710  14.293  66.862  1.00  0.00     0.299 A  
BRANCH  17  20
HETATM   20  S   UNL     1     -11.003  16.663  66.646  1.00  0.00     0.224 S  
HETATM   21  O   UNL     1     -10.910  16.874  65.218  1.00  0.00    -0.522 OA 
HETATM   22  O   UNL     1     -11.251  17.783  67.534  1.00  0.00    -0.059 OA 
BRANCH  20  23
HETATM   23  N   UNL     1     -12.221  15.579  66.980  1.00  0.00     0.344 N  
HETATM   24  H   UNL     1     -12.844  15.791  67.759  1.00  0.00     0.000 HD 
BRANCH  23  25
HETATM   25  C   UNL     1     -12.447  14.411  66.275  1.00  0.00    -0.212 C  
HETATM   26  O   UNL     1     -12.667  14.383  65.075  1.00  0.00    -0.587 OA 
BRANCH  25  27
HETATM   27  N   UNL     1     -12.380  13.287  67.051  1.00  0.00    -0.231 N  
HETATM   28  H   UNL     1     -12.964  12.482  66.824  1.00  0.00     0.000 HD 
BRANCH  27  29
HETATM   29  C   UNL     1     -11.480  13.227  68.199  1.00  0.00    -0.312 C  
HETATM   30  C   UNL     1     -12.218  12.778  69.465  1.00  0.00    -0.161 C  
HETATM   31  C   UNL     1     -12.533  11.283  69.479  1.00  0.00    -0.127 C  
HETATM   32  C   UNL     1     -11.287  10.442  69.223  1.00  0.00    -0.296 C  
HETATM   33  C   UNL     1     -10.588  10.851  67.931  1.00  0.00    -0.246 C  
HETATM   34  C   UNL     1     -10.257  12.343  67.918  1.00  0.00    -0.213 C  
ENDBRANCH  27  29
ENDBRANCH  25  27
ENDBRANCH  23  25
ENDBRANCH  20  23
ENDBRANCH  17  20
ENDBRANCH  13  14
ENDBRANCH  12  13
ENDBRANCH  10  12
ENDBRANCH   5   8
TORSDOF 9
ENDMDL
MODEL      332
REMARK 921   NORMALIZED FREE ENERGY PREDICTED BY IDOCK:   -2.18 KCAL/MOL
REMARK 922        TOTAL FREE ENERGY PREDICTED BY IDOCK:   -4.82 KCAL/MOL
REMARK 923 INTER-LIGAND FREE ENERGY PREDICTED BY IDOCK:   -3.29 KCAL/MOL
REMARK 924 INTRA-LIGAND FREE ENERGY PREDICTED BY IDOCK:   -1.53 KCAL/MOL
REMARK 927      BINDING AFFINITY PREDICTED BY RF-SCORE:    0.00 PKD
ROOT
HETATM    1  C   UNL     1      -5.127  15.605  71.461  1.00  0.00    -0.093 C  
HETATM    2  C   UNL     1      -5.807  14.598  70.589  1.00  0.00    -0.167 A  
HETATM    3  N   UNL     1      -5.657  13.288  70.909  1.00  0.00    -0.190 NA 
HETATM    4  C   UNL     1      -6.260  12.403  70.074  1.00  0.00    -0.075 A  
HETATM    5  C   UNL     1      -6.989  12.806  68.966  1.00  0.00    -0.059 A  
HETATM    6  C   UNL     1      -6.555  14.994  69.480  1.00  0.00    -0.155 A  
HETATM    7  N   UNL     1      -7.165  14.119  68.640  1.00  0.00    -0.110 NA 
ENDROOT
BRANCH   5   8
HETATM    8  C   UNL     1      -7.577  11.775  68.066  1.00  0.00    -0.116 C  
HETATM    9  O   UNL     1      -7.048  11.501  66.995  1.00  0.00    -0.129 OA 
HETATM   10  N   UNL     1      -8.745  11.187  68.513  1.00  0.00    -0.156 N  
HETATM   11  H   UNL     1      -9.085  11.403  69.450  1.00  0.00     0.000 HD 
BRANCH  10  12
HETATM   12  C   UNL     1      -9.498  10.269  67.681  1.00  0.00    -0.151 C  
BRANCH  12  13
HETATM   13  C   UNL     1     -10.668   9.605  68.425  1.00  0.00    -0.251 C  
BRANCH  13  14
HETATM   14  C   UNL     1     -10.394   8.189  68.901  1.00  0.00    -0.225 A  
HETATM   15  C   UNL     1      -9.220   7.860  69.595  1.00  0.00    -0.153 A  
HETATM   16  C   UNL     1      -8.959   6.546  69.987  1.00  0.00    -0.144 A  
HETATM   17  C   UNL     1      -9.899   5.547  69.744  1.00  0.00    -0.194 A  
HETATM   18  C   UNL     1     -11.098   5.859  69.097  1.00  0.00    -0.328 A  
HETATM   19  C   UNL     1     -11.344   7.174  68.685  1.00  0.00     0.214 A  
BRANCH  17  20
HETATM   20  S   UNL     1      -9.490   3.860  70.129  1.00  0.00    -0.198 S  
HETATM   21  O   UNL     1     -10.516   3.310  70.987  1.00  0.00     0.532 OA 
HETATM   22  O   UNL     1      -8.101   3.839  70.546  1.00  0.00    -0.053 OA 
BRANCH  20  23
HETATM   23  N   UNL     1      -9.503   3.077  68.659  1.00  0.00    -0.171 N  
HETATM   24  H   UNL     1     -10.402   2.757  68.300  1.00  0.00     0.000 HD 
BRANCH  23  25
HETATM   25  C   UNL     1      -8.379   2.830  67.892  1.00  0.00    -0.080 C  
HETATM   26  O   UNL     1      -7.740   1.792  67.954  1.00  0.00    -0.057 OA 
BRANCH  25  27
HETATM   27  N   UNL     1      -8.067   3.852  67.040  1.00  0.00    -0.095 N  
HETATM   28  H   UNL     1      -7.141   4.278  67.081  1.00  0.00     0.000 HD 
BRANCH  27  29
HETATM   29  C   UNL     1      -9.045   4.342  66.073  1.00  0.00    -0.133 C  
HETATM   30  C   UNL     1      -8.991   5.868  65.946  1.00  0.00    -0.149 C  
HETATM   31  C   UNL     1      -7.781   6.363  65.155  1.00  0.00    -0.100 C  
HETATM   32  C   UNL     1      -7.676   5.678  63.797  1.00  0.00    -0.098 C  
HETATM   33  C   UNL     1      -7.669   4.159  63.931  1.00  0.00    -0.082 C  
HETATM   34  C   UNL     1      -8.886   3.658  64.708  1.00  0.00    -0.120 C  
ENDBRANCH  27  29
ENDBRANCH  25  27
ENDBRANCH  23  25
ENDBRANCH  20  23
ENDBRANCH  17  20
ENDBRANCH  13  14
ENDBRANCH  12  13
ENDBRANCH  10  12
ENDBRANCH   5   8
TORSDOF 9
ENDMDL
MODEL      333
REMARK 921   NORMALIZED FREE ENERGY PREDICTED BY IDOCK:   -2.17 KCAL/MOL
REMARK 922        TOTAL FREE ENERGY PREDICTED BY IDOCK:   -4.80 KCAL/MOL
REMARK 923 INTER-LIGAND FREE ENERGY PREDICTED BY IDOCK:   -3.72 KCAL/MOL
REMARK 924 INTRA-LIGAND FREE ENERGY PREDICTED BY IDOCK:   -1.08 KCAL/MOL
REMARK 927      BINDING AFFINITY PREDICTED BY RF-SCORE:    0.00 PKD
ROOT
HETATM    1  C   UNL     1     -11.886  16.382  71.095  1.00  0.00    -0.131 C  
HETATM    2  C   UNL     1     -11.236  15.330  70.253  1.00  0.00    -0.297 A  
HETATM    3  N   UNL     1     -12.045  14.494  69.556  1.00  0.00    -0.315 NA 
HETATM    4  C   UNL     1     -11.419  13.532  68.832  1.00  0.00    -0.306 A  
HETATM    5  C   UNL     1     -10.039  13.409  68.797  1.00  0.00    -0.085 A  
HETATM    6  C   UNL     1      -9.847  15.207  70.200  1.00  0.00     0.117 A  
HETATM    7  N   UNL     1      -9.209  14.251  69.478  1.00  0.00     0.406 NA 
ENDROOT
BRANCH   5   8
HETATM    8  C   UNL     1      -9.425  12.295  68.022  1.00  0.00    -0.206 C  
HETATM    9  O   UNL     1      -8.635  11.523  68.552  1.00  0.00    -0.152 OA 
HETATM   10  N   UNL     1      -9.791  12.220  66.692  1.00  0.00    -0.216 N  
HETATM   11  H   UNL     1     -10.515  12.845  66.338  1.00  0.00     0.000 HD 
BRANCH  10  12
HETATM   12  C   UNL     1      -9.170  11.272  65.788  1.00  0.00    -0.219 C  
BRANCH  12  13
HETATM   13  C   UNL     1     -10.069  10.067  65.469  1.00  0.00    -0.325 C  
BRANCH  13  14
HETATM   14  C   UNL     1      -9.517   8.727  65.920  1.00  0.00    -0.278 A  
HETATM   15  C   UNL     1     -10.359   7.642  66.207  1.00  0.00     0.310 A  
HETATM   16  C   UNL     1      -9.842   6.429  66.666  1.00  0.00    -0.203 A  
HETATM   17  C   UNL     1      -8.464   6.261  66.787  1.00  0.00    -0.111 A  
HETATM   18  C   UNL     1      -7.601   7.312  66.460  1.00  0.00    -0.092 A  
HETATM   19  C   UNL     1      -8.128   8.533  66.024  1.00  0.00    -0.110 A  
BRANCH  17  20
HETATM   20  S   UNL     1      -7.834   4.759  67.499  1.00  0.00    -0.094 S  
HETATM   21  O   UNL     1      -6.463   4.576  67.076  1.00  0.00    -0.039 OA 
HETATM   22  O   UNL     1      -8.817   3.722  67.254  1.00  0.00    -0.107 OA 
BRANCH  20  23
HETATM   23  N   UNL     1      -7.889   5.016  69.142  1.00  0.00    -0.079 N  
HETATM   24  H   UNL     1      -7.035   4.853  69.677  1.00  0.00     0.000 HD 
BRANCH  23  25
HETATM   25  C   UNL     1      -9.011   5.434  69.835  1.00  0.00    -0.125 C  
HETATM   26  O   UNL     1     -10.067   4.823  69.830  1.00  0.00    -0.235 OA 
BRANCH  25  27
HETATM   27  N   UNL     1      -8.814   6.586  70.543  1.00  0.00    -0.150 N  
HETATM   28  H   UNL     1      -8.645   7.461  70.046  1.00  0.00     0.000 HD 
BRANCH  27  29
HETATM   29  C   UNL     1      -8.843   6.579  72.003  1.00  0.00    -0.133 C  
HETATM   30  C   UNL     1      -7.781   5.637  72.579  1.00  0.00    -0.102 C  
HETATM   31  C   UNL     1      -6.365   6.202  72.489  1.00  0.00    -0.054 C  
HETATM   32  C   UNL     1      -6.274   7.597  73.099  1.00  0.00    -0.061 C  
HETATM   33  C   UNL     1      -7.293   8.548  72.480  1.00  0.00    -0.077 C  
HETATM   34  C   UNL     1      -8.713   7.995  72.581  1.00  0.00    -0.250 C  
ENDBRANCH  27  29
ENDBRANCH  25  27
ENDBRANCH  23  25
ENDBRANCH  20  23
ENDBRANCH  17  20
ENDBRANCH  13  14
ENDBRANCH  12  13
ENDBRANCH  10  12
ENDBRANCH   5   8
TORSDOF 9
ENDMDL
MODEL      334
REMARK 921   NORMALIZED FREE ENERGY PREDICTED BY IDOCK:   -1.87 KCAL/MOL
REMARK 922        TOTAL FREE ENERGY PREDICTED BY IDOCK:   -4.35 KCAL/MOL
REMARK 923 INTER-LIGAND FREE ENERGY PREDICTED BY IDOCK:   -5.15 KCAL/MOL
REMARK 924 INTRA-LIGAND FREE ENERGY PREDICTED BY IDOCK:    0.79 KCAL/MOL
REMARK 927      BINDING AFFINITY PREDICTED BY RF-SCORE:    0.00 PKD
ROOT
HETATM    1  C   UNL     1      -7.421   8.038  74.125  1.00  0.00    -0.223 C  
HETATM    2  C   UNL     1      -7.633   8.291  72.665  1.00  0.00    -0.114 A  
HETATM    3  N   UNL     1      -6.763   9.122  72.039  1.00  0.00    -0.300 NA 
HETATM    4  C   UNL     1      -7.009   9.354  70.725  1.00  0.00    -0.114 A  
HETATM    5  C   UNL     1      -8.077   8.775  70.055  1.00  0.00    -0.111 A  
HETATM    6  C   UNL     1      -8.696   7.702  71.980  1.00  0.00    -0.117 A  
HETATM    7  N   UNL     1      -8.951   7.923  70.665  1.00  0.00    -0.147 NA 
ENDROOT
BRANCH   5   8
HETATM    8  C   UNL     1      -8.314   9.118  68.626  1.00  0.00    -0.126 C  
HETATM    9  O   UNL     1      -8.027  10.228  68.190  1.00  0.00    -0.106 OA 
HETATM   10  N   UNL     1      -8.887   8.122  67.859  1.00  0.00    -0.131 N  
HETATM   11  H   UNL     1      -9.024   7.197  68.265  1.00  0.00     0.000 HD 
BRANCH  10  12
HETATM   12  C   UNL     1      -9.297   8.361  66.489  1.00  0.00    -0.201 C  
BRANCH  12  13
HETATM   13  C   UNL     1      -8.535   9.521  65.827  1.00  0.00    -0.143 C  
BRANCH  13  14
HETATM   14  C   UNL     1      -9.360  10.775  65.603  1.00  0.00    -0.241 A  
HETATM   15  C   UNL     1     -10.704  10.711  65.206  1.00  0.00    -0.100 A  
HETATM   16  C   UNL     1     -11.438  11.873  64.958  1.00  0.00    -0.306 A  
HETATM   17  C   UNL     1     -10.857  13.122  65.164  1.00  0.00    -0.304 A  
HETATM   18  C   UNL     1      -9.533  13.211  65.607  1.00  0.00     0.090 A  
HETATM   19  C   UNL     1      -8.795  12.043  65.830  1.00  0.00     0.115 A  
BRANCH  17  20
HETATM   20  S   UNL     1     -11.763  14.584  64.716  1.00  0.00    -0.431 S  
HETATM   21  O   UNL     1     -12.593  14.291  63.568  1.00  0.00    -0.814 OA 
HETATM   22  O   UNL     1     -10.813  15.680  64.669  1.00  0.00    -0.411 OA 
BRANCH  20  23
HETATM   23  N   UNL     1     -12.720  14.909  66.038  1.00  0.00     0.109 N  
HETATM   24  H   UNL     1     -13.467  15.595  65.925  1.00  0.00     0.000 HD 
BRANCH  23  25
HETATM   25  C   UNL     1     -12.574  14.315  67.278  1.00  0.00     0.341 C  
HETATM   26  O   UNL     1     -12.962  13.187  67.531  1.00  0.00     0.924 OA 
BRANCH  25  27
HETATM   27  N   UNL     1     -11.934  15.109  68.188  1.00  0.00    -0.521 N  
HETATM   28  H   UNL     1     -12.007  16.124  68.112  1.00  0.00     0.000 HD 
BRANCH  27  29
HETATM   29  C   UNL     1     -11.146  14.521  69.267  1.00  0.00    -0.270 C  
HETATM   30  C   UNL     1     -10.173  15.540  69.871  1.00  0.00    -0.305 C  
HETATM   31  C   UNL     1     -10.860  16.567  70.769  1.00  0.00     0.229 C  
HETATM   32  C   UNL     1     -11.715  15.898  71.840  1.00  0.00    -0.590 C  
HETATM   33  C   UNL     1     -12.723  14.930  71.231  1.00  0.00    -0.412 C  
HETATM   34  C   UNL     1     -12.040  13.890  70.345  1.00  0.00    -0.421 C  
ENDBRANCH  27  29
ENDBRANCH  25  27
ENDBRANCH  23  25
ENDBRANCH  20  23
ENDBRANCH  17  20
ENDBRANCH  13  14
ENDBRANCH  12  13
ENDBRANCH  10  12
ENDBRANCH   5   8
TORSDOF 9
ENDMDL
MODEL      335
REMARK 921   NORMALIZED FREE ENERGY PREDICTED BY IDOCK:   -1.80 KCAL/MOL
REMARK 922        TOTAL FREE ENERGY PREDICTED BY IDOCK:   -4.25 KCAL/MOL
REMARK 923 INTER-LIGAND FREE ENERGY PREDICTED BY IDOCK:   -3.75 KCAL/MOL
REMARK 924 INTRA-LIGAND FREE ENERGY PREDICTED BY IDOCK:   -0.50 KCAL/MOL
REMARK 927      BINDING AFFINITY PREDICTED BY RF-SCORE:    0.00 PKD
ROOT
HETATM    1  C   UNL     1     -12.069  12.056  65.778  1.00  0.00    -0.011 C  
HETATM    2  C   UNL     1     -11.380  11.104  66.703  1.00  0.00    -0.001 A  
HETATM    3  N   UNL     1     -10.491  10.234  66.161  1.00  0.00    -0.176 NA 
HETATM    4  C   UNL     1      -9.912   9.363  67.026  1.00  0.00    -0.221 A  
HETATM    5  C   UNL     1     -10.202   9.361  68.382  1.00  0.00    -0.197 A  
HETATM    6  C   UNL     1     -11.654  11.103  68.071  1.00  0.00    -0.263 A  
HETATM    7  N   UNL     1     -11.080  10.239  68.947  1.00  0.00    -0.238 NA 
ENDROOT
BRANCH   5   8
HETATM    8  C   UNL     1      -9.568   8.340  69.262  1.00  0.00    -0.164 C  
HETATM    9  O   UNL     1      -9.989   8.139  70.395  1.00  0.00    -0.186 OA 
HETATM   10  N   UNL     1      -8.485   7.675  68.720  1.00  0.00    -0.129 N  
HETATM   11  H   UNL     1      -8.240   7.834  67.743  1.00  0.00     0.000 HD 
BRANCH  10  12
HETATM   12  C   UNL     1      -7.689   6.755  69.510  1.00  0.00    -0.104 C  
BRANCH  12  13
HETATM   13  C   UNL     1      -6.508   7.438  70.219  1.00  0.00    -0.035 C  
BRANCH  13  14
HETATM   14  C   UNL     1      -6.290   8.889  69.832  1.00  0.00    -0.038 A  
HETATM   15  C   UNL     1      -6.096   9.888  70.798  1.00  0.00    -0.095 A  
HETATM   16  C   UNL     1      -5.942  11.226  70.430  1.00  0.00    -0.140 A  
HETATM   17  C   UNL     1      -5.917  11.580  69.083  1.00  0.00    -0.056 A  
HETATM   18  C   UNL     1      -6.059  10.596  68.100  1.00  0.00    -0.050 A  
HETATM   19  C   UNL     1      -6.237   9.259  68.475  1.00  0.00    -0.049 A  
BRANCH  17  20
HETATM   20  S   UNL     1      -5.855  13.300  68.639  1.00  0.00    -0.089 S  
HETATM   21  O   UNL     1      -5.412  13.418  67.268  1.00  0.00    -0.349 OA 
HETATM   22  O   UNL     1      -5.144  13.991  69.698  1.00  0.00    -0.088 OA 
BRANCH  20  23
HETATM   23  N   UNL     1      -7.429  13.827  68.773  1.00  0.00    -0.152 N  
HETATM   24  H   UNL     1      -8.037  13.341  69.432  1.00  0.00     0.000 HD 
BRANCH  23  25
HETATM   25  C   UNL     1      -7.969  14.877  68.052  1.00  0.00    -0.129 C  
HETATM   26  O   UNL     1      -7.434  15.361  67.069  1.00  0.00    -0.205 OA 
BRANCH  25  27
HETATM   27  N   UNL     1      -9.173  15.305  68.537  1.00  0.00    -0.192 N  
HETATM   28  H   UNL     1      -9.276  16.270  68.850  1.00  0.00     0.000 HD 
BRANCH  27  29
HETATM   29  C   UNL     1     -10.313  14.396  68.613  1.00  0.00    -0.245 C  
HETATM   30  C   UNL     1     -10.597  13.974  70.059  1.00  0.00     0.513 C  
HETATM   31  C   UNL     1     -11.264  15.073  70.884  1.00  0.00    -0.268 C  
HETATM   32  C   UNL     1     -12.513  15.616  70.198  1.00  0.00    -0.311 C  
HETATM   33  C   UNL     1     -12.213  16.090  68.780  1.00  0.00     0.272 C  
HETATM   34  C   UNL     1     -11.560  14.990  67.945  1.00  0.00    -0.350 C  
ENDBRANCH  27  29
ENDBRANCH  25  27
ENDBRANCH  23  25
ENDBRANCH  20  23
ENDBRANCH  17  20
ENDBRANCH  13  14
ENDBRANCH  12  13
ENDBRANCH  10  12
ENDBRANCH   5   8
TORSDOF 9
ENDMDL
MODEL      336
REMARK 921   NORMALIZED FREE ENERGY PREDICTED BY IDOCK:   -1.75 KCAL/MOL
REMARK 922        TOTAL FREE ENERGY PREDICTED BY IDOCK:   -4.16 KCAL/MOL
REMARK 923 INTER-LIGAND FREE ENERGY PREDICTED BY IDOCK:   -4.84 KCAL/MOL
REMARK 924 INTRA-LIGAND FREE ENERGY PREDICTED BY IDOCK:    0.68 KCAL/MOL
REMARK 927      BINDING AFFINITY PREDICTED BY RF-SCORE:    0.00 PKD
ROOT
HETATM    1  C   UNL     1     -12.080  14.330  63.253  1.00  0.00     0.682 C  
HETATM    2  C   UNL     1     -11.788  14.128  64.706  1.00  0.00    -0.417 A  
HETATM    3  N   UNL     1     -11.596  12.856  65.138  1.00  0.00    -0.318 NA 
HETATM    4  C   UNL     1     -11.368  12.711  66.467  1.00  0.00    -0.326 A  
HETATM    5  C   UNL     1     -11.327  13.791  67.336  1.00  0.00    -0.324 A  
HETATM    6  C   UNL     1     -11.730  15.210  65.585  1.00  0.00    -0.036 A  
HETATM    7  N   UNL     1     -11.500  15.078  66.917  1.00  0.00    -0.308 NA 
ENDROOT
BRANCH   5   8
HETATM    8  C   UNL     1     -11.125  13.549  68.792  1.00  0.00    -0.264 C  
HETATM    9  O   UNL     1     -10.004  13.594  69.286  1.00  0.00     0.130 OA 
HETATM   10  N   UNL     1     -12.266  13.256  69.513  1.00  0.00    -0.233 N  
HETATM   11  H   UNL     1     -13.175  13.316  69.054  1.00  0.00     0.000 HD 
BRANCH  10  12
HETATM   12  C   UNL     1     -12.202  12.867  70.908  1.00  0.00    -0.198 C  
BRANCH  12  13
HETATM   13  C   UNL     1     -12.620  11.406  71.144  1.00  0.00    -0.490 C  
BRANCH  13  14
HETATM   14  C   UNL     1     -11.637  10.373  70.622  1.00  0.00    -0.440 A  
HETATM   15  C   UNL     1     -11.267  10.326  69.270  1.00  0.00    -0.281 A  
HETATM   16  C   UNL     1     -10.398   9.343  68.794  1.00  0.00    -0.230 A  
HETATM   17  C   UNL     1      -9.833   8.426  69.678  1.00  0.00    -0.184 A  
HETATM   18  C   UNL     1     -10.148   8.482  71.039  1.00  0.00    -0.257 A  
HETATM   19  C   UNL     1     -11.039   9.456  71.506  1.00  0.00    -0.446 A  
BRANCH  17  20
HETATM   20  S   UNL     1      -8.837   7.102  69.034  1.00  0.00    -0.130 S  
HETATM   21  O   UNL     1      -8.264   6.363  70.137  1.00  0.00    -0.124 OA 
HETATM   22  O   UNL     1      -7.979   7.668  68.011  1.00  0.00    -0.118 OA 
BRANCH  20  23
HETATM   23  N   UNL     1      -9.906   6.135  68.201  1.00  0.00    -0.127 N  
HETATM   24  H   UNL     1     -10.734   5.805  68.699  1.00  0.00     0.000 HD 
BRANCH  23  25
HETATM   25  C   UNL     1      -9.753   5.748  66.882  1.00  0.00    -0.148 C  
HETATM   26  O   UNL     1     -10.146   6.413  65.938  1.00  0.00     0.229 OA 
BRANCH  25  27
HETATM   27  N   UNL     1      -9.097   4.557  66.739  1.00  0.00    -0.118 N  
HETATM   28  H   UNL     1      -9.221   3.826  67.439  1.00  0.00     0.000 HD 
BRANCH  27  29
HETATM   29  C   UNL     1      -8.220   4.322  65.596  1.00  0.00    -0.109 C  
HETATM   30  C   UNL     1      -7.818   5.637  64.919  1.00  0.00    -0.110 C  
HETATM   31  C   UNL     1      -6.775   6.424  65.710  1.00  0.00    -0.048 C  
HETATM   32  C   UNL     1      -5.560   5.568  66.050  1.00  0.00    -0.013 C  
HETATM   33  C   UNL     1      -5.959   4.289  66.777  1.00  0.00    -0.024 C  
HETATM   34  C   UNL     1      -6.991   3.489  65.983  1.00  0.00    -0.062 C  
ENDBRANCH  27  29
ENDBRANCH  25  27
ENDBRANCH  23  25
ENDBRANCH  20  23
ENDBRANCH  17  20
ENDBRANCH  13  14
ENDBRANCH  12  13
ENDBRANCH  10  12
ENDBRANCH   5   8
TORSDOF 9
ENDMDL
MODEL      337
REMARK 921   NORMALIZED FREE ENERGY PREDICTED BY IDOCK:   -1.38 KCAL/MOL
REMARK 922        TOTAL FREE ENERGY PREDICTED BY IDOCK:   -3.60 KCAL/MOL
REMARK 923 INTER-LIGAND FREE ENERGY PREDICTED BY IDOCK:   -3.80 KCAL/MOL
REMARK 924 INTRA-LIGAND FREE ENERGY PREDICTED BY IDOCK:    0.20 KCAL/MOL
REMARK 927      BINDING AFFINITY PREDICTED BY RF-SCORE:    0.00 PKD
ROOT
HETATM    1  C   UNL     1     -13.643  16.656  72.687  1.00  0.00     1.459 C  
HETATM    2  C   UNL     1     -13.283  15.258  72.297  1.00  0.00    -0.398 A  
HETATM    3  N   UNL     1     -12.546  15.089  71.171  1.00  0.00    -0.319 NA 
HETATM    4  C   UNL     1     -12.269  13.804  70.831  1.00  0.00    -0.349 A  
HETATM    5  C   UNL     1     -12.705  12.727  71.587  1.00  0.00    -0.188 A  
HETATM    6  C   UNL     1     -13.704  14.167  73.059  1.00  0.00     0.126 A  
HETATM    7  N   UNL     1     -13.432  12.878  72.731  1.00  0.00    -0.422 NA 
ENDROOT
BRANCH   5   8
HETATM    8  C   UNL     1     -12.408  11.343  71.123  1.00  0.00    -0.299 C  
HETATM    9  O   UNL     1     -12.714  10.372  71.807  1.00  0.00    -0.416 OA 
HETATM   10  N   UNL     1     -11.760  11.247  69.906  1.00  0.00    -0.322 N  
HETATM   11  H   UNL     1     -11.610  12.090  69.353  1.00  0.00     0.000 HD 
BRANCH  10  12
HETATM   12  C   UNL     1     -11.289   9.973  69.397  1.00  0.00    -0.141 C  
BRANCH  12  13
HETATM   13  C   UNL     1     -10.526  10.102  68.069  1.00  0.00    -0.249 C  
BRANCH  13  14
HETATM   14  C   UNL     1     -10.534  11.495  67.466  1.00  0.00    -0.229 A  
HETATM   15  C   UNL     1     -10.631  11.697  66.081  1.00  0.00    -0.306 A  
HETATM   16  C   UNL     1     -10.591  12.981  65.535  1.00  0.00    -0.297 A  
HETATM   17  C   UNL     1     -10.515  14.092  66.373  1.00  0.00    -0.284 A  
HETATM   18  C   UNL     1     -10.468  13.919  67.760  1.00  0.00    -0.243 A  
HETATM   19  C   UNL     1     -10.484  12.627  68.299  1.00  0.00    -0.249 A  
BRANCH  17  20
HETATM   20  S   UNL     1     -10.330  15.708  65.656  1.00  0.00    -0.409 S  
HETATM   21  O   UNL     1     -11.637  16.311  65.508  1.00  0.00     0.322 OA 
HETATM   22  O   UNL     1      -9.456  15.570  64.507  1.00  0.00     0.740 OA 
BRANCH  20  23
HETATM   23  N   UNL     1      -9.436  16.564  66.769  1.00  0.00    -0.238 N  
HETATM   24  H   UNL     1      -9.917  16.907  67.600  1.00  0.00     0.000 HD 
BRANCH  23  25
HETATM   25  C   UNL     1      -8.087  16.842  66.646  1.00  0.00    -0.265 C  
HETATM   26  O   UNL     1      -7.569  17.202  65.601  1.00  0.00    -0.281 OA 
BRANCH  25  27
HETATM   27  N   UNL     1      -7.393  16.696  67.815  1.00  0.00    -0.144 N  
HETATM   28  H   UNL     1      -7.808  17.014  68.690  1.00  0.00     0.000 HD 
BRANCH  27  29
HETATM   29  C   UNL     1      -6.066  16.089  67.823  1.00  0.00    -0.141 C  
HETATM   30  C   UNL     1      -5.386  16.247  69.188  1.00  0.00    -0.112 C  
HETATM   31  C   UNL     1      -5.954  15.311  70.253  1.00  0.00    -0.130 C  
HETATM   32  C   UNL     1      -5.953  13.859  69.786  1.00  0.00    -0.124 C  
HETATM   33  C   UNL     1      -6.683  13.696  68.457  1.00  0.00    -0.095 C  
HETATM   34  C   UNL     1      -6.109  14.619  67.383  1.00  0.00     0.197 C  
ENDBRANCH  27  29
ENDBRANCH  25  27
ENDBRANCH  23  25
ENDBRANCH  20  23
ENDBRANCH  17  20
ENDBRANCH  13  14
ENDBRANCH  12  13
ENDBRANCH  10  12
ENDBRANCH   5   8
TORSDOF 9
ENDMDL
MODEL      338
REMARK 921   NORMALIZED FREE ENERGY PREDICTED BY IDOCK:   -1.37 KCAL/MOL
REMARK 922        TOTAL FREE ENERGY PREDICTED BY IDOCK:   -3.58 KCAL/MOL
REMARK 923 INTER-LIGAND FREE ENERGY PREDICTED BY IDOCK:   -3.59 KCAL/MOL
REMARK 924 INTRA-LIGAND FREE ENERGY PREDICTED BY IDOCK:    0.01 KCAL/MOL
REMARK 927      BINDING AFFINITY PREDICTED BY RF-SCORE:    0.00 PKD
ROOT
HETATM    1  C   UNL     1      -7.347  20.427  71.173  1.00  0.00     1.300 C  
HETATM    2  C   UNL     1      -6.978  19.330  70.225  1.00  0.00     0.431 A  
HETATM    3  N   UNL     1      -7.732  19.185  69.107  1.00  0.00    -0.271 NA 
HETATM    4  C   UNL     1      -7.387  18.158  68.290  1.00  0.00    -0.261 A  
HETATM    5  C   UNL     1      -6.327  17.309  68.570  1.00  0.00    -0.163 A  
HETATM    6  C   UNL     1      -5.903  18.481  70.491  1.00  0.00    -0.065 A  
HETATM    7  N   UNL     1      -5.547  17.451  69.680  1.00  0.00    -0.200 NA 
ENDROOT
BRANCH   5   8
HETATM    8  C   UNL     1      -6.041  16.171  67.654  1.00  0.00    -0.151 C  
HETATM    9  O   UNL     1      -5.699  16.370  66.493  1.00  0.00    -0.272 OA 
HETATM   10  N   UNL     1      -6.211  14.911  68.194  1.00  0.00    -0.125 N  
HETATM   11  H   UNL     1      -6.418  14.819  69.188  1.00  0.00     0.000 HD 
BRANCH  10  12
HETATM   12  C   UNL     1      -6.100  13.716  67.380  1.00  0.00     0.150 C  
BRANCH  12  13
HETATM   13  C   UNL     1      -5.181  12.650  67.999  1.00  0.00    -0.082 C  
BRANCH  13  14
HETATM   14  C   UNL     1      -5.896  11.603  68.833  1.00  0.00    -0.048 A  
HETATM   15  C   UNL     1      -6.970  10.861  68.320  1.00  0.00    -0.069 A  
HETATM   16  C   UNL     1      -7.650   9.934  69.113  1.00  0.00    -0.090 A  
HETATM   17  C   UNL     1      -7.224   9.688  70.416  1.00  0.00    -0.142 A  
HETATM   18  C   UNL     1      -6.125  10.380  70.935  1.00  0.00    -0.005 A  
HETATM   19  C   UNL     1      -5.463  11.326  70.143  1.00  0.00    -0.097 A  
BRANCH  17  20
HETATM   20  S   UNL     1      -8.182   8.605  71.451  1.00  0.00    -0.155 S  
HETATM   21  O   UNL     1      -8.182   9.121  72.802  1.00  0.00    -0.062 OA 
HETATM   22  O   UNL     1      -7.734   7.251  71.187  1.00  0.00    -0.089 OA 
BRANCH  20  23
HETATM   23  N   UNL     1      -9.722   8.673  70.821  1.00  0.00    -0.182 N  
HETATM   24  H   UNL     1      -9.829   8.534  69.816  1.00  0.00     0.000 HD 
BRANCH  23  25
HETATM   25  C   UNL     1     -10.865   8.904  71.563  1.00  0.00    -0.326 C  
HETATM   26  O   UNL     1     -11.575   9.884  71.412  1.00  0.00    -0.374 OA 
BRANCH  25  27
HETATM   27  N   UNL     1     -11.134   7.916  72.469  1.00  0.00    -0.333 N  
HETATM   28  H   UNL     1     -10.811   8.012  73.431  1.00  0.00     0.000 HD 
BRANCH  27  29
HETATM   29  C   UNL     1     -11.879   6.724  72.073  1.00  0.00    -0.314 C  
HETATM   30  C   UNL     1     -11.845   6.522  70.554  1.00  0.00    -0.393 C  
HETATM   31  C   UNL     1     -10.502   5.999  70.047  1.00  0.00    -0.313 C  
HETATM   32  C   UNL     1     -10.068   4.743  70.795  1.00  0.00    -0.286 C  
HETATM   33  C   UNL     1     -10.044   4.966  72.303  1.00  0.00    -0.247 C  
HETATM   34  C   UNL     1     -11.390   5.474  72.817  1.00  0.00    -0.359 C  
ENDBRANCH  27  29
ENDBRANCH  25  27
ENDBRANCH  23  25
ENDBRANCH  20  23
ENDBRANCH  17  20
ENDBRANCH  13  14
ENDBRANCH  12  13
ENDBRANCH  10  12
ENDBRANCH   5   8
TORSDOF 9
ENDMDL
MODEL      339
REMARK 921   NORMALIZED FREE ENERGY PREDICTED BY IDOCK:   -0.87 KCAL/MOL
REMARK 922        TOTAL FREE ENERGY PREDICTED BY IDOCK:   -2.82 KCAL/MOL
REMARK 923 INTER-LIGAND FREE ENERGY PREDICTED BY IDOCK:   -2.59 KCAL/MOL
REMARK 924 INTRA-LIGAND FREE ENERGY PREDICTED BY IDOCK:   -0.22 KCAL/MOL
REMARK 927      BINDING AFFINITY PREDICTED BY RF-SCORE:    0.00 PKD
ROOT
HETATM    1  C   UNL     1      -9.854  21.027  68.764  1.00  0.00     0.902 C  
HETATM    2  C   UNL     1     -10.053  19.616  68.308  1.00  0.00    -0.449 A  
HETATM    3  N   UNL     1      -9.093  18.711  68.626  1.00  0.00    -0.328 NA 
HETATM    4  C   UNL     1      -9.293  17.451  68.165  1.00  0.00    -0.277 A  
HETATM    5  C   UNL     1     -10.409  17.100  67.420  1.00  0.00    -0.333 A  
HETATM    6  C   UNL     1     -11.180  19.250  67.571  1.00  0.00     0.081 A  
HETATM    7  N   UNL     1     -11.392  17.992  67.106  1.00  0.00     0.477 NA 
ENDROOT
BRANCH   5   8
HETATM    8  C   UNL     1     -10.533  15.709  66.903  1.00  0.00    -0.307 C  
HETATM    9  O   UNL     1     -11.554  15.340  66.333  1.00  0.00    -0.172 OA 
HETATM   10  N   UNL     1      -9.446  14.887  67.132  1.00  0.00    -0.218 N  
HETATM   11  H   UNL     1      -8.599  15.283  67.539  1.00  0.00     0.000 HD 
BRANCH  10  12
HETATM   12  C   UNL     1      -9.482  13.475  66.805  1.00  0.00    -0.269 C  
BRANCH  12  13
HETATM   13  C   UNL     1      -8.138  12.768  67.044  1.00  0.00    -0.072 C  
BRANCH  13  14
HETATM   14  C   UNL     1      -8.182  11.258  66.897  1.00  0.00    -0.153 A  
HETATM   15  C   UNL     1      -8.880  10.449  67.807  1.00  0.00    -0.128 A  
HETATM   16  C   UNL     1      -8.874   9.058  67.687  1.00  0.00    -0.127 A  
HETATM   17  C   UNL     1      -8.219   8.455  66.616  1.00  0.00    -0.105 A  
HETATM   18  C   UNL     1      -7.557   9.242  65.669  1.00  0.00    -0.094 A  
HETATM   19  C   UNL     1      -7.546  10.634  65.808  1.00  0.00    -0.120 A  
BRANCH  17  20
HETATM   20  S   UNL     1      -8.109   6.681  66.556  1.00  0.00    -0.114 S  
HETATM   21  O   UNL     1      -9.353   6.149  66.045  1.00  0.00    -0.145 OA 
HETATM   22  O   UNL     1      -7.598   6.238  67.839  1.00  0.00    -0.097 OA 
BRANCH  20  23
HETATM   23  N   UNL     1      -6.878   6.371  65.479  1.00  0.00    -0.047 N  
HETATM   24  H   UNL     1      -6.670   7.083  64.779  1.00  0.00     0.000 HD 
BRANCH  23  25
HETATM   25  C   UNL     1      -6.117   5.216  65.467  1.00  0.00    -0.033 C  
HETATM   26  O   UNL     1      -5.474   4.848  64.498  1.00  0.00    -0.013 OA 
BRANCH  25  27
HETATM   27  N   UNL     1      -6.140   4.538  66.654  1.00  0.00    -0.030 N  
HETATM   28  H   UNL     1      -6.065   5.054  67.530  1.00  0.00     0.000 HD 
BRANCH  27  29
HETATM   29  C   UNL     1      -6.270   3.085  66.680  1.00  0.00    -0.025 C  
HETATM   30  C   UNL     1      -7.009   2.611  67.936  1.00  0.00    -0.048 C  
HETATM   31  C   UNL     1      -8.514   2.866  67.879  1.00  0.00    -0.103 C  
HETATM   32  C   UNL     1      -9.135   2.295  66.608  1.00  0.00    -0.092 C  
HETATM   33  C   UNL     1      -8.435   2.815  65.358  1.00  0.00    -0.099 C  
HETATM   34  C   UNL     1      -6.931   2.549  65.403  1.00  0.00    -0.052 C  
ENDBRANCH  27  29
ENDBRANCH  25  27
ENDBRANCH  23  25
ENDBRANCH  20  23
ENDBRANCH  17  20
ENDBRANCH  13  14
ENDBRANCH  12  13
ENDBRANCH  10  12
ENDBRANCH   5   8
TORSDOF 9
ENDMDL
MODEL      340
REMARK 921   NORMALIZED FREE ENERGY PREDICTED BY IDOCK:   -0.77 KCAL/MOL
REMARK 922        TOTAL FREE ENERGY PREDICTED BY IDOCK:   -2.67 KCAL/MOL
REMARK 923 INTER-LIGAND FREE ENERGY PREDICTED BY IDOCK:   -2.34 KCAL/MOL
REMARK 924 INTRA-LIGAND FREE ENERGY PREDICTED BY IDOCK:   -0.33 KCAL/MOL
REMARK 927      BINDING AFFINITY PREDICTED BY RF-SCORE:    0.00 PKD
ROOT
HETATM    1  C   UNL     1     -11.995  11.672  66.722  1.00  0.00     0.273 C  
HETATM    2  C   UNL     1     -11.228  10.742  67.607  1.00  0.00    -0.299 A  
HETATM    3  N   UNL     1     -10.361   9.884  67.015  1.00  0.00    -0.235 NA 
HETATM    4  C   UNL     1      -9.710   9.032  67.848  1.00  0.00    -0.155 A  
HETATM    5  C   UNL     1      -9.910   9.037  69.220  1.00  0.00    -0.179 A  
HETATM    6  C   UNL     1     -11.412  10.750  68.990  1.00  0.00    -0.298 A  
HETATM    7  N   UNL     1     -10.765   9.905  69.834  1.00  0.00    -0.259 NA 
ENDROOT
BRANCH   5   8
HETATM    8  C   UNL     1      -9.200   8.037  70.064  1.00  0.00    -0.156 C  
HETATM    9  O   UNL     1      -9.570   7.807  71.210  1.00  0.00    -0.156 OA 
HETATM   10  N   UNL     1      -8.109   7.425  69.477  1.00  0.00    -0.127 N  
HETATM   11  H   UNL     1      -7.907   7.604  68.493  1.00  0.00     0.000 HD 
BRANCH  10  12
HETATM   12  C   UNL     1      -7.246   6.534  70.226  1.00  0.00    -0.080 C  
BRANCH  12  13
HETATM   13  C   UNL     1      -6.069   7.261  70.898  1.00  0.00    -0.035 C  
BRANCH  13  14
HETATM   14  C   UNL     1      -5.967   8.740  70.569  1.00  0.00    -0.032 A  
HETATM   15  C   UNL     1      -5.966   9.719  71.574  1.00  0.00     0.047 A  
HETATM   16  C   UNL     1      -5.918  11.077  71.257  1.00  0.00     0.385 A  
HETATM   17  C   UNL     1      -5.808  11.478  69.927  1.00  0.00    -0.121 A  
HETATM   18  C   UNL     1      -5.757  10.520  68.910  1.00  0.00    -0.040 A  
HETATM   19  C   UNL     1      -5.830   9.160  69.234  1.00  0.00    -0.035 A  
BRANCH  17  20
HETATM   20  S   UNL     1      -5.883  13.211  69.536  1.00  0.00    -0.109 S  
HETATM   21  O   UNL     1      -5.309  13.424  68.225  1.00  0.00    -0.080 OA 
HETATM   22  O   UNL     1      -5.370  13.934  70.683  1.00  0.00    -0.104 OA 
BRANCH  20  23
HETATM   23  N   UNL     1      -7.510  13.565  69.505  1.00  0.00    -0.254 N  
HETATM   24  H   UNL     1      -8.163  12.814  69.728  1.00  0.00     0.000 HD 
BRANCH  23  25
HETATM   25  C   UNL     1      -8.037  14.806  69.197  1.00  0.00    -0.119 C  
HETATM   26  O   UNL     1      -7.814  15.811  69.852  1.00  0.00    -0.024 OA 
BRANCH  25  27
HETATM   27  N   UNL     1      -8.817  14.801  68.074  1.00  0.00    -0.165 N  
HETATM   28  H   UNL     1      -9.832  14.769  68.165  1.00  0.00     0.000 HD 
BRANCH  27  29
HETATM   29  C   UNL     1      -8.211  14.843  66.746  1.00  0.00    -0.051 C  
HETATM   30  C   UNL     1      -9.180  15.418  65.707  1.00  0.00    -0.172 C  
HETATM   31  C   UNL     1      -9.344  16.933  65.812  1.00  0.00     0.005 C  
HETATM   32  C   UNL     1      -7.998  17.649  65.788  1.00  0.00     0.102 C  
HETATM   33  C   UNL     1      -7.057  17.115  66.863  1.00  0.00    -0.244 C  
HETATM   34  C   UNL     1      -6.878  15.602  66.752  1.00  0.00     0.380 C  
ENDBRANCH  27  29
ENDBRANCH  25  27
ENDBRANCH  23  25
ENDBRANCH  20  23
ENDBRANCH  17  20
ENDBRANCH  13  14
ENDBRANCH  12  13
ENDBRANCH  10  12
ENDBRANCH   5   8
TORSDOF 9
ENDMDL
MODEL      341
REMARK 921   NORMALIZED FREE ENERGY PREDICTED BY IDOCK:   -0.41 KCAL/MOL
REMARK 922        TOTAL FREE ENERGY PREDICTED BY IDOCK:   -2.12 KCAL/MOL
REMARK 923 INTER-LIGAND FREE ENERGY PREDICTED BY IDOCK:   -2.24 KCAL/MOL
REMARK 924 INTRA-LIGAND FREE ENERGY PREDICTED BY IDOCK:    0.12 KCAL/MOL
REMARK 927      BINDING AFFINITY PREDICTED BY RF-SCORE:    0.00 PKD
ROOT
HETATM    1  C   UNL     1      -7.874  11.181  63.563  1.00  0.00     0.641 C  
HETATM    2  C   UNL     1      -8.058  10.931  65.026  1.00  0.00     0.130 A  
HETATM    3  N   UNL     1      -6.946  10.705  65.770  1.00  0.00    -0.122 NA 
HETATM    4  C   UNL     1      -7.157  10.448  67.086  1.00  0.00    -0.090 A  
HETATM    5  C   UNL     1      -8.426  10.422  67.644  1.00  0.00    -0.114 A  
HETATM    6  C   UNL     1      -9.330  10.918  65.600  1.00  0.00    -0.207 A  
HETATM    7  N   UNL     1      -9.553  10.665  66.915  1.00  0.00    -0.168 NA 
ENDROOT
BRANCH   5   8
HETATM    8  C   UNL     1      -8.582  10.081  69.085  1.00  0.00    -0.158 C  
HETATM    9  O   UNL     1      -7.940  10.674  69.944  1.00  0.00    -0.026 OA 
HETATM   10  N   UNL     1      -9.467   9.056  69.363  1.00  0.00    -0.156 N  
HETATM   11  H   UNL     1     -10.027   8.663  68.608  1.00  0.00     0.000 HD 
BRANCH  10  12
HETATM   12  C   UNL     1      -9.616   8.528  70.705  1.00  0.00    -0.180 C  
BRANCH  12  13
HETATM   13  C   UNL     1     -10.411   7.213  70.749  1.00  0.00    -0.227 C  
BRANCH  13  14
HETATM   14  C   UNL     1      -9.718   6.032  70.095  1.00  0.00    -0.204 A  
HETATM   15  C   UNL     1     -10.379   4.811  69.893  1.00  0.00    -0.121 A  
HETATM   16  C   UNL     1      -9.716   3.717  69.332  1.00  0.00    -0.131 A  
HETATM   17  C   UNL     1      -8.396   3.846  68.907  1.00  0.00    -0.073 A  
HETATM   18  C   UNL     1      -7.731   5.067  69.053  1.00  0.00    -0.080 A  
HETATM   19  C   UNL     1      -8.394   6.153  69.637  1.00  0.00    -0.124 A  
BRANCH  17  20
HETATM   20  S   UNL     1      -7.530   2.408  68.320  1.00  0.00    -0.047 S  
HETATM   21  O   UNL     1      -8.485   1.478  67.760  1.00  0.00    -0.064 OA 
HETATM   22  O   UNL     1      -6.634   1.985  69.380  1.00  0.00    -0.029 OA 
BRANCH  20  23
HETATM   23  N   UNL     1      -6.527   2.980  67.121  1.00  0.00    -0.036 N  
HETATM   24  H   UNL     1      -5.629   2.514  66.992  1.00  0.00     0.000 HD 
BRANCH  23  25
HETATM   25  C   UNL     1      -6.827   4.042  66.286  1.00  0.00    -0.058 C  
HETATM   26  O   UNL     1      -5.985   4.812  65.854  1.00  0.00    -0.022 OA 
BRANCH  25  27
HETATM   27  N   UNL     1      -8.155   4.131  65.977  1.00  0.00    -0.098 N  
HETATM   28  H   UNL     1      -8.853   4.001  66.708  1.00  0.00     0.000 HD 
BRANCH  27  29
HETATM   29  C   UNL     1      -8.584   4.411  64.610  1.00  0.00    -0.134 C  
HETATM   30  C   UNL     1      -7.659   3.747  63.585  1.00  0.00    -0.059 C  
HETATM   31  C   UNL     1      -7.872   2.239  63.472  1.00  0.00    -0.068 C  
HETATM   32  C   UNL     1      -9.335   1.893  63.220  1.00  0.00    -0.093 C  
HETATM   33  C   UNL     1     -10.248   2.506  64.276  1.00  0.00     0.073 C  
HETATM   34  C   UNL     1     -10.050   4.017  64.382  1.00  0.00    -0.199 C  
ENDBRANCH  27  29
ENDBRANCH  25  27
ENDBRANCH  23  25
ENDBRANCH  20  23
ENDBRANCH  17  20
ENDBRANCH  13  14
ENDBRANCH  12  13
ENDBRANCH  10  12
ENDBRANCH   5   8
TORSDOF 9
ENDMDL
MODEL      342
REMARK 921   NORMALIZED FREE ENERGY PREDICTED BY IDOCK:    0.00 KCAL/MOL
REMARK 922        TOTAL FREE ENERGY PREDICTED BY IDOCK:   -1.49 KCAL/MOL
REMARK 923 INTER-LIGAND FREE ENERGY PREDICTED BY IDOCK:   -3.72 KCAL/MOL
REMARK 924 INTRA-LIGAND FREE ENERGY PREDICTED BY IDOCK:    2.23 KCAL/MOL
REMARK 927      BINDING AFFINITY PREDICTED BY RF-SCORE:    0.00 PKD
ROOT
HETATM    1  C   UNL     1      -7.753   7.093  74.566  1.00  0.00    -0.150 C  
HETATM    2  C   UNL     1      -7.784   7.829  73.264  1.00  0.00    -0.124 A  
HETATM    3  N   UNL     1      -6.629   8.398  72.836  1.00  0.00    -0.098 NA 
HETATM    4  C   UNL     1      -6.706   9.087  71.669  1.00  0.00    -0.022 A  
HETATM    5  C   UNL     1      -7.886   9.200  70.950  1.00  0.00    -0.132 A  
HETATM    6  C   UNL     1      -8.963   7.937  72.526  1.00  0.00    -0.174 A  
HETATM    7  N   UNL     1      -9.052   8.620  71.356  1.00  0.00    -0.207 NA 
ENDROOT
BRANCH   5   8
HETATM    8  C   UNL     1      -7.905  10.017  69.705  1.00  0.00    -0.167 C  
HETATM    9  O   UNL     1      -7.024  10.838  69.479  1.00  0.00    -0.101 OA 
HETATM   10  N   UNL     1      -8.978   9.796  68.862  1.00  0.00    -0.138 N  
HETATM   11  H   UNL     1      -9.629   9.040  69.072  1.00  0.00     0.000 HD 
BRANCH  10  12
HETATM   12  C   UNL     1      -9.197  10.612  67.684  1.00  0.00    -0.146 C  
BRANCH  12  13
HETATM   13  C   UNL     1      -7.925  11.336  67.209  1.00  0.00    -0.141 C  
BRANCH  13  14
HETATM   14  C   UNL     1      -8.020  12.851  67.213  1.00  0.00    -0.151 A  
HETATM   15  C   UNL     1      -8.933  13.534  66.396  1.00  0.00     0.011 A  
HETATM   16  C   UNL     1      -8.978  14.929  66.375  1.00  0.00    -0.254 A  
HETATM   17  C   UNL     1      -8.150  15.665  67.220  1.00  0.00    -0.195 A  
HETATM   18  C   UNL     1      -7.266  15.007  68.079  1.00  0.00    -0.140 A  
HETATM   19  C   UNL     1      -7.209  13.608  68.078  1.00  0.00    -0.130 A  
BRANCH  17  20
HETATM   20  S   UNL     1      -8.127  17.438  67.081  1.00  0.00    -0.217 S  
HETATM   21  O   UNL     1      -7.731  17.801  65.739  1.00  0.00    -0.541 OA 
HETATM   22  O   UNL     1      -7.391  17.948  68.222  1.00  0.00    -0.231 OA 
BRANCH  20  23
HETATM   23  N   UNL     1      -9.703  17.902  67.351  1.00  0.00    -0.281 N  
HETATM   24  H   UNL     1      -9.893  18.900  67.448  1.00  0.00     0.000 HD 
BRANCH  23  25
HETATM   25  C   UNL     1     -10.772  17.031  67.454  1.00  0.00    -0.240 C  
HETATM   26  O   UNL     1     -11.480  16.725  66.509  1.00  0.00     0.556 OA 
BRANCH  25  27
HETATM   27  N   UNL     1     -10.945  16.530  68.714  1.00  0.00    -0.333 N  
HETATM   28  H   UNL     1     -10.230  16.692  69.424  1.00  0.00     0.000 HD 
BRANCH  27  29
HETATM   29  C   UNL     1     -12.141  15.765  69.055  1.00  0.00    -0.171 C  
HETATM   30  C   UNL     1     -12.719  15.053  67.827  1.00  0.00     1.321 C  
HETATM   31  C   UNL     1     -11.908  13.829  67.407  1.00  0.00    -0.431 C  
HETATM   32  C   UNL     1     -11.694  12.866  68.570  1.00  0.00    -0.374 C  
HETATM   33  C   UNL     1     -11.063  13.565  69.769  1.00  0.00     0.037 C  
HETATM   34  C   UNL     1     -11.879  14.782  70.204  1.00  0.00    -0.360 C  
ENDBRANCH  27  29
ENDBRANCH  25  27
ENDBRANCH  23  25
ENDBRANCH  20  23
ENDBRANCH  17  20
ENDBRANCH  13  14
ENDBRANCH  12  13
ENDBRANCH  10  12
ENDBRANCH   5   8
TORSDOF 9
ENDMDL
MODEL      343
REMARK 921   NORMALIZED FREE ENERGY PREDICTED BY IDOCK:    0.42 KCAL/MOL
REMARK 922        TOTAL FREE ENERGY PREDICTED BY IDOCK:   -0.85 KCAL/MOL
REMARK 923 INTER-LIGAND FREE ENERGY PREDICTED BY IDOCK:   -1.98 KCAL/MOL
REMARK 924 INTRA-LIGAND FREE ENERGY PREDICTED BY IDOCK:    1.13 KCAL/MOL
REMARK 927      BINDING AFFINITY PREDICTED BY RF-SCORE:    0.00 PKD
ROOT
HETATM    1  C   UNL     1      -7.133  11.288  64.225  1.00  0.00     1.464 C  
HETATM    2  C   UNL     1      -7.271  11.065  65.698  1.00  0.00     0.154 A  
HETATM    3  N   UNL     1      -6.144  10.789  66.400  1.00  0.00    -0.105 NA 
HETATM    4  C   UNL     1      -6.315  10.558  67.726  1.00  0.00    -0.059 A  
HETATM    5  C   UNL     1      -7.561  10.606  68.334  1.00  0.00    -0.100 A  
HETATM    6  C   UNL     1      -8.518  11.125  66.320  1.00  0.00    -0.168 A  
HETATM    7  N   UNL     1      -8.702  10.899  67.646  1.00  0.00    -0.126 NA 
ENDROOT
BRANCH   5   8
HETATM    8  C   UNL     1      -7.678  10.289  69.784  1.00  0.00    -0.151 C  
HETATM    9  O   UNL     1      -6.900  10.775  70.598  1.00  0.00    -0.257 OA 
HETATM   10  N   UNL     1      -8.690   9.411  70.125  1.00  0.00    -0.202 N  
HETATM   11  H   UNL     1      -9.350   9.110  69.409  1.00  0.00     0.000 HD 
BRANCH  10  12
HETATM   12  C   UNL     1      -8.834   8.910  71.477  1.00  0.00    -0.183 C  
BRANCH  12  13
HETATM   13  C   UNL     1      -9.914   7.823  71.603  1.00  0.00    -0.213 C  
BRANCH  13  14
HETATM   14  C   UNL     1      -9.491   6.449  71.114  1.00  0.00    -0.177 A  
HETATM   15  C   UNL     1     -10.364   5.352  71.154  1.00  0.00    -0.304 A  
HETATM   16  C   UNL     1      -9.948   4.084  70.744  1.00  0.00    -0.158 A  
HETATM   17  C   UNL     1      -8.666   3.905  70.228  1.00  0.00    -0.075 A  
HETATM   18  C   UNL     1      -7.793   4.993  70.132  1.00  0.00    -0.067 A  
HETATM   19  C   UNL     1      -8.209   6.257  70.568  1.00  0.00    -0.118 A  
BRANCH  17  20
HETATM   20  S   UNL     1      -8.111   2.262  69.838  1.00  0.00    -0.041 S  
HETATM   21  O   UNL     1      -9.207   1.520  69.256  1.00  0.00    -0.092 OA 
HETATM   22  O   UNL     1      -7.424   1.752  71.009  1.00  0.00    -0.033 OA 
BRANCH  20  23
HETATM   23  N   UNL     1      -6.911   2.480  68.705  1.00  0.00    -0.039 N  
HETATM   24  H   UNL     1      -6.308   1.685  68.493  1.00  0.00     0.000 HD 
BRANCH  23  25
HETATM   25  C   UNL     1      -6.673   3.664  68.030  1.00  0.00    -0.046 C  
HETATM   26  O   UNL     1      -5.554   4.083  67.786  1.00  0.00    -0.019 OA 
BRANCH  25  27
HETATM   27  N   UNL     1      -7.815   4.309  67.645  1.00  0.00    -0.087 N  
HETATM   28  H   UNL     1      -8.527   4.533  68.340  1.00  0.00     0.000 HD 
BRANCH  27  29
HETATM   29  C   UNL     1      -8.028   4.679  66.249  1.00  0.00    -0.103 C  
HETATM   30  C   UNL     1      -9.490   5.053  65.985  1.00  0.00    -0.169 C  
HETATM   31  C   UNL     1      -9.867   6.428  66.534  1.00  0.00    -0.170 C  
HETATM   32  C   UNL     1      -8.911   7.511  66.048  1.00  0.00    -0.179 C  
HETATM   33  C   UNL     1      -7.460   7.164  66.366  1.00  0.00    -0.087 C  
HETATM   34  C   UNL     1      -7.073   5.797  65.806  1.00  0.00    -0.070 C  
ENDBRANCH  27  29
ENDBRANCH  25  27
ENDBRANCH  23  25
ENDBRANCH  20  23
ENDBRANCH  17  20
ENDBRANCH  13  14
ENDBRANCH  12  13
ENDBRANCH  10  12
ENDBRANCH   5   8
TORSDOF 9
ENDMDL
MODEL      344
REMARK 921   NORMALIZED FREE ENERGY PREDICTED BY IDOCK:    0.52 KCAL/MOL
REMARK 922        TOTAL FREE ENERGY PREDICTED BY IDOCK:   -0.70 KCAL/MOL
REMARK 923 INTER-LIGAND FREE ENERGY PREDICTED BY IDOCK:   -0.61 KCAL/MOL
REMARK 924 INTRA-LIGAND FREE ENERGY PREDICTED BY IDOCK:   -0.09 KCAL/MOL
REMARK 927      BINDING AFFINITY PREDICTED BY RF-SCORE:    0.00 PKD
ROOT
HETATM    1  C   UNL     1      -7.454  20.512  71.277  1.00  0.00     1.715 C  
HETATM    2  C   UNL     1      -7.119  19.400  70.335  1.00  0.00     0.583 A  
HETATM    3  N   UNL     1      -7.970  19.171  69.304  1.00  0.00    -0.143 NA 
HETATM    4  C   UNL     1      -7.650  18.132  68.492  1.00  0.00    -0.289 A  
HETATM    5  C   UNL     1      -6.522  17.352  68.694  1.00  0.00    -0.191 A  
HETATM    6  C   UNL     1      -5.978  18.618  70.521  1.00  0.00     0.013 A  
HETATM    7  N   UNL     1      -5.645  17.578  69.715  1.00  0.00    -0.214 NA 
ENDROOT
BRANCH   5   8
HETATM    8  C   UNL     1      -6.264  16.195  67.793  1.00  0.00    -0.137 C  
HETATM    9  O   UNL     1      -6.077  16.363  66.593  1.00  0.00    -0.306 OA 
HETATM   10  N   UNL     1      -6.274  14.952  68.397  1.00  0.00    -0.096 N  
HETATM   11  H   UNL     1      -6.354  14.892  69.412  1.00  0.00     0.000 HD 
BRANCH  10  12
HETATM   12  C   UNL     1      -6.173  13.731  67.621  1.00  0.00    -0.107 C  
BRANCH  12  13
HETATM   13  C   UNL     1      -5.131  12.749  68.179  1.00  0.00    -0.077 C  
BRANCH  13  14
HETATM   14  C   UNL     1      -5.536  11.287  68.109  1.00  0.00    -0.042 A  
HETATM   15  C   UNL     1      -5.786  10.651  66.884  1.00  0.00    -0.057 A  
HETATM   16  C   UNL     1      -6.202   9.319  66.835  1.00  0.00    -0.065 A  
HETATM   17  C   UNL     1      -6.316   8.582  68.012  1.00  0.00    -0.056 A  
HETATM   18  C   UNL     1      -6.025   9.180  69.242  1.00  0.00    -0.038 A  
HETATM   19  C   UNL     1      -5.631  10.522  69.286  1.00  0.00    -0.037 A  
BRANCH  17  20
HETATM   20  S   UNL     1      -6.976   6.932  67.940  1.00  0.00    -0.086 S  
HETATM   21  O   UNL     1      -7.887   6.740  69.047  1.00  0.00    -0.107 OA 
HETATM   22  O   UNL     1      -5.856   6.030  67.752  1.00  0.00    -0.015 OA 
BRANCH  20  23
HETATM   23  N   UNL     1      -7.813   6.875  66.503  1.00  0.00    -0.104 N  
HETATM   24  H   UNL     1      -7.350   7.240  65.670  1.00  0.00     0.000 HD 
BRANCH  23  25
HETATM   25  C   UNL     1      -9.091   6.367  66.357  1.00  0.00    -0.154 C  
HETATM   26  O   UNL     1     -10.079   7.068  66.215  1.00  0.00    -0.031 OA 
BRANCH  25  27
HETATM   27  N   UNL     1      -9.137   5.001  66.367  1.00  0.00    -0.125 N  
HETATM   28  H   UNL     1      -9.204   4.505  67.256  1.00  0.00     0.000 HD 
BRANCH  27  29
HETATM   29  C   UNL     1      -9.091   4.244  65.120  1.00  0.00    -0.145 C  
HETATM   30  C   UNL     1      -8.599   5.112  63.956  1.00  0.00    -0.090 C  
HETATM   31  C   UNL     1      -7.094   5.372  63.995  1.00  0.00    -0.049 C  
HETATM   32  C   UNL     1      -6.300   4.076  64.108  1.00  0.00    -0.030 C  
HETATM   33  C   UNL     1      -6.751   3.242  65.302  1.00  0.00    -0.041 C  
HETATM   34  C   UNL     1      -8.253   2.966  65.260  1.00  0.00    -0.091 C  
ENDBRANCH  27  29
ENDBRANCH  25  27
ENDBRANCH  23  25
ENDBRANCH  20  23
ENDBRANCH  17  20
ENDBRANCH  13  14
ENDBRANCH  12  13
ENDBRANCH  10  12
ENDBRANCH   5   8
TORSDOF 9
ENDMDL
MODEL      345
REMARK 921   NORMALIZED FREE ENERGY PREDICTED BY IDOCK:    1.38 KCAL/MOL
REMARK 922        TOTAL FREE ENERGY PREDICTED BY IDOCK:    0.61 KCAL/MOL
REMARK 923 INTER-LIGAND FREE ENERGY PREDICTED BY IDOCK:   -1.52 KCAL/MOL
REMARK 924 INTRA-LIGAND FREE ENERGY PREDICTED BY IDOCK:    2.13 KCAL/MOL
REMARK 927      BINDING AFFINITY PREDICTED BY RF-SCORE:    0.00 PKD
ROOT
HETATM    1  C   UNL     1     -12.171  14.586  63.170  1.00  0.00     1.254 C  
HETATM    2  C   UNL     1     -11.846  14.471  64.626  1.00  0.00    -0.453 A  
HETATM    3  N   UNL     1     -11.524  13.243  65.102  1.00  0.00    -0.290 NA 
HETATM    4  C   UNL     1     -11.270  13.173  66.434  1.00  0.00    -0.300 A  
HETATM    5  C   UNL     1     -11.328  14.285  67.260  1.00  0.00    -0.334 A  
HETATM    6  C   UNL     1     -11.887  15.587  65.462  1.00  0.00     0.344 A  
HETATM    7  N   UNL     1     -11.632  15.531  66.795  1.00  0.00     0.018 NA 
ENDROOT
BRANCH   5   8
HETATM    8  C   UNL     1     -11.088  14.121  68.721  1.00  0.00    -0.262 C  
HETATM    9  O   UNL     1      -9.965  14.262  69.192  1.00  0.00    -0.153 OA 
HETATM   10  N   UNL     1     -12.197  13.787  69.475  1.00  0.00    -0.325 N  
HETATM   11  H   UNL     1     -13.114  13.767  69.030  1.00  0.00     0.000 HD 
BRANCH  10  12
HETATM   12  C   UNL     1     -12.085  13.465  70.884  1.00  0.00    -0.183 C  
BRANCH  12  13
HETATM   13  C   UNL     1     -12.299  11.970  71.177  1.00  0.00    -0.282 C  
BRANCH  13  14
HETATM   14  C   UNL     1     -11.653  11.029  70.176  1.00  0.00    -0.421 A  
HETATM   15  C   UNL     1     -10.263  10.991  69.993  1.00  0.00     0.536 A  
HETATM   16  C   UNL     1      -9.685  10.154  69.036  1.00  0.00    -0.212 A  
HETATM   17  C   UNL     1     -10.486   9.294  68.288  1.00  0.00    -0.215 A  
HETATM   18  C   UNL     1     -11.870   9.278  68.487  1.00  0.00     1.513 A  
HETATM   19  C   UNL     1     -12.446  10.137  69.431  1.00  0.00     0.535 A  
BRANCH  17  20
HETATM   20  S   UNL     1      -9.748   8.336  66.985  1.00  0.00    -0.235 S  
HETATM   21  O   UNL     1     -10.471   7.091  66.848  1.00  0.00    -0.269 OA 
HETATM   22  O   UNL     1      -8.316   8.327  67.217  1.00  0.00    -0.122 OA 
BRANCH  20  23
HETATM   23  N   UNL     1      -9.950   9.261  65.616  1.00  0.00    -0.427 N  
HETATM   24  H   UNL     1     -10.876   9.649  65.438  1.00  0.00     0.000 HD 
BRANCH  23  25
HETATM   25  C   UNL     1      -8.950   9.539  64.701  1.00  0.00    -0.221 C  
HETATM   26  O   UNL     1      -8.317  10.582  64.697  1.00  0.00    -0.168 OA 
BRANCH  25  27
HETATM   27  N   UNL     1      -8.726   8.522  63.816  1.00  0.00    -0.411 N  
HETATM   28  H   UNL     1      -9.399   7.760  63.742  1.00  0.00     0.000 HD 
BRANCH  27  29
HETATM   29  C   UNL     1      -7.534   8.516  62.973  1.00  0.00    -0.107 C  
HETATM   30  C   UNL     1      -6.968   9.929  62.794  1.00  0.00    -0.119 C  
HETATM   31  C   UNL     1      -6.239  10.446  64.032  1.00  0.00    -0.061 C  
HETATM   32  C   UNL     1      -5.172   9.467  64.509  1.00  0.00    -0.054 C  
HETATM   33  C   UNL     1      -5.751   8.076  64.745  1.00  0.00    -0.044 C  
HETATM   34  C   UNL     1      -6.468   7.547  63.504  1.00  0.00    -0.054 C  
ENDBRANCH  27  29
ENDBRANCH  25  27
ENDBRANCH  23  25
ENDBRANCH  20  23
ENDBRANCH  17  20
ENDBRANCH  13  14
ENDBRANCH  12  13
ENDBRANCH  10  12
ENDBRANCH   5   8
TORSDOF 9
ENDMDL
MODEL      346
REMARK 921   NORMALIZED FREE ENERGY PREDICTED BY IDOCK:    1.45 KCAL/MOL
REMARK 922        TOTAL FREE ENERGY PREDICTED BY IDOCK:    0.72 KCAL/MOL
REMARK 923 INTER-LIGAND FREE ENERGY PREDICTED BY IDOCK:    1.90 KCAL/MOL
REMARK 924 INTRA-LIGAND FREE ENERGY PREDICTED BY IDOCK:   -1.18 KCAL/MOL
REMARK 927      BINDING AFFINITY PREDICTED BY RF-SCORE:    0.00 PKD
ROOT
HETATM    1  C   UNL     1      -9.357  20.798  72.627  1.00  0.00     3.527 C  
HETATM    2  C   UNL     1      -8.536  20.371  71.453  1.00  0.00     2.157 A  
HETATM    3  N   UNL     1      -9.190  20.083  70.299  1.00  0.00     0.915 NA 
HETATM    4  C   UNL     1      -8.413  19.666  69.267  1.00  0.00     0.078 A  
HETATM    5  C   UNL     1      -7.036  19.545  69.376  1.00  0.00    -0.294 A  
HETATM    6  C   UNL     1      -7.148  20.260  71.547  1.00  0.00     0.958 A  
HETATM    7  N   UNL     1      -6.360  19.847  70.521  1.00  0.00    -0.275 NA 
ENDROOT
BRANCH   5   8
HETATM    8  C   UNL     1      -6.256  19.030  68.216  1.00  0.00    -0.223 C  
HETATM    9  O   UNL     1      -5.241  18.365  68.389  1.00  0.00    -0.166 OA 
HETATM   10  N   UNL     1      -6.743  19.372  66.969  1.00  0.00    -0.192 N  
HETATM   11  H   UNL     1      -7.637  19.857  66.899  1.00  0.00     0.000 HD 
BRANCH  10  12
HETATM   12  C   UNL     1      -6.012  19.055  65.758  1.00  0.00    -0.187 C  
BRANCH  12  13
HETATM   13  C   UNL     1      -6.272  17.625  65.255  1.00  0.00     0.404 C  
BRANCH  13  14
HETATM   14  C   UNL     1      -7.364  16.880  66.002  1.00  0.00     0.013 A  
HETATM   15  C   UNL     1      -8.718  17.214  65.851  1.00  0.00    -0.009 A  
HETATM   16  C   UNL     1      -9.708  16.551  66.579  1.00  0.00    -0.290 A  
HETATM   17  C   UNL     1      -9.365  15.498  67.424  1.00  0.00    -0.207 A  
HETATM   18  C   UNL     1      -8.027  15.114  67.554  1.00  0.00    -0.194 A  
HETATM   19  C   UNL     1      -7.036  15.799  66.840  1.00  0.00    -0.009 A  
BRANCH  17  20
HETATM   20  S   UNL     1     -10.621  14.758  68.441  1.00  0.00    -0.249 S  
HETATM   21  O   UNL     1     -11.888  14.819  67.745  1.00  0.00    -0.351 OA 
HETATM   22  O   UNL     1     -10.490  15.327  69.769  1.00  0.00    -0.260 OA 
BRANCH  20  23
HETATM   23  N   UNL     1     -10.146  13.172  68.611  1.00  0.00    -0.381 N  
HETATM   24  H   UNL     1      -9.289  12.986  69.132  1.00  0.00     0.000 HD 
BRANCH  23  25
HETATM   25  C   UNL     1     -10.831  12.087  68.093  1.00  0.00    -0.221 C  
HETATM   26  O   UNL     1     -11.268  11.180  68.782  1.00  0.00    -0.208 OA 
BRANCH  25  27
HETATM   27  N   UNL     1     -10.989  12.141  66.737  1.00  0.00    -0.266 N  
HETATM   28  H   UNL     1     -11.904  11.954  66.328  1.00  0.00     0.000 HD 
BRANCH  27  29
HETATM   29  C   UNL     1      -9.862  12.463  65.867  1.00  0.00    -0.252 C  
HETATM   30  C   UNL     1      -9.048  11.212  65.518  1.00  0.00    -0.211 C  
HETATM   31  C   UNL     1      -9.737  10.314  64.494  1.00  0.00    -0.395 C  
HETATM   32  C   UNL     1     -10.144  11.089  63.246  1.00  0.00    -0.400 C  
HETATM   33  C   UNL     1     -11.005  12.300  63.592  1.00  0.00    -0.532 C  
HETATM   34  C   UNL     1     -10.313  13.211  64.604  1.00  0.00    -0.381 C  
ENDBRANCH  27  29
ENDBRANCH  25  27
ENDBRANCH  23  25
ENDBRANCH  20  23
ENDBRANCH  17  20
ENDBRANCH  13  14
ENDBRANCH  12  13
ENDBRANCH  10  12
ENDBRANCH   5   8
TORSDOF 9
ENDMDL
MODEL      347
REMARK 921   NORMALIZED FREE ENERGY PREDICTED BY IDOCK:    1.55 KCAL/MOL
REMARK 922        TOTAL FREE ENERGY PREDICTED BY IDOCK:    0.87 KCAL/MOL
REMARK 923 INTER-LIGAND FREE ENERGY PREDICTED BY IDOCK:    1.76 KCAL/MOL
REMARK 924 INTRA-LIGAND FREE ENERGY PREDICTED BY IDOCK:   -0.88 KCAL/MOL
REMARK 927      BINDING AFFINITY PREDICTED BY RF-SCORE:    0.00 PKD
ROOT
HETATM    1  C   UNL     1      -9.877  20.062  72.387  1.00  0.00     3.084 C  
HETATM    2  C   UNL     1      -8.976  20.105  71.194  1.00  0.00     2.154 A  
HETATM    3  N   UNL     1      -9.537  19.907  69.975  1.00  0.00     0.378 NA 
HETATM    4  C   UNL     1      -8.682  19.919  68.921  1.00  0.00     0.010 A  
HETATM    5  C   UNL     1      -7.319  20.126  69.073  1.00  0.00    -0.028 A  
HETATM    6  C   UNL     1      -7.606  20.327  71.335  1.00  0.00     1.574 A  
HETATM    7  N   UNL     1      -6.740  20.344  70.289  1.00  0.00    -0.223 NA 
ENDROOT
BRANCH   5   8
HETATM    8  C   UNL     1      -6.435  20.072  67.876  1.00  0.00    -0.239 C  
HETATM    9  O   UNL     1      -5.218  20.169  67.989  1.00  0.00    -0.184 OA 
HETATM   10  N   UNL     1      -7.081  19.931  66.662  1.00  0.00    -0.223 N  
HETATM   11  H   UNL     1      -8.088  19.775  66.649  1.00  0.00     0.000 HD 
BRANCH  10  12
HETATM   12  C   UNL     1      -6.358  20.001  65.407  1.00  0.00    -0.251 C  
BRANCH  12  13
HETATM   13  C   UNL     1      -5.723  18.660  65.004  1.00  0.00    -0.273 C  
BRANCH  13  14
HETATM   14  C   UNL     1      -6.109  17.485  65.885  1.00  0.00    -0.115 A  
HETATM   15  C   UNL     1      -7.415  16.973  65.897  1.00  0.00     0.105 A  
HETATM   16  C   UNL     1      -7.769  15.922  66.746  1.00  0.00    -0.245 A  
HETATM   17  C   UNL     1      -6.804  15.324  67.554  1.00  0.00    -0.189 A  
HETATM   18  C   UNL     1      -5.485  15.785  67.523  1.00  0.00    -0.081 A  
HETATM   19  C   UNL     1      -5.142  16.855  66.688  1.00  0.00    -0.074 A  
BRANCH  17  20
HETATM   20  S   UNL     1      -7.302  14.081  68.722  1.00  0.00    -0.118 S  
HETATM   21  O   UNL     1      -6.515  14.223  69.927  1.00  0.00    -0.140 OA 
HETATM   22  O   UNL     1      -7.332  12.814  68.016  1.00  0.00    -0.093 OA 
BRANCH  20  23
HETATM   23  N   UNL     1      -8.899  14.422  69.047  1.00  0.00    -0.369 N  
HETATM   24  H   UNL     1      -9.098  15.166  69.716  1.00  0.00     0.000 HD 
BRANCH  23  25
HETATM   25  C   UNL     1      -9.974  13.768  68.474  1.00  0.00    -0.217 C  
HETATM   26  O   UNL     1     -10.760  14.309  67.714  1.00  0.00    -0.247 OA 
BRANCH  25  27
HETATM   27  N   UNL     1     -10.058  12.450  68.826  1.00  0.00    -0.406 N  
HETATM   28  H   UNL     1      -9.247  11.983  69.231  1.00  0.00     0.000 HD 
BRANCH  27  29
HETATM   29  C   UNL     1     -11.297  11.703  68.629  1.00  0.00    -0.267 C  
HETATM   30  C   UNL     1     -11.069  10.458  67.765  1.00  0.00    -0.365 C  
HETATM   31  C   UNL     1     -10.365   9.328  68.514  1.00  0.00    -0.237 C  
HETATM   32  C   UNL     1     -11.075   8.988  69.819  1.00  0.00    -0.117 C  
HETATM   33  C   UNL     1     -11.246  10.218  70.703  1.00  0.00    -0.406 C  
HETATM   34  C   UNL     1     -11.965  11.346  69.965  1.00  0.00    -0.442 C  
ENDBRANCH  27  29
ENDBRANCH  25  27
ENDBRANCH  23  25
ENDBRANCH  20  23
ENDBRANCH  17  20
ENDBRANCH  13  14
ENDBRANCH  12  13
ENDBRANCH  10  12
ENDBRANCH   5   8
TORSDOF 9
ENDMDL
MODEL      348
REMARK 921   NORMALIZED FREE ENERGY PREDICTED BY IDOCK:    1.87 KCAL/MOL
REMARK 922        TOTAL FREE ENERGY PREDICTED BY IDOCK:    1.36 KCAL/MOL
REMARK 923 INTER-LIGAND FREE ENERGY PREDICTED BY IDOCK:    1.96 KCAL/MOL
REMARK 924 INTRA-LIGAND FREE ENERGY PREDICTED BY IDOCK:   -0.59 KCAL/MOL
REMARK 927      BINDING AFFINITY PREDICTED BY RF-SCORE:    0.00 PKD
ROOT
HETATM    1  C   UNL     1     -10.002  19.880  72.362  1.00  0.00     3.216 C  
HETATM    2  C   UNL     1      -9.062  19.951  71.200  1.00  0.00     2.358 A  
HETATM    3  N   UNL     1      -9.558  19.656  69.972  1.00  0.00     0.369 NA 
HETATM    4  C   UNL     1      -8.667  19.697  68.950  1.00  0.00    -0.186 A  
HETATM    5  C   UNL     1      -7.333  20.025  69.139  1.00  0.00    -0.102 A  
HETATM    6  C   UNL     1      -7.722  20.294  71.379  1.00  0.00     1.711 A  
HETATM    7  N   UNL     1      -6.821  20.341  70.364  1.00  0.00    -0.156 NA 
ENDROOT
BRANCH   5   8
HETATM    8  C   UNL     1      -6.403  19.997  67.977  1.00  0.00    -0.247 C  
HETATM    9  O   UNL     1      -5.189  19.946  68.145  1.00  0.00    -0.178 OA 
HETATM   10  N   UNL     1      -6.999  20.054  66.732  1.00  0.00    -0.214 N  
HETATM   11  H   UNL     1      -8.016  20.011  66.664  1.00  0.00     0.000 HD 
BRANCH  10  12
HETATM   12  C   UNL     1      -6.213  20.171  65.519  1.00  0.00    -0.225 C  
BRANCH  12  13
HETATM   13  C   UNL     1      -5.784  18.810  64.947  1.00  0.00    -0.290 C  
BRANCH  13  14
HETATM   14  C   UNL     1      -6.188  17.613  65.789  1.00  0.00    -0.134 A  
HETATM   15  C   UNL     1      -7.495  17.105  65.767  1.00  0.00     0.269 A  
HETATM   16  C   UNL     1      -7.865  16.032  66.580  1.00  0.00    -0.266 A  
HETATM   17  C   UNL     1      -6.914  15.409  67.385  1.00  0.00    -0.189 A  
HETATM   18  C   UNL     1      -5.593  15.865  67.387  1.00  0.00    -0.063 A  
HETATM   19  C   UNL     1      -5.234  16.957  66.588  1.00  0.00    -0.084 A  
BRANCH  17  20
HETATM   20  S   UNL     1      -7.434  14.134  68.511  1.00  0.00    -0.129 S  
HETATM   21  O   UNL     1      -6.420  13.962  69.529  1.00  0.00    -0.112 OA 
HETATM   22  O   UNL     1      -7.864  13.004  67.711  1.00  0.00    -0.129 OA 
BRANCH  20  23
HETATM   23  N   UNL     1      -8.831  14.723  69.199  1.00  0.00    -0.349 N  
HETATM   24  H   UNL     1      -8.746  15.502  69.853  1.00  0.00     0.000 HD 
BRANCH  23  25
HETATM   25  C   UNL     1     -10.098  14.230  68.947  1.00  0.00    -0.175 C  
HETATM   26  O   UNL     1     -11.057  14.448  69.669  1.00  0.00    -0.250 OA 
BRANCH  25  27
HETATM   27  N   UNL     1     -10.176  13.493  67.799  1.00  0.00    -0.238 N  
HETATM   28  H   UNL     1      -9.325  13.117  67.382  1.00  0.00     0.000 HD 
BRANCH  27  29
HETATM   29  C   UNL     1     -11.465  13.240  67.162  1.00  0.00    -0.341 C  
HETATM   30  C   UNL     1     -11.956  14.466  66.384  1.00  0.00    -0.402 C  
HETATM   31  C   UNL     1     -11.211  14.680  65.068  1.00  0.00    -0.388 C  
HETATM   32  C   UNL     1     -11.218  13.423  64.205  1.00  0.00    -0.379 C  
HETATM   33  C   UNL     1     -10.672  12.218  64.962  1.00  0.00    -0.336 C  
HETATM   34  C   UNL     1     -11.424  11.989  66.272  1.00  0.00    -0.408 C  
ENDBRANCH  27  29
ENDBRANCH  25  27
ENDBRANCH  23  25
ENDBRANCH  20  23
ENDBRANCH  17  20
ENDBRANCH  13  14
ENDBRANCH  12  13
ENDBRANCH  10  12
ENDBRANCH   5   8
TORSDOF 9
ENDMDL
MODEL      349
REMARK 921   NORMALIZED FREE ENERGY PREDICTED BY IDOCK:    2.26 KCAL/MOL
REMARK 922        TOTAL FREE ENERGY PREDICTED BY IDOCK:    1.95 KCAL/MOL
REMARK 923 INTER-LIGAND FREE ENERGY PREDICTED BY IDOCK:    1.24 KCAL/MOL
REMARK 924 INTRA-LIGAND FREE ENERGY PREDICTED BY IDOCK:    0.71 KCAL/MOL
REMARK 927      BINDING AFFINITY PREDICTED BY RF-SCORE:    0.00 PKD
ROOT
HETATM    1  C   UNL     1      -7.724  20.950  71.900  1.00  0.00     3.136 C  
HETATM    2  C   UNL     1      -7.382  19.979  70.816  1.00  0.00     0.886 A  
HETATM    3  N   UNL     1      -8.229  19.892  69.759  1.00  0.00     0.454 NA 
HETATM    4  C   UNL     1      -7.903  18.975  68.814  1.00  0.00    -0.342 A  
HETATM    5  C   UNL     1      -6.773  18.177  68.911  1.00  0.00    -0.252 A  
HETATM    6  C   UNL     1      -6.240  19.182  70.898  1.00  0.00     0.289 A  
HETATM    7  N   UNL     1      -5.901  18.263  69.957  1.00  0.00    -0.234 NA 
ENDROOT
BRANCH   5   8
HETATM    8  C   UNL     1      -6.509  17.156  67.860  1.00  0.00    -0.148 C  
HETATM    9  O   UNL     1      -6.386  17.481  66.685  1.00  0.00    -0.165 OA 
HETATM   10  N   UNL     1      -6.439  15.848  68.302  1.00  0.00    -0.115 N  
HETATM   11  H   UNL     1      -6.468  15.658  69.303  1.00  0.00     0.000 HD 
BRANCH  10  12
HETATM   12  C   UNL     1      -6.322  14.740  67.374  1.00  0.00     0.113 C  
BRANCH  12  13
HETATM   13  C   UNL     1      -5.226  13.737  67.769  1.00  0.00    -0.020 C  
BRANCH  13  14
HETATM   14  C   UNL     1      -5.733  12.482  68.456  1.00  0.00    -0.055 A  
HETATM   15  C   UNL     1      -6.240  11.397  67.725  1.00  0.00    -0.050 A  
HETATM   16  C   UNL     1      -6.746  10.267  68.370  1.00  0.00    -0.057 A  
HETATM   17  C   UNL     1      -6.695  10.178  69.760  1.00  0.00    -0.096 A  
HETATM   18  C   UNL     1      -6.150  11.225  70.508  1.00  0.00    -0.070 A  
HETATM   19  C   UNL     1      -5.666  12.366  69.856  1.00  0.00    -0.125 A  
BRANCH  17  20
HETATM   20  S   UNL     1      -7.465   8.793  70.568  1.00  0.00    -0.087 S  
HETATM   21  O   UNL     1      -8.382   9.284  71.573  1.00  0.00    -0.323 OA 
HETATM   22  O   UNL     1      -6.409   7.868  70.932  1.00  0.00    -0.037 OA 
BRANCH  20  23
HETATM   23  N   UNL     1      -8.311   8.018  69.361  1.00  0.00    -0.129 N  
HETATM   24  H   UNL     1      -7.865   7.935  68.448  1.00  0.00     0.000 HD 
BRANCH  23  25
HETATM   25  C   UNL     1      -9.576   7.479  69.511  1.00  0.00    -0.156 C  
HETATM   26  O   UNL     1     -10.544   7.856  68.872  1.00  0.00    -0.211 OA 
BRANCH  25  27
HETATM   27  N   UNL     1      -9.630   6.468  70.429  1.00  0.00    -0.162 N  
HETATM   28  H   UNL     1     -10.472   6.342  70.991  1.00  0.00     0.000 HD 
BRANCH  27  29
HETATM   29  C   UNL     1      -8.497   5.566  70.613  1.00  0.00    -0.121 C  
HETATM   30  C   UNL     1      -8.954   4.184  71.093  1.00  0.00    -0.168 C  
HETATM   31  C   UNL     1      -9.597   3.347  69.989  1.00  0.00    -0.202 C  
HETATM   32  C   UNL     1      -8.700   3.250  68.759  1.00  0.00    -0.145 C  
HETATM   33  C   UNL     1      -8.296   4.629  68.248  1.00  0.00    -0.090 C  
HETATM   34  C   UNL     1      -7.638   5.465  69.345  1.00  0.00    -0.077 C  
ENDBRANCH  27  29
ENDBRANCH  25  27
ENDBRANCH  23  25
ENDBRANCH  20  23
ENDBRANCH  17  20
ENDBRANCH  13  14
ENDBRANCH  12  13
ENDBRANCH  10  12
ENDBRANCH   5   8
TORSDOF 9
ENDMDL
MODEL      350
REMARK 921   NORMALIZED FREE ENERGY PREDICTED BY IDOCK:    2.74 KCAL/MOL
REMARK 922        TOTAL FREE ENERGY PREDICTED BY IDOCK:    2.69 KCAL/MOL
REMARK 923 INTER-LIGAND FREE ENERGY PREDICTED BY IDOCK:    1.95 KCAL/MOL
REMARK 924 INTRA-LIGAND FREE ENERGY PREDICTED BY IDOCK:    0.74 KCAL/MOL
REMARK 927      BINDING AFFINITY PREDICTED BY RF-SCORE:    0.00 PKD
ROOT
HETATM    1  C   UNL     1      -7.818  21.084  71.987  1.00  0.00     3.692 C  
HETATM    2  C   UNL     1      -7.470  20.114  70.902  1.00  0.00     1.153 A  
HETATM    3  N   UNL     1      -8.313  20.028  69.843  1.00  0.00     0.683 NA 
HETATM    4  C   UNL     1      -7.983  19.113  68.897  1.00  0.00    -0.305 A  
HETATM    5  C   UNL     1      -6.852  18.316  68.997  1.00  0.00    -0.254 A  
HETATM    6  C   UNL     1      -6.327  19.319  70.987  1.00  0.00     0.429 A  
HETATM    7  N   UNL     1      -5.984  18.402  70.046  1.00  0.00    -0.212 NA 
ENDROOT
BRANCH   5   8
HETATM    8  C   UNL     1      -6.582  17.296  67.946  1.00  0.00    -0.153 C  
HETATM    9  O   UNL     1      -6.493  17.619  66.767  1.00  0.00    -0.156 OA 
HETATM   10  N   UNL     1      -6.468  15.994  68.392  1.00  0.00    -0.116 N  
HETATM   11  H   UNL     1      -6.471  15.808  69.395  1.00  0.00     0.000 HD 
BRANCH  10  12
HETATM   12  C   UNL     1      -6.341  14.884  67.468  1.00  0.00    -0.043 C  
BRANCH  12  13
HETATM   13  C   UNL     1      -5.190  13.931  67.827  1.00  0.00    -0.013 C  
BRANCH  13  14
HETATM   14  C   UNL     1      -5.624  12.634  68.486  1.00  0.00    -0.057 A  
HETATM   15  C   UNL     1      -5.993  11.511  67.730  1.00  0.00    -0.049 A  
HETATM   16  C   UNL     1      -6.434  10.339  68.348  1.00  0.00    -0.048 A  
HETATM   17  C   UNL     1      -6.454  10.250  69.738  1.00  0.00    -0.080 A  
HETATM   18  C   UNL     1      -6.044  11.339  70.514  1.00  0.00    -0.070 A  
HETATM   19  C   UNL     1      -5.625  12.519  69.888  1.00  0.00    -0.112 A  
BRANCH  17  20
HETATM   20  S   UNL     1      -7.144   8.802  70.504  1.00  0.00    -0.058 S  
HETATM   21  O   UNL     1      -8.197   9.204  71.411  1.00  0.00    -0.316 OA 
HETATM   22  O   UNL     1      -6.035   7.999  70.982  1.00  0.00    -0.033 OA 
BRANCH  20  23
HETATM   23  N   UNL     1      -7.789   7.925  69.244  1.00  0.00    -0.113 N  
HETATM   24  H   UNL     1      -7.292   7.940  68.353  1.00  0.00     0.000 HD 
BRANCH  23  25
HETATM   25  C   UNL     1      -8.951   7.180  69.319  1.00  0.00    -0.138 C  
HETATM   26  O   UNL     1      -9.907   7.351  68.580  1.00  0.00    -0.153 OA 
BRANCH  25  27
HETATM   27  N   UNL     1      -8.917   6.218  70.290  1.00  0.00    -0.152 N  
HETATM   28  H   UNL     1      -8.068   5.670  70.427  1.00  0.00     0.000 HD 
BRANCH  27  29
HETATM   29  C   UNL     1     -10.083   5.966  71.131  1.00  0.00    -0.198 C  
HETATM   30  C   UNL     1      -9.673   5.634  72.571  1.00  0.00    -0.171 C  
HETATM   31  C   UNL     1      -9.215   6.858  73.362  1.00  0.00    -0.170 C  
HETATM   32  C   UNL     1     -10.245   7.981  73.312  1.00  0.00    -0.185 C  
HETATM   33  C   UNL     1     -10.606   8.350  71.877  1.00  0.00    -0.370 C  
HETATM   34  C   UNL     1     -11.080   7.132  71.086  1.00  0.00    -0.281 C  
ENDBRANCH  27  29
ENDBRANCH  25  27
ENDBRANCH  23  25
ENDBRANCH  20  23
ENDBRANCH  17  20
ENDBRANCH  13  14
ENDBRANCH  12  13
ENDBRANCH  10  12
ENDBRANCH   5   8
TORSDOF 9
ENDMDL
MODEL      351
REMARK 921   NORMALIZED FREE ENERGY PREDICTED BY IDOCK:    3.19 KCAL/MOL
REMARK 922        TOTAL FREE ENERGY PREDICTED BY IDOCK:    3.37 KCAL/MOL
REMARK 923 INTER-LIGAND FREE ENERGY PREDICTED BY IDOCK:    4.09 KCAL/MOL
REMARK 924 INTRA-LIGAND FREE ENERGY PREDICTED BY IDOCK:   -0.72 KCAL/MOL
REMARK 927      BINDING AFFINITY PREDICTED BY RF-SCORE:    0.00 PKD
ROOT
HETATM    1  C   UNL     1     -11.355   6.254  64.724  1.00  0.00     6.753 C  
HETATM    2  C   UNL     1     -10.228   5.421  65.246  1.00  0.00     0.577 A  
HETATM    3  N   UNL     1      -8.967   5.893  65.081  1.00  0.00     0.015 NA 
HETATM    4  C   UNL     1      -7.971   5.093  65.537  1.00  0.00    -0.109 A  
HETATM    5  C   UNL     1      -8.218   3.869  66.140  1.00  0.00    -0.101 A  
HETATM    6  C   UNL     1     -10.468   4.195  65.868  1.00  0.00     0.101 A  
HETATM    7  N   UNL     1      -9.480   3.386  66.331  1.00  0.00    -0.157 NA 
ENDROOT
BRANCH   5   8
HETATM    8  C   UNL     1      -7.071   3.021  66.567  1.00  0.00    -0.054 C  
HETATM    9  O   UNL     1      -6.747   2.032  65.920  1.00  0.00    -0.033 OA 
HETATM   10  N   UNL     1      -6.436   3.416  67.729  1.00  0.00    -0.036 N  
HETATM   11  H   UNL     1      -6.706   4.294  68.171  1.00  0.00     0.000 HD 
BRANCH  10  12
HETATM   12  C   UNL     1      -5.394   2.610  68.334  1.00  0.00    -0.013 C  
BRANCH  12  13
HETATM   13  C   UNL     1      -5.158   2.945  69.816  1.00  0.00    -0.004 C  
BRANCH  13  14
HETATM   14  C   UNL     1      -6.419   3.242  70.607  1.00  0.00    -0.031 A  
HETATM   15  C   UNL     1      -7.213   2.215  71.140  1.00  0.00    -0.033 A  
HETATM   16  C   UNL     1      -8.395   2.500  71.826  1.00  0.00    -0.069 A  
HETATM   17  C   UNL     1      -8.771   3.823  72.045  1.00  0.00    -0.096 A  
HETATM   18  C   UNL     1      -7.971   4.865  71.567  1.00  0.00    -0.110 A  
HETATM   19  C   UNL     1      -6.799   4.573  70.859  1.00  0.00    -0.036 A  
BRANCH  17  20
HETATM   20  S   UNL     1     -10.344   4.163  72.801  1.00  0.00    -0.168 S  
HETATM   21  O   UNL     1     -10.136   4.487  74.196  1.00  0.00    -0.157 OA 
HETATM   22  O   UNL     1     -11.241   3.086  72.428  1.00  0.00     0.443 OA 
BRANCH  20  23
HETATM   23  N   UNL     1     -10.922   5.497  71.991  1.00  0.00    -0.236 N  
HETATM   24  H   UNL     1     -11.420   5.340  71.114  1.00  0.00     0.000 HD 
BRANCH  23  25
HETATM   25  C   UNL     1     -10.775   6.803  72.422  1.00  0.00    -0.226 C  
HETATM   26  O   UNL     1     -10.130   7.114  73.410  1.00  0.00    -0.234 OA 
BRANCH  25  27
HETATM   27  N   UNL     1     -11.404   7.714  71.620  1.00  0.00    -0.246 N  
HETATM   28  H   UNL     1     -12.045   7.390  70.896  1.00  0.00     0.000 HD 
BRANCH  27  29
HETATM   29  C   UNL     1     -11.169   9.144  71.790  1.00  0.00    -0.381 C  
HETATM   30  C   UNL     1     -10.140   9.666  70.781  1.00  0.00    -0.293 C  
HETATM   31  C   UNL     1     -10.702   9.803  69.367  1.00  0.00    -0.250 C  
HETATM   32  C   UNL     1     -11.983  10.629  69.346  1.00  0.00    -0.298 C  
HETATM   33  C   UNL     1     -13.027  10.071  70.307  1.00  0.00     0.061 C  
HETATM   34  C   UNL     1     -12.476   9.947  71.726  1.00  0.00    -0.487 C  
ENDBRANCH  27  29
ENDBRANCH  25  27
ENDBRANCH  23  25
ENDBRANCH  20  23
ENDBRANCH  17  20
ENDBRANCH  13  14
ENDBRANCH  12  13
ENDBRANCH  10  12
ENDBRANCH   5   8
TORSDOF 9
ENDMDL
MODEL      352
REMARK 921   NORMALIZED FREE ENERGY PREDICTED BY IDOCK:    4.93 KCAL/MOL
REMARK 922        TOTAL FREE ENERGY PREDICTED BY IDOCK:    6.04 KCAL/MOL
REMARK 923 INTER-LIGAND FREE ENERGY PREDICTED BY IDOCK:    6.07 KCAL/MOL
REMARK 924 INTRA-LIGAND FREE ENERGY PREDICTED BY IDOCK:   -0.04 KCAL/MOL
REMARK 927      BINDING AFFINITY PREDICTED BY RF-SCORE:    0.00 PKD
ROOT
HETATM    1  C   UNL     1     -10.534  20.489  71.572  1.00  0.00     3.949 C  
HETATM    2  C   UNL     1      -9.450  20.174  70.591  1.00  0.00     1.517 A  
HETATM    3  N   UNL     1      -9.817  19.629  69.403  1.00  0.00    -0.301 NA 
HETATM    4  C   UNL     1      -8.803  19.325  68.554  1.00  0.00    -0.369 A  
HETATM    5  C   UNL     1      -7.473  19.559  68.871  1.00  0.00    -0.357 A  
HETATM    6  C   UNL     1      -8.111  20.419  70.894  1.00  0.00     1.956 A  
HETATM    7  N   UNL     1      -7.088  20.122  70.052  1.00  0.00    -0.003 NA 
ENDROOT
BRANCH   5   8
HETATM    8  C   UNL     1      -6.412  19.149  67.910  1.00  0.00    -0.226 C  
HETATM    9  O   UNL     1      -5.303  18.809  68.307  1.00  0.00    -0.177 OA 
HETATM   10  N   UNL     1      -6.761  19.203  66.574  1.00  0.00    -0.189 N  
HETATM   11  H   UNL     1      -7.725  19.416  66.320  1.00  0.00     0.000 HD 
BRANCH  10  12
HETATM   12  C   UNL     1      -5.788  18.964  65.526  1.00  0.00    -0.202 C  
BRANCH  12  13
HETATM   13  C   UNL     1      -5.219  17.536  65.550  1.00  0.00     0.158 C  
BRANCH  13  14
HETATM   14  C   UNL     1      -6.147  16.493  66.146  1.00  0.00     1.085 A  
HETATM   15  C   UNL     1      -7.517  16.469  65.845  1.00  0.00     0.653 A  
HETATM   16  C   UNL     1      -8.369  15.533  66.436  1.00  0.00    -0.153 A  
HETATM   17  C   UNL     1      -7.851  14.564  67.292  1.00  0.00    -0.173 A  
HETATM   18  C   UNL     1      -6.481  14.536  67.569  1.00  0.00    -0.070 A  
HETATM   19  C   UNL     1      -5.636  15.492  66.992  1.00  0.00     0.625 A  
BRANCH  17  20
HETATM   20  S   UNL     1      -8.967  13.469  68.137  1.00  0.00    -0.185 S  
HETATM   21  O   UNL     1     -10.180  14.188  68.460  1.00  0.00    -0.237 OA 
HETATM   22  O   UNL     1      -8.211  12.808  69.184  1.00  0.00     0.299 OA 
BRANCH  20  23
HETATM   23  N   UNL     1      -9.299  12.269  67.032  1.00  0.00    -0.198 N  
HETATM   24  H   UNL     1      -9.123  12.470  66.047  1.00  0.00     0.000 HD 
BRANCH  23  25
HETATM   25  C   UNL     1      -9.797  11.019  67.354  1.00  0.00    -0.173 C  
HETATM   26  O   UNL     1     -10.989  10.763  67.393  1.00  0.00    -0.274 OA 
BRANCH  25  27
HETATM   27  N   UNL     1      -8.822  10.094  67.604  1.00  0.00    -0.125 N  
HETATM   28  H   UNL     1      -8.189  10.230  68.391  1.00  0.00     0.000 HD 
BRANCH  27  29
HETATM   29  C   UNL     1      -8.678   8.915  66.755  1.00  0.00    -0.119 C  
HETATM   30  C   UNL     1      -7.244   8.375  66.786  1.00  0.00    -0.078 C  
HETATM   31  C   UNL     1      -6.909   7.635  68.079  1.00  0.00    -0.067 C  
HETATM   32  C   UNL     1      -7.930   6.545  68.387  1.00  0.00    -0.110 C  
HETATM   33  C   UNL     1      -9.351   7.098  68.415  1.00  0.00    -0.135 C  
HETATM   34  C   UNL     1      -9.697   7.826  67.118  1.00  0.00    -0.243 C  
ENDBRANCH  27  29
ENDBRANCH  25  27
ENDBRANCH  23  25
ENDBRANCH  20  23
ENDBRANCH  17  20
ENDBRANCH  13  14
ENDBRANCH  12  13
ENDBRANCH  10  12
ENDBRANCH   5   8
TORSDOF 9
ENDMDL
MODEL      353
REMARK 921   NORMALIZED FREE ENERGY PREDICTED BY IDOCK:    6.84 KCAL/MOL
REMARK 922        TOTAL FREE ENERGY PREDICTED BY IDOCK:    8.94 KCAL/MOL
REMARK 923 INTER-LIGAND FREE ENERGY PREDICTED BY IDOCK:    7.94 KCAL/MOL
REMARK 924 INTRA-LIGAND FREE ENERGY PREDICTED BY IDOCK:    1.01 KCAL/MOL
REMARK 927      BINDING AFFINITY PREDICTED BY RF-SCORE:    0.00 PKD
ROOT
HETATM    1  C   UNL     1     -12.473  15.932  62.946  1.00  0.00     5.216 C  
HETATM    2  C   UNL     1     -12.077  14.766  63.796  1.00  0.00     0.210 A  
HETATM    3  N   UNL     1     -13.031  13.845  64.083  1.00  0.00    -0.191 NA 
HETATM    4  C   UNL     1     -12.642  12.821  64.884  1.00  0.00    -0.470 A  
HETATM    5  C   UNL     1     -11.351  12.714  65.378  1.00  0.00    -0.313 A  
HETATM    6  C   UNL     1     -10.777  14.642  64.285  1.00  0.00     0.333 A  
HETATM    7  N   UNL     1     -10.375  13.621  65.085  1.00  0.00    -0.357 NA 
ENDROOT
BRANCH   5   8
HETATM    8  C   UNL     1     -11.012  11.591  66.295  1.00  0.00    -0.275 C  
HETATM    9  O   UNL     1     -10.384  10.618  65.892  1.00  0.00    -0.255 OA 
HETATM   10  N   UNL     1     -11.469  11.720  67.593  1.00  0.00    -0.297 N  
HETATM   11  H   UNL     1     -11.913  12.592  67.880  1.00  0.00     0.000 HD 
BRANCH  10  12
HETATM   12  C   UNL     1     -11.330  10.645  68.556  1.00  0.00    -0.284 C  
BRANCH  12  13
HETATM   13  C   UNL     1     -10.467  11.032  69.768  1.00  0.00     0.025 C  
BRANCH  13  14
HETATM   14  C   UNL     1      -9.311  11.964  69.452  1.00  0.00     0.867 A  
HETATM   15  C   UNL     1      -8.965  13.023  70.305  1.00  0.00     4.735 A  
HETATM   16  C   UNL     1      -7.930  13.902  69.979  1.00  0.00     1.417 A  
HETATM   17  C   UNL     1      -7.182  13.698  68.822  1.00  0.00    -0.100 A  
HETATM   18  C   UNL     1      -7.475  12.620  67.981  1.00  0.00    -0.120 A  
HETATM   19  C   UNL     1      -8.530  11.757  68.300  1.00  0.00    -0.161 A  
BRANCH  17  20
HETATM   20  S   UNL     1      -5.959  14.902  68.358  1.00  0.00    -0.114 S  
HETATM   21  O   UNL     1      -5.288  14.454  67.157  1.00  0.00    -0.085 OA 
HETATM   22  O   UNL     1      -5.192  15.216  69.548  1.00  0.00    -0.090 OA 
BRANCH  20  23
HETATM   23  N   UNL     1      -6.829  16.284  68.037  1.00  0.00    -0.126 N  
HETATM   24  H   UNL     1      -6.790  17.039  68.723  1.00  0.00     0.000 HD 
BRANCH  23  25
HETATM   25  C   UNL     1      -7.601  16.482  66.907  1.00  0.00    -0.237 C  
HETATM   26  O   UNL     1      -8.805  16.289  66.876  1.00  0.00    -0.189 OA 
BRANCH  25  27
HETATM   27  N   UNL     1      -6.886  16.936  65.834  1.00  0.00     0.262 N  
HETATM   28  H   UNL     1      -6.955  16.450  64.940  1.00  0.00     0.000 HD 
BRANCH  27  29
HETATM   29  C   UNL     1      -6.027  18.110  65.953  1.00  0.00    -0.218 C  
HETATM   30  C   UNL     1      -6.521  19.258  65.066  1.00  0.00    -0.256 C  
HETATM   31  C   UNL     1      -7.759  19.958  65.624  1.00  0.00    -0.186 C  
HETATM   32  C   UNL     1      -7.552  20.407  67.066  1.00  0.00    -0.360 C  
HETATM   33  C   UNL     1      -7.118  19.249  67.959  1.00  0.00    -0.287 C  
HETATM   34  C   UNL     1      -5.871  18.555  67.414  1.00  0.00    -0.157 C  
ENDBRANCH  27  29
ENDBRANCH  25  27
ENDBRANCH  23  25
ENDBRANCH  20  23
ENDBRANCH  17  20
ENDBRANCH  13  14
ENDBRANCH  12  13
ENDBRANCH  10  12
ENDBRANCH   5   8
TORSDOF 9
ENDMDL
MODEL      354
REMARK 921   NORMALIZED FREE ENERGY PREDICTED BY IDOCK:   14.20 KCAL/MOL
REMARK 922        TOTAL FREE ENERGY PREDICTED BY IDOCK:   20.18 KCAL/MOL
REMARK 923 INTER-LIGAND FREE ENERGY PREDICTED BY IDOCK:   21.20 KCAL/MOL
REMARK 924 INTRA-LIGAND FREE ENERGY PREDICTED BY IDOCK:   -1.02 KCAL/MOL
REMARK 927      BINDING AFFINITY PREDICTED BY RF-SCORE:    0.00 PKD
ROOT
HETATM    1  C   UNL     1     -11.469   7.116  62.963  1.00  0.00    16.979 C  
HETATM    2  C   UNL     1     -10.596   5.920  63.174  1.00  0.00     4.729 A  
HETATM    3  N   UNL     1      -9.321   5.983  62.715  1.00  0.00     0.873 NA 
HETATM    4  C   UNL     1      -8.572   4.866  62.894  1.00  0.00    -0.123 A  
HETATM    5  C   UNL     1      -9.070   3.729  63.512  1.00  0.00    -0.109 A  
HETATM    6  C   UNL     1     -11.084   4.776  63.808  1.00  0.00     1.337 A  
HETATM    7  N   UNL     1     -10.343   3.653  63.996  1.00  0.00    -0.237 NA 
ENDROOT
BRANCH   5   8
HETATM    8  C   UNL     1      -8.204   2.522  63.626  1.00  0.00    -0.082 C  
HETATM    9  O   UNL     1      -8.510   1.476  63.064  1.00  0.00    -0.064 OA 
HETATM   10  N   UNL     1      -7.076   2.667  64.409  1.00  0.00    -0.048 N  
HETATM   11  H   UNL     1      -6.841   3.588  64.779  1.00  0.00     0.000 HD 
BRANCH  10  12
HETATM   12  C   UNL     1      -6.217   1.540  64.718  1.00  0.00    -0.018 C  
BRANCH  12  13
HETATM   13  C   UNL     1      -5.134   1.876  65.756  1.00  0.00    -0.005 C  
BRANCH  13  14
HETATM   14  C   UNL     1      -5.614   2.720  66.923  1.00  0.00    -0.021 A  
HETATM   15  C   UNL     1      -5.956   2.143  68.156  1.00  0.00    -0.024 A  
HETATM   16  C   UNL     1      -6.440   2.925  69.207  1.00  0.00    -0.029 A  
HETATM   17  C   UNL     1      -6.531   4.307  69.062  1.00  0.00    -0.040 A  
HETATM   18  C   UNL     1      -6.150   4.910  67.860  1.00  0.00    -0.027 A  
HETATM   19  C   UNL     1      -5.688   4.119  66.801  1.00  0.00    -0.022 A  
BRANCH  17  20
HETATM   20  S   UNL     1      -7.275   5.267  70.360  1.00  0.00    -0.064 S  
HETATM   21  O   UNL     1      -6.230   5.831  71.187  1.00  0.00    -0.032 OA 
HETATM   22  O   UNL     1      -8.316   4.451  70.956  1.00  0.00    -0.085 OA 
BRANCH  20  23
HETATM   23  N   UNL     1      -8.090   6.485  69.571  1.00  0.00    -0.117 N  
HETATM   24  H   UNL     1      -8.163   6.426  68.555  1.00  0.00     0.000 HD 
BRANCH  23  25
HETATM   25  C   UNL     1      -8.675   7.572  70.195  1.00  0.00    -0.142 C  
HETATM   26  O   UNL     1      -9.089   7.543  71.342  1.00  0.00    -0.136 OA 
BRANCH  25  27
HETATM   27  N   UNL     1      -8.725   8.688  69.408  1.00  0.00    -0.137 N  
HETATM   28  H   UNL     1      -8.750   9.611  69.842  1.00  0.00     0.000 HD 
BRANCH  27  29
HETATM   29  C   UNL     1      -8.741   8.574  67.953  1.00  0.00    -0.138 C  
HETATM   30  C   UNL     1     -10.171   8.431  67.419  1.00  0.00    -0.328 C  
HETATM   31  C   UNL     1     -10.956   9.741  67.446  1.00  0.00    -0.176 C  
HETATM   32  C   UNL     1     -10.202  10.866  66.747  1.00  0.00    -0.277 C  
HETATM   33  C   UNL     1      -8.801  11.046  67.322  1.00  0.00    -0.135 C  
HETATM   34  C   UNL     1      -8.005   9.742  67.282  1.00  0.00    -0.106 C  
ENDBRANCH  27  29
ENDBRANCH  25  27
ENDBRANCH  23  25
ENDBRANCH  20  23
ENDBRANCH  17  20
ENDBRANCH  13  14
ENDBRANCH  12  13
ENDBRANCH  10  12
ENDBRANCH   5   8
TORSDOF 9
ENDMDL
MODEL      355
REMARK 921   NORMALIZED FREE ENERGY PREDICTED BY IDOCK:   23.73 KCAL/MOL
REMARK 922        TOTAL FREE ENERGY PREDICTED BY IDOCK:   34.72 KCAL/MOL
REMARK 923 INTER-LIGAND FREE ENERGY PREDICTED BY IDOCK:   33.33 KCAL/MOL
REMARK 924 INTRA-LIGAND FREE ENERGY PREDICTED BY IDOCK:    1.39 KCAL/MOL
REMARK 927      BINDING AFFINITY PREDICTED BY RF-SCORE:    0.00 PKD
ROOT
HETATM    1  C   UNL     1     -13.673  17.352  69.529  1.00  0.00    12.088 C  
HETATM    2  C   UNL     1     -12.393  17.107  68.794  1.00  0.00     2.921 A  
HETATM    3  N   UNL     1     -11.234  17.274  69.478  1.00  0.00     0.542 NA 
HETATM    4  C   UNL     1     -10.094  17.076  68.768  1.00  0.00    -0.307 A  
HETATM    5  C   UNL     1     -10.107  16.721  67.427  1.00  0.00    -0.276 A  
HETATM    6  C   UNL     1     -12.396  16.735  67.449  1.00  0.00     2.627 A  
HETATM    7  N   UNL     1     -11.263  16.532  66.728  1.00  0.00     0.202 NA 
ENDROOT
BRANCH   5   8
HETATM    8  C   UNL     1      -8.816  16.574  66.700  1.00  0.00    -0.256 C  
HETATM    9  O   UNL     1      -8.056  17.527  66.571  1.00  0.00    -0.233 OA 
HETATM   10  N   UNL     1      -8.563  15.319  66.179  1.00  0.00    -0.401 N  
HETATM   11  H   UNL     1      -9.200  14.552  66.394  1.00  0.00     0.000 HD 
BRANCH  10  12
HETATM   12  C   UNL     1      -7.412  15.068  65.333  1.00  0.00     7.322 C  
BRANCH  12  13
HETATM   13  C   UNL     1      -6.970  13.595  65.342  1.00  0.00     9.579 C  
BRANCH  13  14
HETATM   14  C   UNL     1      -7.863  12.670  66.149  1.00  0.00     1.238 A  
HETATM   15  C   UNL     1      -9.252  12.633  65.954  1.00  0.00     0.073 A  
HETATM   16  C   UNL     1     -10.068  11.811  66.734  1.00  0.00    -0.235 A  
HETATM   17  C   UNL     1      -9.499  10.965  67.683  1.00  0.00    -0.159 A  
HETATM   18  C   UNL     1      -8.112  10.948  67.862  1.00  0.00    -0.113 A  
HETATM   19  C   UNL     1      -7.302  11.791  67.093  1.00  0.00    -0.146 A  
BRANCH  17  20
HETATM   20  S   UNL     1     -10.562  10.027  68.756  1.00  0.00    -0.227 S  
HETATM   21  O   UNL     1     -11.745   9.634  68.023  1.00  0.00     0.349 OA 
HETATM   22  O   UNL     1     -10.686  10.772  69.995  1.00  0.00    -0.220 OA 
BRANCH  20  23
HETATM   23  N   UNL     1      -9.673   8.679  69.159  1.00  0.00    -0.170 N  
HETATM   24  H   UNL     1      -9.692   7.888  68.515  1.00  0.00     0.000 HD 
BRANCH  23  25
HETATM   25  C   UNL     1      -8.909   8.555  70.306  1.00  0.00    -0.148 C  
HETATM   26  O   UNL     1      -7.693   8.461  70.294  1.00  0.00    -0.075 OA 
BRANCH  25  27
HETATM   27  N   UNL     1      -9.649   8.570  71.455  1.00  0.00    -0.193 N  
HETATM   28  H   UNL     1      -9.699   9.423  72.011  1.00  0.00     0.000 HD 
BRANCH  27  29
HETATM   29  C   UNL     1     -10.369   7.378  71.894  1.00  0.00    -0.192 C  
HETATM   30  C   UNL     1     -11.874   7.504  71.631  1.00  0.00    -0.322 C  
HETATM   31  C   UNL     1     -12.242   7.332  70.159  1.00  0.00     0.212 C  
HETATM   32  C   UNL     1     -11.673   6.040  69.581  1.00  0.00     0.331 C  
HETATM   33  C   UNL     1     -10.166   5.947  69.791  1.00  0.00    -0.281 C  
HETATM   34  C   UNL     1      -9.793   6.102  71.265  1.00  0.00    -0.204 C  
ENDBRANCH  27  29
ENDBRANCH  25  27
ENDBRANCH  23  25
ENDBRANCH  20  23
ENDBRANCH  17  20
ENDBRANCH  13  14
ENDBRANCH  12  13
ENDBRANCH  10  12
ENDBRANCH   5   8
TORSDOF 9
ENDMDL
MODEL      356
REMARK 921   NORMALIZED FREE ENERGY PREDICTED BY IDOCK:   27.65 KCAL/MOL
REMARK 922        TOTAL FREE ENERGY PREDICTED BY IDOCK:   40.70 KCAL/MOL
REMARK 923 INTER-LIGAND FREE ENERGY PREDICTED BY IDOCK:   39.36 KCAL/MOL
REMARK 924 INTRA-LIGAND FREE ENERGY PREDICTED BY IDOCK:    1.35 KCAL/MOL
REMARK 927      BINDING AFFINITY PREDICTED BY RF-SCORE:    0.00 PKD
ROOT
HETATM    1  C   UNL     1     -13.872  17.568  69.669  1.00  0.00    14.092 C  
HETATM    2  C   UNL     1     -12.424  17.880  69.878  1.00  0.00     9.916 A  
HETATM    3  N   UNL     1     -12.000  18.073  71.152  1.00  0.00     5.654 NA 
HETATM    4  C   UNL     1     -10.688  18.387  71.297  1.00  0.00     2.972 A  
HETATM    5  C   UNL     1      -9.827  18.501  70.216  1.00  0.00     1.632 A  
HETATM    6  C   UNL     1     -11.547  17.982  68.797  1.00  0.00     2.288 A  
HETATM    7  N   UNL     1     -10.232  18.293  68.930  1.00  0.00    -0.357 NA 
ENDROOT
BRANCH   5   8
HETATM    8  C   UNL     1      -8.412  18.902  70.450  1.00  0.00     2.512 C  
HETATM    9  O   UNL     1      -8.143  19.899  71.111  1.00  0.00     1.470 OA 
HETATM   10  N   UNL     1      -7.457  18.097  69.859  1.00  0.00     0.732 N  
HETATM   11  H   UNL     1      -7.749  17.239  69.391  1.00  0.00     0.000 HD 
BRANCH  10  12
HETATM   12  C   UNL     1      -6.050  18.444  69.888  1.00  0.00    -0.169 C  
BRANCH  12  13
HETATM   13  C   UNL     1      -5.132  17.264  69.528  1.00  0.00    -0.159 C  
BRANCH  13  14
HETATM   14  C   UNL     1      -5.834  16.099  68.854  1.00  0.00    -0.118 A  
HETATM   15  C   UNL     1      -6.636  16.279  67.718  1.00  0.00    -0.162 A  
HETATM   16  C   UNL     1      -7.313  15.206  67.135  1.00  0.00    -0.145 A  
HETATM   17  C   UNL     1      -7.148  13.920  67.644  1.00  0.00    -0.177 A  
HETATM   18  C   UNL     1      -6.314  13.706  68.746  1.00  0.00    -0.093 A  
HETATM   19  C   UNL     1      -5.657  14.790  69.341  1.00  0.00    -0.094 A  
BRANCH  17  20
HETATM   20  S   UNL     1      -8.120  12.591  66.974  1.00  0.00    -0.047 S  
HETATM   21  O   UNL     1      -8.288  12.800  65.552  1.00  0.00     1.396 OA 
HETATM   22  O   UNL     1      -9.281  12.434  67.830  1.00  0.00    -0.178 OA 
BRANCH  20  23
HETATM   23  N   UNL     1      -7.208  11.225  67.241  1.00  0.00    -0.106 N  
HETATM   24  H   UNL     1      -6.486  10.995  66.557  1.00  0.00     0.000 HD 
BRANCH  23  25
HETATM   25  C   UNL     1      -7.360  10.378  68.323  1.00  0.00    -0.088 C  
HETATM   26  O   UNL     1      -6.501  10.218  69.175  1.00  0.00    -0.047 OA 
BRANCH  25  27
HETATM   27  N   UNL     1      -8.576   9.754  68.358  1.00  0.00    -0.118 N  
HETATM   28  H   UNL     1      -9.277  10.053  69.036  1.00  0.00     0.000 HD 
BRANCH  27  29
HETATM   29  C   UNL     1      -8.882   8.665  67.436  1.00  0.00    -0.134 C  
HETATM   30  C   UNL     1     -10.112   8.985  66.580  1.00  0.00    -0.354 C  
HETATM   31  C   UNL     1      -9.828  10.002  65.476  1.00  0.00    -0.373 C  
HETATM   32  C   UNL     1      -8.636   9.587  64.620  1.00  0.00    -0.207 C  
HETATM   33  C   UNL     1      -7.397   9.328  65.470  1.00  0.00    -0.090 C  
HETATM   34  C   UNL     1      -7.671   8.299  66.566  1.00  0.00    -0.092 C  
ENDBRANCH  27  29
ENDBRANCH  25  27
ENDBRANCH  23  25
ENDBRANCH  20  23
ENDBRANCH  17  20
ENDBRANCH  13  14
ENDBRANCH  12  13
ENDBRANCH  10  12
ENDBRANCH   5   8
TORSDOF 9
ENDMDL
MODEL      357
REMARK 921   NORMALIZED FREE ENERGY PREDICTED BY IDOCK:   29.89 KCAL/MOL
REMARK 922        TOTAL FREE ENERGY PREDICTED BY IDOCK:   44.12 KCAL/MOL
REMARK 923 INTER-LIGAND FREE ENERGY PREDICTED BY IDOCK:   43.08 KCAL/MOL
REMARK 924 INTRA-LIGAND FREE ENERGY PREDICTED BY IDOCK:    1.04 KCAL/MOL
REMARK 927      BINDING AFFINITY PREDICTED BY RF-SCORE:    0.00 PKD
ROOT
HETATM    1  C   UNL     1     -10.764  15.285  72.458  1.00  0.00     1.257 C  
HETATM    2  C   UNL     1     -10.382  14.073  71.670  1.00  0.00     4.817 A  
HETATM    3  N   UNL     1      -9.271  14.152  70.895  1.00  0.00     3.779 NA 
HETATM    4  C   UNL     1      -8.977  13.044  70.168  1.00  0.00     4.092 A  
HETATM    5  C   UNL     1      -9.755  11.897  70.215  1.00  0.00     3.540 A  
HETATM    6  C   UNL     1     -11.150  12.909  71.721  1.00  0.00     5.381 A  
HETATM    7  N   UNL     1     -10.864  11.794  71.002  1.00  0.00     2.804 NA 
ENDROOT
BRANCH   5   8
HETATM    8  C   UNL     1      -9.399  10.739  69.349  1.00  0.00     0.003 C  
HETATM    9  O   UNL     1      -9.243   9.622  69.828  1.00  0.00    -0.188 OA 
HETATM   10  N   UNL     1      -9.243  11.023  68.006  1.00  0.00    -0.154 N  
HETATM   11  H   UNL     1      -9.469  11.957  67.664  1.00  0.00     0.000 HD 
BRANCH  10  12
HETATM   12  C   UNL     1      -8.767  10.023  67.070  1.00  0.00    -0.132 C  
BRANCH  12  13
HETATM   13  C   UNL     1      -9.058  10.383  65.604  1.00  0.00    -0.206 C  
BRANCH  13  14
HETATM   14  C   UNL     1     -10.087  11.483  65.415  1.00  0.00    -0.304 A  
HETATM   15  C   UNL     1     -10.847  11.585  64.240  1.00  0.00    -0.421 A  
HETATM   16  C   UNL     1     -11.757  12.628  64.059  1.00  0.00    -0.496 A  
HETATM   17  C   UNL     1     -11.968  13.553  65.079  1.00  0.00    -0.372 A  
HETATM   18  C   UNL     1     -11.258  13.444  66.278  1.00  0.00    -0.322 A  
HETATM   19  C   UNL     1     -10.329  12.410  66.444  1.00  0.00    -0.255 A  
BRANCH  17  20
HETATM   20  S   UNL     1     -13.029  14.948  64.778  1.00  0.00     0.865 S  
HETATM   21  O   UNL     1     -14.407  14.531  64.921  1.00  0.00     2.427 OA 
HETATM   22  O   UNL     1     -12.580  15.573  63.549  1.00  0.00    -0.258 OA 
BRANCH  20  23
HETATM   23  N   UNL     1     -12.642  16.038  65.975  1.00  0.00     2.173 N  
HETATM   24  H   UNL     1     -12.808  15.760  66.942  1.00  0.00     0.000 HD 
BRANCH  23  25
HETATM   25  C   UNL     1     -12.111  17.295  65.750  1.00  0.00     3.855 C  
HETATM   26  O   UNL     1     -11.418  17.567  64.783  1.00  0.00    -0.481 OA 
BRANCH  25  27
HETATM   27  N   UNL     1     -12.455  18.209  66.706  1.00  0.00     5.112 N  
HETATM   28  H   UNL     1     -13.438  18.346  66.942  1.00  0.00     0.000 HD 
BRANCH  27  29
HETATM   29  C   UNL     1     -11.432  18.991  67.393  1.00  0.00     0.733 C  
HETATM   30  C   UNL     1     -11.737  19.120  68.890  1.00  0.00     3.969 C  
HETATM   31  C   UNL     1     -11.456  17.839  69.672  1.00  0.00     2.574 C  
HETATM   32  C   UNL     1     -10.042  17.325  69.426  1.00  0.00    -0.091 C  
HETATM   33  C   UNL     1      -9.762  17.140  67.939  1.00  0.00    -0.270 C  
HETATM   34  C   UNL     1     -10.026  18.424  67.153  1.00  0.00    -0.350 C  
ENDBRANCH  27  29
ENDBRANCH  25  27
ENDBRANCH  23  25
ENDBRANCH  20  23
ENDBRANCH  17  20
ENDBRANCH  13  14
ENDBRANCH  12  13
ENDBRANCH  10  12
ENDBRANCH   5   8
TORSDOF 9
ENDMDL
