MODEL        1
REMARK 921   NORMALIZED FREE ENERGY PREDICTED BY IDOCK:   -7.78 KCAL/MOL
REMARK 922        TOTAL FREE ENERGY PREDICTED BY IDOCK:  -14.02 KCAL/MOL
REMARK 923 INTER-LIGAND FREE ENERGY PREDICTED BY IDOCK:  -11.87 KCAL/MOL
REMARK 924 INTRA-LIGAND FREE ENERGY PREDICTED BY IDOCK:   -2.15 KCAL/MOL
REMARK 927      BINDING AFFINITY PREDICTED BY RF-SCORE:    0.00 PKD
ROOT
HETATM    1  C   UNL     1      -6.129   5.587  74.498  1.00  0.00    -0.063 C  
HETATM    2  O   UNL     1      -7.413   4.969  74.466  1.00  0.00    -0.087 OA 
ENDROOT
BRANCH   2   3
HETATM    3  C   UNL     1      -8.333   5.574  73.657  1.00  0.00    -0.112 A  
HETATM    4  C   UNL     1      -8.204   6.850  73.122  1.00  0.00    -0.118 A  
HETATM    5  C   UNL     1      -9.192   7.354  72.265  1.00  0.00    -0.162 A  
HETATM    6  C   UNL     1     -10.350   6.614  71.971  1.00  0.00    -0.218 A  
HETATM    7  C   UNL     1     -10.446   5.313  72.487  1.00  0.00    -0.266 A  
HETATM    8  C   UNL     1     -11.425   7.204  71.065  1.00  0.00    -0.331 C  
HETATM    9  C   UNL     1     -11.193   8.703  70.823  1.00  0.00    -0.261 C  
HETATM   10  C   UNL     1     -11.336   6.552  69.667  1.00  0.00    -0.443 C  
HETATM   11  C   UNL     1     -12.840   6.998  71.633  1.00  0.00    -0.408 C  
HETATM   12  C   UNL     1      -9.438   4.797  73.308  1.00  0.00    -0.135 A  
HETATM   13  O   UNL     1     -12.101   9.517  70.666  1.00  0.00    -0.252 OA 
HETATM   14  N   UNL     1      -9.860   9.017  70.633  1.00  0.00    -0.211 N  
HETATM   15  O   UNL     1      -7.866   9.233  71.759  1.00  0.00    -0.310 OA 
HETATM   16  C   UNL     1      -8.909   8.623  71.548  1.00  0.00    -0.219 C  
BRANCH  14  17
HETATM   17  C   UNL     1      -9.512   9.969  69.603  1.00  0.00    -0.223 C  
BRANCH  17  18
HETATM   18  C   UNL     1      -9.488   9.458  68.163  1.00  0.00    -0.146 C  
BRANCH  18  19
HETATM   19  C   UNL     1     -10.218  10.406  67.225  1.00  0.00    -0.258 A  
HETATM   20  C   UNL     1      -9.992  10.400  65.837  1.00  0.00    -0.317 A  
HETATM   21  C   UNL     1     -10.625  11.319  65.001  1.00  0.00    -0.353 A  
HETATM   22  C   UNL     1     -11.520  12.233  65.545  1.00  0.00    -0.361 A  
HETATM   23  C   UNL     1     -11.144  11.319  67.749  1.00  0.00    -0.328 A  
HETATM   24  C   UNL     1     -11.784  12.239  66.915  1.00  0.00    -0.404 A  
BRANCH  22  25
HETATM   25  S   UNL     1     -12.282  13.427  64.478  1.00  0.00    -0.388 S  
HETATM   26  O   UNL     1     -12.645  12.793  63.228  1.00  0.00    -0.676 OA 
HETATM   27  O   UNL     1     -13.278  14.131  65.259  1.00  0.00    -0.760 OA 
BRANCH  25  28
HETATM   28  N   UNL     1     -11.073  14.534  64.218  1.00  0.00    -0.604 N  
HETATM   29  H   UNL     1     -10.282  14.248  63.640  1.00  0.00     0.000 HD 
BRANCH  28  30
HETATM   30  C   UNL     1     -11.064  15.816  64.731  1.00  0.00    -0.400 C  
HETATM   31  O   UNL     1     -11.404  16.806  64.102  1.00  0.00    -1.194 OA 
BRANCH  30  32
HETATM   32  N   UNL     1     -10.625  15.850  66.019  1.00  0.00    -0.326 N  
HETATM   33  H   UNL     1     -11.305  15.921  66.775  1.00  0.00     0.000 HD 
BRANCH  32  34
HETATM   34  C   UNL     1      -9.203  15.786  66.341  1.00  0.00    -0.312 C  
HETATM   35  C   UNL     1      -8.736  17.057  67.062  1.00  0.00    -0.240 C  
HETATM   36  C   UNL     1      -9.368  17.185  68.447  1.00  0.00    -0.273 C  
HETATM   37  C   UNL     1      -9.141  15.940  69.301  1.00  0.00    -0.253 C  
HETATM   38  C   UNL     1      -9.519  14.644  68.586  1.00  0.00    -0.211 C  
HETATM   39  C   UNL     1      -8.897  14.551  67.193  1.00  0.00    -0.245 C  
ENDBRANCH  32  34
ENDBRANCH  30  32
ENDBRANCH  28  30
ENDBRANCH  25  28
ENDBRANCH  22  25
ENDBRANCH  18  19
ENDBRANCH  17  18
ENDBRANCH  14  17
ENDBRANCH   2   3
TORSDOF 9
ENDMDL
MODEL        2
REMARK 921   NORMALIZED FREE ENERGY PREDICTED BY IDOCK:   -7.66 KCAL/MOL
REMARK 922        TOTAL FREE ENERGY PREDICTED BY IDOCK:  -13.83 KCAL/MOL
REMARK 923 INTER-LIGAND FREE ENERGY PREDICTED BY IDOCK:  -11.91 KCAL/MOL
REMARK 924 INTRA-LIGAND FREE ENERGY PREDICTED BY IDOCK:   -1.92 KCAL/MOL
REMARK 927      BINDING AFFINITY PREDICTED BY RF-SCORE:    0.00 PKD
ROOT
HETATM    1  C   UNL     1      -7.068  20.105  66.016  1.00  0.00    -0.287 C  
HETATM    2  O   UNL     1      -8.463  20.091  66.311  1.00  0.00    -0.336 OA 
ENDROOT
BRANCH   2   3
HETATM    3  C   UNL     1      -8.965  18.883  66.707  1.00  0.00    -0.313 A  
HETATM    4  C   UNL     1      -9.790  18.074  65.934  1.00  0.00    -0.053 A  
HETATM    5  C   UNL     1     -10.211  16.830  66.425  1.00  0.00    -0.329 A  
HETATM    6  C   UNL     1      -9.859  16.398  67.714  1.00  0.00    -0.239 A  
HETATM    7  C   UNL     1      -8.993  17.208  68.465  1.00  0.00    -0.265 A  
HETATM    8  C   UNL     1     -10.362  15.056  68.235  1.00  0.00    -0.236 C  
HETATM    9  C   UNL     1     -11.459  14.479  67.328  1.00  0.00    -0.365 C  
HETATM   10  C   UNL     1      -9.215  14.021  68.187  1.00  0.00    -0.196 C  
HETATM   11  C   UNL     1     -10.897  15.154  69.674  1.00  0.00    -0.297 C  
HETATM   12  C   UNL     1      -8.541  18.430  67.956  1.00  0.00    -0.287 A  
HETATM   13  O   UNL     1     -12.397  13.800  67.740  1.00  0.00    -0.251 OA 
HETATM   14  N   UNL     1     -11.195  14.660  65.983  1.00  0.00    -0.339 N  
HETATM   15  O   UNL     1     -11.152  16.270  64.340  1.00  0.00    -0.735 OA 
HETATM   16  C   UNL     1     -10.904  15.912  65.487  1.00  0.00    -0.315 C  
BRANCH  14  17
HETATM   17  C   UNL     1     -11.471  13.574  65.069  1.00  0.00    -0.318 C  
BRANCH  17  18
HETATM   18  C   UNL     1     -10.273  12.776  64.555  1.00  0.00    -0.333 C  
BRANCH  18  19
HETATM   19  C   UNL     1     -10.168  11.426  65.246  1.00  0.00    -0.320 A  
HETATM   20  C   UNL     1     -10.795  11.170  66.478  1.00  0.00    -0.302 A  
HETATM   21  C   UNL     1     -10.636   9.946  67.125  1.00  0.00    -0.295 A  
HETATM   22  C   UNL     1      -9.873   8.950  66.525  1.00  0.00    -0.274 A  
HETATM   23  C   UNL     1      -9.425  10.400  64.645  1.00  0.00    -0.336 A  
HETATM   24  C   UNL     1      -9.266   9.169  65.288  1.00  0.00    -0.243 A  
BRANCH  22  25
HETATM   25  S   UNL     1      -9.640   7.415  67.381  1.00  0.00    -0.156 S  
HETATM   26  O   UNL     1      -9.422   6.355  66.418  1.00  0.00    -0.163 OA 
HETATM   27  O   UNL     1      -8.679   7.652  68.439  1.00  0.00    -0.128 OA 
BRANCH  25  28
HETATM   28  N   UNL     1     -11.090   7.184  68.155  1.00  0.00    -0.492 N  
HETATM   29  H   UNL     1     -11.931   7.550  67.708  1.00  0.00     0.000 HD 
BRANCH  28  30
HETATM   30  C   UNL     1     -11.236   6.531  69.363  1.00  0.00    -0.356 C  
HETATM   31  O   UNL     1     -10.794   5.417  69.594  1.00  0.00    -0.289 OA 
BRANCH  30  32
HETATM   32  N   UNL     1     -11.936   7.272  70.264  1.00  0.00    -0.551 N  
HETATM   33  H   UNL     1     -12.952   7.325  70.184  1.00  0.00     0.000 HD 
BRANCH  32  34
HETATM   34  C   UNL     1     -11.268   7.992  71.343  1.00  0.00    -0.252 C  
HETATM   35  C   UNL     1     -10.701   9.331  70.854  1.00  0.00    -0.371 C  
HETATM   36  C   UNL     1     -11.810  10.306  70.464  1.00  0.00    -0.419 C  
HETATM   37  C   UNL     1     -12.824  10.503  71.589  1.00  0.00    -0.581 C  
HETATM   38  C   UNL     1     -13.353   9.188  72.159  1.00  0.00    -0.525 C  
HETATM   39  C   UNL     1     -12.226   8.219  72.515  1.00  0.00    -0.367 C  
ENDBRANCH  32  34
ENDBRANCH  30  32
ENDBRANCH  28  30
ENDBRANCH  25  28
ENDBRANCH  22  25
ENDBRANCH  18  19
ENDBRANCH  17  18
ENDBRANCH  14  17
ENDBRANCH   2   3
TORSDOF 9
ENDMDL
MODEL        3
REMARK 921   NORMALIZED FREE ENERGY PREDICTED BY IDOCK:   -7.49 KCAL/MOL
REMARK 922        TOTAL FREE ENERGY PREDICTED BY IDOCK:  -13.58 KCAL/MOL
REMARK 923 INTER-LIGAND FREE ENERGY PREDICTED BY IDOCK:  -10.96 KCAL/MOL
REMARK 924 INTRA-LIGAND FREE ENERGY PREDICTED BY IDOCK:   -2.62 KCAL/MOL
REMARK 927      BINDING AFFINITY PREDICTED BY RF-SCORE:    0.00 PKD
ROOT
HETATM    1  C   UNL     1     -10.498  19.518  65.877  1.00  0.00    -0.491 C  
HETATM    2  O   UNL     1     -10.711  18.392  65.030  1.00  0.00    -0.551 OA 
ENDROOT
BRANCH   2   3
HETATM    3  C   UNL     1     -10.773  17.184  65.667  1.00  0.00    -0.136 A  
HETATM    4  C   UNL     1     -11.057  15.973  65.048  1.00  0.00    -0.345 A  
HETATM    5  C   UNL     1     -11.049  14.786  65.793  1.00  0.00    -0.338 A  
HETATM    6  C   UNL     1     -10.811  14.796  67.178  1.00  0.00    -0.311 A  
HETATM    7  C   UNL     1     -10.487  16.021  67.779  1.00  0.00    -0.298 A  
HETATM    8  C   UNL     1     -10.846  13.493  67.968  1.00  0.00    -0.266 C  
HETATM    9  C   UNL     1     -11.439  12.347  67.135  1.00  0.00    -0.357 C  
HETATM   10  C   UNL     1      -9.402  13.048  68.294  1.00  0.00    -0.199 C  
HETATM   11  C   UNL     1     -11.643  13.629  69.278  1.00  0.00    -0.363 C  
HETATM   12  C   UNL     1     -10.455  17.198  67.024  1.00  0.00    -0.282 A  
HETATM   13  O   UNL     1     -12.102  11.428  67.613  1.00  0.00    -0.630 OA 
HETATM   14  N   UNL     1     -11.014  12.363  65.820  1.00  0.00    -0.288 N  
HETATM   15  O   UNL     1     -11.282  13.497  63.837  1.00  0.00    -0.300 OA 
HETATM   16  C   UNL     1     -11.140  13.502  65.055  1.00  0.00    -0.328 C  
BRANCH  14  17
HETATM   17  C   UNL     1     -10.668  11.110  65.188  1.00  0.00    -0.210 C  
BRANCH  17  18
HETATM   18  C   UNL     1      -9.249  10.587  65.409  1.00  0.00    -0.229 C  
BRANCH  18  19
HETATM   19  C   UNL     1      -9.220   9.486  66.457  1.00  0.00    -0.201 A  
HETATM   20  C   UNL     1      -8.085   9.244  67.251  1.00  0.00    -0.113 A  
HETATM   21  C   UNL     1      -8.057   8.190  68.163  1.00  0.00    -0.128 A  
HETATM   22  C   UNL     1      -9.183   7.387  68.315  1.00  0.00    -0.137 A  
HETATM   23  C   UNL     1     -10.353   8.682  66.644  1.00  0.00    -0.303 A  
HETATM   24  C   UNL     1     -10.332   7.627  67.561  1.00  0.00    -0.326 A  
BRANCH  22  25
HETATM   25  S   UNL     1      -9.117   6.022  69.443  1.00  0.00    -0.133 S  
HETATM   26  O   UNL     1      -8.594   4.857  68.761  1.00  0.00    -0.089 OA 
HETATM   27  O   UNL     1      -8.495   6.498  70.662  1.00  0.00    -0.131 OA 
BRANCH  25  28
HETATM   28  N   UNL     1     -10.711   5.776  69.838  1.00  0.00    -0.322 N  
HETATM   29  H   UNL     1     -11.343   5.472  69.097  1.00  0.00     0.000 HD 
BRANCH  28  30
HETATM   30  C   UNL     1     -11.239   5.954  71.101  1.00  0.00    -0.211 C  
HETATM   31  O   UNL     1     -11.109   5.156  72.015  1.00  0.00    -0.145 OA 
BRANCH  30  32
HETATM   32  N   UNL     1     -11.930   7.122  71.207  1.00  0.00    -0.318 N  
HETATM   33  H   UNL     1     -12.677   7.321  70.543  1.00  0.00     0.000 HD 
BRANCH  32  34
HETATM   34  C   UNL     1     -11.625   8.096  72.250  1.00  0.00    -0.374 C  
HETATM   35  C   UNL     1     -10.508   9.053  71.813  1.00  0.00    -0.418 C  
HETATM   36  C   UNL     1     -10.954   9.953  70.662  1.00  0.00    -0.405 C  
HETATM   37  C   UNL     1     -12.243  10.705  70.986  1.00  0.00    -0.498 C  
HETATM   38  C   UNL     1     -13.356   9.795  71.504  1.00  0.00    -0.468 C  
HETATM   39  C   UNL     1     -12.878   8.886  72.635  1.00  0.00    -0.316 C  
ENDBRANCH  32  34
ENDBRANCH  30  32
ENDBRANCH  28  30
ENDBRANCH  25  28
ENDBRANCH  22  25
ENDBRANCH  18  19
ENDBRANCH  17  18
ENDBRANCH  14  17
ENDBRANCH   2   3
TORSDOF 9
ENDMDL
MODEL        4
REMARK 921   NORMALIZED FREE ENERGY PREDICTED BY IDOCK:   -7.37 KCAL/MOL
REMARK 922        TOTAL FREE ENERGY PREDICTED BY IDOCK:  -13.39 KCAL/MOL
REMARK 923 INTER-LIGAND FREE ENERGY PREDICTED BY IDOCK:  -11.66 KCAL/MOL
REMARK 924 INTRA-LIGAND FREE ENERGY PREDICTED BY IDOCK:   -1.74 KCAL/MOL
REMARK 927      BINDING AFFINITY PREDICTED BY RF-SCORE:    0.00 PKD
ROOT
HETATM    1  C   UNL     1     -10.945   2.033  73.966  1.00  0.00    -0.164 C  
HETATM    2  O   UNL     1     -10.190   3.241  73.933  1.00  0.00    -0.122 OA 
ENDROOT
BRANCH   2   3
HETATM    3  C   UNL     1     -10.120   3.853  72.713  1.00  0.00    -0.161 A  
HETATM    4  C   UNL     1     -10.732   5.060  72.393  1.00  0.00    -0.262 A  
HETATM    5  C   UNL     1     -10.555   5.619  71.120  1.00  0.00    -0.312 A  
HETATM    6  C   UNL     1      -9.809   4.959  70.130  1.00  0.00    -0.309 A  
HETATM    7  C   UNL     1      -9.166   3.762  70.481  1.00  0.00    -0.210 A  
HETATM    8  C   UNL     1      -9.665   5.575  68.743  1.00  0.00    -0.190 C  
HETATM    9  C   UNL     1     -10.637   6.749  68.547  1.00  0.00    -0.225 C  
HETATM   10  C   UNL     1      -8.256   6.191  68.596  1.00  0.00    -0.108 C  
HETATM   11  C   UNL     1      -9.888   4.544  67.623  1.00  0.00    -0.181 C  
HETATM   12  C   UNL     1      -9.310   3.227  71.766  1.00  0.00    -0.201 A  
HETATM   13  O   UNL     1     -11.152   7.035  67.469  1.00  0.00    -0.241 OA 
HETATM   14  N   UNL     1     -10.743   7.551  69.668  1.00  0.00    -0.240 N  
HETATM   15  O   UNL     1     -11.635   7.602  71.788  1.00  0.00    -0.255 OA 
HETATM   16  C   UNL     1     -11.041   7.004  70.897  1.00  0.00    -0.267 C  
BRANCH  14  17
HETATM   17  C   UNL     1     -10.784   8.985  69.493  1.00  0.00    -0.206 C  
BRANCH  17  18
HETATM   18  C   UNL     1      -9.746   9.601  68.555  1.00  0.00    -0.161 C  
BRANCH  18  19
HETATM   19  C   UNL     1     -10.395  10.536  67.547  1.00  0.00    -0.265 A  
HETATM   20  C   UNL     1     -10.078  10.488  66.178  1.00  0.00    -0.306 A  
HETATM   21  C   UNL     1     -10.638  11.394  65.278  1.00  0.00    -0.336 A  
HETATM   22  C   UNL     1     -11.551  12.337  65.737  1.00  0.00    -0.388 A  
HETATM   23  C   UNL     1     -11.338  11.476  67.984  1.00  0.00    -0.368 A  
HETATM   24  C   UNL     1     -11.905  12.384  67.086  1.00  0.00    -0.361 A  
BRANCH  22  25
HETATM   25  S   UNL     1     -12.219  13.513  64.591  1.00  0.00    -0.399 S  
HETATM   26  O   UNL     1     -12.517  12.850  63.340  1.00  0.00    -0.695 OA 
HETATM   27  O   UNL     1     -13.247  14.259  65.288  1.00  0.00    -0.704 OA 
BRANCH  25  28
HETATM   28  N   UNL     1     -10.973  14.589  64.377  1.00  0.00    -0.621 N  
HETATM   29  H   UNL     1     -10.145  14.264  63.877  1.00  0.00     0.000 HD 
BRANCH  28  30
HETATM   30  C   UNL     1     -10.980  15.893  64.829  1.00  0.00    -0.375 C  
HETATM   31  O   UNL     1     -11.363  16.844  64.166  1.00  0.00    -1.208 OA 
BRANCH  30  32
HETATM   32  N   UNL     1     -10.503  15.998  66.099  1.00  0.00    -0.319 N  
HETATM   33  H   UNL     1     -11.145  16.237  66.855  1.00  0.00     0.000 HD 
BRANCH  32  34
HETATM   34  C   UNL     1      -9.095  15.774  66.406  1.00  0.00    -0.322 C  
HETATM   35  C   UNL     1      -8.495  16.957  67.176  1.00  0.00    -0.218 C  
HETATM   36  C   UNL     1      -9.103  17.091  68.571  1.00  0.00    -0.259 C  
HETATM   37  C   UNL     1      -9.002  15.793  69.369  1.00  0.00    -0.247 C  
HETATM   38  C   UNL     1      -9.515  14.575  68.603  1.00  0.00    -0.205 C  
HETATM   39  C   UNL     1      -8.913  14.479  67.201  1.00  0.00    -0.244 C  
ENDBRANCH  32  34
ENDBRANCH  30  32
ENDBRANCH  28  30
ENDBRANCH  25  28
ENDBRANCH  22  25
ENDBRANCH  18  19
ENDBRANCH  17  18
ENDBRANCH  14  17
ENDBRANCH   2   3
TORSDOF 9
ENDMDL
MODEL        5
REMARK 921   NORMALIZED FREE ENERGY PREDICTED BY IDOCK:   -7.36 KCAL/MOL
REMARK 922        TOTAL FREE ENERGY PREDICTED BY IDOCK:  -13.39 KCAL/MOL
REMARK 923 INTER-LIGAND FREE ENERGY PREDICTED BY IDOCK:  -11.87 KCAL/MOL
REMARK 924 INTRA-LIGAND FREE ENERGY PREDICTED BY IDOCK:   -1.52 KCAL/MOL
REMARK 927      BINDING AFFINITY PREDICTED BY RF-SCORE:    0.00 PKD
ROOT
HETATM    1  C   UNL     1      -9.532   1.542  73.504  1.00  0.00    -0.072 C  
HETATM    2  O   UNL     1      -9.511   1.965  72.142  1.00  0.00    -0.082 OA 
ENDROOT
BRANCH   2   3
HETATM    3  C   UNL     1      -9.910   3.254  71.924  1.00  0.00    -0.168 A  
HETATM    4  C   UNL     1      -9.557   4.019  70.818  1.00  0.00    -0.263 A  
HETATM    5  C   UNL     1     -10.063   5.318  70.675  1.00  0.00    -0.310 A  
HETATM    6  C   UNL     1     -10.885   5.894  71.658  1.00  0.00    -0.321 A  
HETATM    7  C   UNL     1     -11.264   5.095  72.747  1.00  0.00    -0.323 A  
HETATM    8  C   UNL     1     -11.390   7.322  71.491  1.00  0.00    -0.280 C  
HETATM    9  C   UNL     1     -10.659   8.046  70.350  1.00  0.00    -0.224 C  
HETATM   10  C   UNL     1     -12.875   7.299  71.066  1.00  0.00    -0.259 C  
HETATM   11  C   UNL     1     -11.245   8.144  72.784  1.00  0.00    -0.407 C  
HETATM   12  C   UNL     1     -10.791   3.784  72.867  1.00  0.00    -0.157 A  
HETATM   13  O   UNL     1     -10.415   9.250  70.352  1.00  0.00    -0.211 OA 
HETATM   14  N   UNL     1     -10.451   7.238  69.247  1.00  0.00    -0.212 N  
HETATM   15  O   UNL     1      -9.174   5.477  68.500  1.00  0.00    -0.115 OA 
HETATM   16  C   UNL     1      -9.839   6.011  69.381  1.00  0.00    -0.163 C  
BRANCH  14  17
HETATM   17  C   UNL     1     -10.656   7.796  67.930  1.00  0.00    -0.156 C  
BRANCH  17  18
HETATM   18  C   UNL     1      -9.589   8.758  67.409  1.00  0.00    -0.206 C  
BRANCH  18  19
HETATM   19  C   UNL     1     -10.214   9.955  66.711  1.00  0.00    -0.301 A  
HETATM   20  C   UNL     1     -11.032  10.872  67.394  1.00  0.00    -0.353 A  
HETATM   21  C   UNL     1     -11.645  11.928  66.723  1.00  0.00    -0.341 A  
HETATM   22  C   UNL     1     -11.416  12.099  65.362  1.00  0.00    -0.336 A  
HETATM   23  C   UNL     1      -9.974  10.160  65.345  1.00  0.00    -0.377 A  
HETATM   24  C   UNL     1     -10.583  11.220  64.668  1.00  0.00    -0.392 A  
BRANCH  22  25
HETATM   25  S   UNL     1     -12.240  13.418  64.511  1.00  0.00    -0.388 S  
HETATM   26  O   UNL     1     -12.712  12.942  63.228  1.00  0.00    -0.660 OA 
HETATM   27  O   UNL     1     -13.159  14.029  65.449  1.00  0.00    -0.763 OA 
BRANCH  25  28
HETATM   28  N   UNL     1     -11.036  14.539  64.290  1.00  0.00    -0.604 N  
HETATM   29  H   UNL     1     -10.203  14.249  63.777  1.00  0.00     0.000 HD 
BRANCH  28  30
HETATM   30  C   UNL     1     -11.086  15.840  64.751  1.00  0.00    -0.400 C  
HETATM   31  O   UNL     1     -11.471  16.787  64.084  1.00  0.00    -1.171 OA 
BRANCH  30  32
HETATM   32  N   UNL     1     -10.650  15.944  66.036  1.00  0.00    -0.326 N  
HETATM   33  H   UNL     1     -11.323  16.135  66.777  1.00  0.00     0.000 HD 
BRANCH  32  34
HETATM   34  C   UNL     1      -9.239  15.790  66.377  1.00  0.00    -0.312 C  
HETATM   35  C   UNL     1      -8.742  16.955  67.242  1.00  0.00    -0.207 C  
HETATM   36  C   UNL     1      -9.401  16.957  68.620  1.00  0.00    -0.268 C  
HETATM   37  C   UNL     1      -9.240  15.618  69.336  1.00  0.00    -0.279 C  
HETATM   38  C   UNL     1      -9.649  14.424  68.476  1.00  0.00    -0.217 C  
HETATM   39  C   UNL     1      -8.999  14.459  67.093  1.00  0.00    -0.245 C  
ENDBRANCH  32  34
ENDBRANCH  30  32
ENDBRANCH  28  30
ENDBRANCH  25  28
ENDBRANCH  22  25
ENDBRANCH  18  19
ENDBRANCH  17  18
ENDBRANCH  14  17
ENDBRANCH   2   3
TORSDOF 9
ENDMDL
MODEL        6
REMARK 921   NORMALIZED FREE ENERGY PREDICTED BY IDOCK:   -7.29 KCAL/MOL
REMARK 922        TOTAL FREE ENERGY PREDICTED BY IDOCK:  -13.27 KCAL/MOL
REMARK 923 INTER-LIGAND FREE ENERGY PREDICTED BY IDOCK:  -11.04 KCAL/MOL
REMARK 924 INTRA-LIGAND FREE ENERGY PREDICTED BY IDOCK:   -2.23 KCAL/MOL
REMARK 927      BINDING AFFINITY PREDICTED BY RF-SCORE:    0.00 PKD
ROOT
HETATM    1  C   UNL     1     -14.409   8.425  72.072  1.00  0.00    -0.464 C  
HETATM    2  O   UNL     1     -13.736   7.204  71.779  1.00  0.00    -0.354 OA 
ENDROOT
BRANCH   2   3
HETATM    3  C   UNL     1     -12.431   7.332  71.395  1.00  0.00    -0.383 A  
HETATM    4  C   UNL     1     -11.935   7.001  70.139  1.00  0.00    -0.133 A  
HETATM    5  C   UNL     1     -10.583   7.218  69.840  1.00  0.00    -0.244 A  
HETATM    6  C   UNL     1      -9.693   7.718  70.806  1.00  0.00    -0.175 A  
HETATM    7  C   UNL     1     -10.218   8.084  72.054  1.00  0.00    -0.288 A  
HETATM    8  C   UNL     1      -8.220   7.908  70.462  1.00  0.00    -0.118 C  
HETATM    9  C   UNL     1      -7.863   7.229  69.131  1.00  0.00    -0.117 C  
HETATM   10  C   UNL     1      -7.933   9.409  70.237  1.00  0.00    -0.172 C  
HETATM   11  C   UNL     1      -7.292   7.373  71.566  1.00  0.00    -0.079 C  
HETATM   12  C   UNL     1     -11.576   7.906  72.336  1.00  0.00    -0.436 A  
HETATM   13  O   UNL     1      -6.768   6.723  68.896  1.00  0.00    -0.049 OA 
HETATM   14  N   UNL     1      -8.840   7.391  68.166  1.00  0.00    -0.128 N  
HETATM   15  O   UNL     1     -10.947   6.683  67.576  1.00  0.00    -0.309 OA 
HETATM   16  C   UNL     1     -10.150   7.057  68.430  1.00  0.00    -0.164 C  
BRANCH  14  17
HETATM   17  C   UNL     1      -8.432   7.676  66.809  1.00  0.00    -0.127 C  
BRANCH  17  18
HETATM   18  C   UNL     1      -7.869   9.070  66.530  1.00  0.00    -0.100 C  
BRANCH  18  19
HETATM   19  C   UNL     1      -8.965  10.040  66.119  1.00  0.00    -0.174 A  
HETATM   20  C   UNL     1      -9.220  10.346  64.771  1.00  0.00    -0.273 A  
HETATM   21  C   UNL     1     -10.188  11.285  64.417  1.00  0.00    -0.377 A  
HETATM   22  C   UNL     1     -10.938  11.901  65.413  1.00  0.00    -0.301 A  
HETATM   23  C   UNL     1      -9.751  10.652  67.106  1.00  0.00    -0.199 A  
HETATM   24  C   UNL     1     -10.726  11.590  66.756  1.00  0.00    -0.311 A  
BRANCH  22  25
HETATM   25  S   UNL     1     -12.134  13.127  64.953  1.00  0.00    -0.430 S  
HETATM   26  O   UNL     1     -13.064  12.558  64.000  1.00  0.00    -0.741 OA 
HETATM   27  O   UNL     1     -12.618  13.738  66.174  1.00  0.00    -0.438 OA 
BRANCH  25  28
HETATM   28  N   UNL     1     -11.216  14.297  64.216  1.00  0.00    -0.607 N  
HETATM   29  H   UNL     1     -10.557  14.002  63.495  1.00  0.00     0.000 HD 
BRANCH  28  30
HETATM   30  C   UNL     1     -11.284  15.644  64.511  1.00  0.00    -0.325 C  
HETATM   31  O   UNL     1     -11.716  16.491  63.745  1.00  0.00    -1.086 OA 
BRANCH  30  32
HETATM   32  N   UNL     1     -10.808  15.920  65.756  1.00  0.00    -0.291 N  
HETATM   33  H   UNL     1     -11.466  16.120  66.509  1.00  0.00     0.000 HD 
BRANCH  32  34
HETATM   34  C   UNL     1      -9.377  15.935  66.038  1.00  0.00    -0.349 C  
HETATM   35  C   UNL     1      -8.927  17.299  66.577  1.00  0.00    -0.294 C  
HETATM   36  C   UNL     1      -9.523  17.587  67.954  1.00  0.00    -0.277 C  
HETATM   37  C   UNL     1      -9.234  16.467  68.951  1.00  0.00    -0.258 C  
HETATM   38  C   UNL     1      -9.593  15.081  68.419  1.00  0.00    -0.212 C  
HETATM   39  C   UNL     1      -9.010  14.827  67.029  1.00  0.00    -0.258 C  
ENDBRANCH  32  34
ENDBRANCH  30  32
ENDBRANCH  28  30
ENDBRANCH  25  28
ENDBRANCH  22  25
ENDBRANCH  18  19
ENDBRANCH  17  18
ENDBRANCH  14  17
ENDBRANCH   2   3
TORSDOF 9
ENDMDL
MODEL        7
REMARK 921   NORMALIZED FREE ENERGY PREDICTED BY IDOCK:   -7.12 KCAL/MOL
REMARK 922        TOTAL FREE ENERGY PREDICTED BY IDOCK:  -13.01 KCAL/MOL
REMARK 923 INTER-LIGAND FREE ENERGY PREDICTED BY IDOCK:   -9.89 KCAL/MOL
REMARK 924 INTRA-LIGAND FREE ENERGY PREDICTED BY IDOCK:   -3.12 KCAL/MOL
REMARK 927      BINDING AFFINITY PREDICTED BY RF-SCORE:    0.00 PKD
ROOT
HETATM    1  C   UNL     1     -13.273  15.475  73.181  1.00  0.00    -0.549 C  
HETATM    2  O   UNL     1     -12.324  16.215  72.418  1.00  0.00    -0.467 OA 
ENDROOT
BRANCH   2   3
HETATM    3  C   UNL     1     -11.992  15.669  71.209  1.00  0.00    -0.415 A  
HETATM    4  C   UNL     1     -10.814  15.925  70.518  1.00  0.00    -0.283 A  
HETATM    5  C   UNL     1     -10.557  15.272  69.305  1.00  0.00    -0.256 A  
HETATM    6  C   UNL     1     -11.495  14.395  68.735  1.00  0.00    -0.319 A  
HETATM    7  C   UNL     1     -12.661  14.117  69.465  1.00  0.00    -0.011 A  
HETATM    8  C   UNL     1     -11.204  13.728  67.396  1.00  0.00    -0.330 C  
HETATM    9  C   UNL     1      -9.988  14.365  66.706  1.00  0.00    -0.263 C  
HETATM   10  C   UNL     1     -10.807  12.253  67.629  1.00  0.00    -0.262 C  
HETATM   11  C   UNL     1     -12.411  13.785  66.443  1.00  0.00    -0.460 C  
HETATM   12  C   UNL     1     -12.895  14.738  70.696  1.00  0.00    -0.398 A  
HETATM   13  O   UNL     1      -9.872  14.469  65.486  1.00  0.00    -0.338 OA 
HETATM   14  N   UNL     1      -8.963  14.658  67.586  1.00  0.00    -0.181 N  
HETATM   15  O   UNL     1      -8.363  16.125  69.253  1.00  0.00    -0.238 OA 
HETATM   16  C   UNL     1      -9.201  15.408  68.716  1.00  0.00    -0.206 C  
BRANCH  14  17
HETATM   17  C   UNL     1      -7.602  14.383  67.182  1.00  0.00     0.010 C  
BRANCH  17  18
HETATM   18  C   UNL     1      -6.801  13.414  68.052  1.00  0.00    -0.132 C  
BRANCH  18  19
HETATM   19  C   UNL     1      -7.303  11.987  67.900  1.00  0.00    -0.104 A  
HETATM   20  C   UNL     1      -7.471  11.388  66.640  1.00  0.00    -0.110 A  
HETATM   21  C   UNL     1      -7.991  10.100  66.519  1.00  0.00    -0.118 A  
HETATM   22  C   UNL     1      -8.315   9.383  67.666  1.00  0.00    -0.119 A  
HETATM   23  C   UNL     1      -7.610  11.238  69.045  1.00  0.00    -0.106 A  
HETATM   24  C   UNL     1      -8.127   9.945  68.929  1.00  0.00    -0.105 A  
BRANCH  22  25
HETATM   25  S   UNL     1      -9.019   7.765  67.497  1.00  0.00    -0.123 S  
HETATM   26  O   UNL     1     -10.251   7.852  66.743  1.00  0.00    -0.277 OA 
HETATM   27  O   UNL     1      -7.958   6.876  67.068  1.00  0.00    -0.112 OA 
BRANCH  25  28
HETATM   28  N   UNL     1      -9.346   7.326  69.064  1.00  0.00    -0.148 N  
HETATM   29  H   UNL     1      -8.569   7.300  69.723  1.00  0.00     0.000 HD 
BRANCH  28  30
HETATM   30  C   UNL     1     -10.601   6.993  69.536  1.00  0.00    -0.234 C  
HETATM   31  O   UNL     1     -11.014   5.849  69.632  1.00  0.00    -0.347 OA 
BRANCH  30  32
HETATM   32  N   UNL     1     -11.327   8.093  69.876  1.00  0.00    -0.455 N  
HETATM   33  H   UNL     1     -12.183   8.303  69.363  1.00  0.00     0.000 HD 
BRANCH  32  34
HETATM   34  C   UNL     1     -10.910   8.977  70.959  1.00  0.00    -0.276 C  
HETATM   35  C   UNL     1     -11.330  10.428  70.690  1.00  0.00    -0.411 C  
HETATM   36  C   UNL     1     -12.848  10.591  70.718  1.00  0.00    -0.454 C  
HETATM   37  C   UNL     1     -13.460  10.061  72.012  1.00  0.00    -0.448 C  
HETATM   38  C   UNL     1     -13.002   8.645  72.358  1.00  0.00    -0.403 C  
HETATM   39  C   UNL     1     -11.482   8.500  72.297  1.00  0.00    -0.445 C  
ENDBRANCH  32  34
ENDBRANCH  30  32
ENDBRANCH  28  30
ENDBRANCH  25  28
ENDBRANCH  22  25
ENDBRANCH  18  19
ENDBRANCH  17  18
ENDBRANCH  14  17
ENDBRANCH   2   3
TORSDOF 9
ENDMDL
MODEL        8
REMARK 921   NORMALIZED FREE ENERGY PREDICTED BY IDOCK:   -7.00 KCAL/MOL
REMARK 922        TOTAL FREE ENERGY PREDICTED BY IDOCK:  -12.84 KCAL/MOL
REMARK 923 INTER-LIGAND FREE ENERGY PREDICTED BY IDOCK:  -10.61 KCAL/MOL
REMARK 924 INTRA-LIGAND FREE ENERGY PREDICTED BY IDOCK:   -2.23 KCAL/MOL
REMARK 927      BINDING AFFINITY PREDICTED BY RF-SCORE:    0.00 PKD
ROOT
HETATM    1  C   UNL     1      -8.064   2.141  68.078  1.00  0.00    -0.058 C  
HETATM    2  O   UNL     1      -9.369   2.635  68.367  1.00  0.00    -0.182 OA 
ENDROOT
BRANCH   2   3
HETATM    3  C   UNL     1      -9.419   3.670  69.259  1.00  0.00    -0.174 A  
HETATM    4  C   UNL     1      -9.470   5.015  68.913  1.00  0.00    -0.195 A  
HETATM    5  C   UNL     1      -9.564   5.993  69.913  1.00  0.00    -0.188 A  
HETATM    6  C   UNL     1      -9.556   5.647  71.274  1.00  0.00    -0.198 A  
HETATM    7  C   UNL     1      -9.544   4.284  71.605  1.00  0.00    -0.228 A  
HETATM    8  C   UNL     1      -9.623   6.735  72.340  1.00  0.00    -0.164 C  
HETATM    9  C   UNL     1      -9.398   8.129  71.733  1.00  0.00    -0.181 C  
HETATM   10  C   UNL     1     -11.045   6.782  72.941  1.00  0.00    -0.277 C  
HETATM   11  C   UNL     1      -8.602   6.507  73.469  1.00  0.00    -0.131 C  
HETATM   12  C   UNL     1      -9.492   3.309  70.604  1.00  0.00    -0.240 A  
HETATM   13  O   UNL     1      -8.842   9.050  72.327  1.00  0.00    -0.363 OA 
HETATM   14  N   UNL     1     -10.033   8.293  70.516  1.00  0.00    -0.183 N  
HETATM   15  O   UNL     1      -9.907   7.677  68.303  1.00  0.00    -0.157 OA 
HETATM   16  C   UNL     1      -9.835   7.391  69.493  1.00  0.00    -0.165 C  
BRANCH  14  17
HETATM   17  C   UNL     1     -10.703   9.545  70.246  1.00  0.00    -0.265 C  
BRANCH  17  18
HETATM   18  C   UNL     1      -9.837  10.707  69.761  1.00  0.00     0.051 C  
BRANCH  18  19
HETATM   19  C   UNL     1     -10.412  11.341  68.504  1.00  0.00    -0.218 A  
HETATM   20  C   UNL     1      -9.864  11.101  67.232  1.00  0.00    -0.198 A  
HETATM   21  C   UNL     1     -10.367  11.739  66.099  1.00  0.00    -0.266 A  
HETATM   22  C   UNL     1     -11.452  12.600  66.226  1.00  0.00    -0.364 A  
HETATM   23  C   UNL     1     -11.522  12.191  68.606  1.00  0.00    -0.347 A  
HETATM   24  C   UNL     1     -12.034  12.830  67.473  1.00  0.00    -0.342 A  
BRANCH  22  25
HETATM   25  S   UNL     1     -12.052  13.441  64.786  1.00  0.00    -0.426 S  
HETATM   26  O   UNL     1     -12.082  12.522  63.668  1.00  0.00    -0.468 OA 
HETATM   27  O   UNL     1     -13.248  14.162  65.173  1.00  0.00    -0.743 OA 
BRANCH  25  28
HETATM   28  N   UNL     1     -10.906  14.613  64.522  1.00  0.00    -0.625 N  
HETATM   29  H   UNL     1     -10.073  14.353  63.995  1.00  0.00     0.000 HD 
BRANCH  28  30
HETATM   30  C   UNL     1     -11.004  15.916  64.968  1.00  0.00    -0.412 C  
HETATM   31  O   UNL     1     -11.188  16.876  64.237  1.00  0.00    -1.204 OA 
BRANCH  30  32
HETATM   32  N   UNL     1     -10.865  16.007  66.319  1.00  0.00    -0.228 N  
HETATM   33  H   UNL     1     -11.579  15.598  66.922  1.00  0.00     0.000 HD 
BRANCH  32  34
HETATM   34  C   UNL     1      -9.718  16.674  66.924  1.00  0.00    -0.254 C  
HETATM   35  C   UNL     1      -9.897  16.832  68.439  1.00  0.00    -0.253 C  
HETATM   36  C   UNL     1      -9.890  15.482  69.154  1.00  0.00    -0.246 C  
HETATM   37  C   UNL     1      -8.646  14.662  68.819  1.00  0.00    -0.160 C  
HETATM   38  C   UNL     1      -8.386  14.549  67.318  1.00  0.00    -0.232 C  
HETATM   39  C   UNL     1      -8.426  15.909  66.622  1.00  0.00    -0.322 C  
ENDBRANCH  32  34
ENDBRANCH  30  32
ENDBRANCH  28  30
ENDBRANCH  25  28
ENDBRANCH  22  25
ENDBRANCH  18  19
ENDBRANCH  17  18
ENDBRANCH  14  17
ENDBRANCH   2   3
TORSDOF 9
ENDMDL
MODEL        9
REMARK 921   NORMALIZED FREE ENERGY PREDICTED BY IDOCK:   -6.93 KCAL/MOL
REMARK 922        TOTAL FREE ENERGY PREDICTED BY IDOCK:  -12.72 KCAL/MOL
REMARK 923 INTER-LIGAND FREE ENERGY PREDICTED BY IDOCK:  -11.99 KCAL/MOL
REMARK 924 INTRA-LIGAND FREE ENERGY PREDICTED BY IDOCK:   -0.73 KCAL/MOL
REMARK 927      BINDING AFFINITY PREDICTED BY RF-SCORE:    0.00 PKD
ROOT
HETATM    1  C   UNL     1      -8.180   1.468  72.083  1.00  0.00    -0.045 C  
HETATM    2  O   UNL     1      -9.569   1.746  71.924  1.00  0.00    -0.094 OA 
ENDROOT
BRANCH   2   3
HETATM    3  C   UNL     1      -9.889   3.066  71.779  1.00  0.00    -0.160 A  
HETATM    4  C   UNL     1      -9.555   3.849  70.680  1.00  0.00    -0.259 A  
HETATM    5  C   UNL     1      -9.975   5.185  70.618  1.00  0.00    -0.296 A  
HETATM    6  C   UNL     1     -10.688   5.776  71.674  1.00  0.00    -0.314 A  
HETATM    7  C   UNL     1     -11.051   4.961  72.757  1.00  0.00    -0.283 A  
HETATM    8  C   UNL     1     -11.100   7.241  71.593  1.00  0.00    -0.262 C  
HETATM    9  C   UNL     1     -10.395   7.958  70.432  1.00  0.00    -0.212 C  
HETATM   10  C   UNL     1     -12.607   7.337  71.269  1.00  0.00    -0.402 C  
HETATM   11  C   UNL     1     -10.812   7.999  72.902  1.00  0.00    -0.399 C  
HETATM   12  C   UNL     1     -10.666   3.617  72.798  1.00  0.00    -0.139 A  
HETATM   13  O   UNL     1     -10.066   9.142  70.460  1.00  0.00    -0.201 OA 
HETATM   14  N   UNL     1     -10.317   7.183  69.290  1.00  0.00    -0.197 N  
HETATM   15  O   UNL     1      -9.221   5.370  68.395  1.00  0.00    -0.108 OA 
HETATM   16  C   UNL     1      -9.786   5.913  69.338  1.00  0.00    -0.161 C  
BRANCH  14  17
HETATM   17  C   UNL     1     -10.567   7.807  68.010  1.00  0.00    -0.139 C  
BRANCH  17  18
HETATM   18  C   UNL     1      -9.542   8.832  67.524  1.00  0.00    -0.192 C  
BRANCH  18  19
HETATM   19  C   UNL     1     -10.208   9.959  66.751  1.00  0.00    -0.301 A  
HETATM   20  C   UNL     1     -10.033  10.115  65.365  1.00  0.00    -0.377 A  
HETATM   21  C   UNL     1     -10.602  11.191  64.685  1.00  0.00    -0.386 A  
HETATM   22  C   UNL     1     -11.384  12.104  65.383  1.00  0.00    -0.338 A  
HETATM   23  C   UNL     1     -11.022  10.875  67.432  1.00  0.00    -0.353 A  
HETATM   24  C   UNL     1     -11.598  11.953  66.754  1.00  0.00    -0.341 A  
BRANCH  22  25
HETATM   25  S   UNL     1     -12.063  13.494  64.516  1.00  0.00    -0.418 S  
HETATM   26  O   UNL     1     -12.415  13.095  63.170  1.00  0.00    -0.686 OA 
HETATM   27  O   UNL     1     -13.052  14.102  65.382  1.00  0.00    -0.743 OA 
BRANCH  25  28
HETATM   28  N   UNL     1     -10.801  14.571  64.474  1.00  0.00    -0.621 N  
HETATM   29  H   UNL     1      -9.866  14.202  64.303  1.00  0.00     0.000 HD 
BRANCH  28  30
HETATM   30  C   UNL     1     -10.932  15.934  64.655  1.00  0.00    -0.305 C  
HETATM   31  O   UNL     1     -11.579  16.662  63.919  1.00  0.00    -1.204 OA 
BRANCH  30  32
HETATM   32  N   UNL     1     -10.248  16.374  65.746  1.00  0.00    -0.356 N  
HETATM   33  H   UNL     1      -9.292  16.053  65.897  1.00  0.00     0.000 HD 
BRANCH  32  34
HETATM   34  C   UNL     1     -10.851  17.294  66.704  1.00  0.00     0.049 C  
HETATM   35  C   UNL     1     -10.419  16.970  68.140  1.00  0.00    -0.357 C  
HETATM   36  C   UNL     1      -8.928  17.225  68.353  1.00  0.00    -0.269 C  
HETATM   37  C   UNL     1      -8.525  18.643  67.953  1.00  0.00    -0.297 C  
HETATM   38  C   UNL     1      -9.008  19.034  66.557  1.00  0.00    -0.340 C  
HETATM   39  C   UNL     1     -10.496  18.743  66.359  1.00  0.00    -0.485 C  
ENDBRANCH  32  34
ENDBRANCH  30  32
ENDBRANCH  28  30
ENDBRANCH  25  28
ENDBRANCH  22  25
ENDBRANCH  18  19
ENDBRANCH  17  18
ENDBRANCH  14  17
ENDBRANCH   2   3
TORSDOF 9
ENDMDL
MODEL       10
REMARK 921   NORMALIZED FREE ENERGY PREDICTED BY IDOCK:   -6.89 KCAL/MOL
REMARK 922        TOTAL FREE ENERGY PREDICTED BY IDOCK:  -12.66 KCAL/MOL
REMARK 923 INTER-LIGAND FREE ENERGY PREDICTED BY IDOCK:  -12.05 KCAL/MOL
REMARK 924 INTRA-LIGAND FREE ENERGY PREDICTED BY IDOCK:   -0.60 KCAL/MOL
REMARK 927      BINDING AFFINITY PREDICTED BY RF-SCORE:    0.00 PKD
ROOT
HETATM    1  C   UNL     1     -10.373   2.025  74.310  1.00  0.00    -0.127 C  
HETATM    2  O   UNL     1     -10.985   3.308  74.203  1.00  0.00    -0.183 OA 
ENDROOT
BRANCH   2   3
HETATM    3  C   UNL     1     -10.722   3.986  73.045  1.00  0.00    -0.165 A  
HETATM    4  C   UNL     1     -11.056   5.314  72.809  1.00  0.00    -0.346 A  
HETATM    5  C   UNL     1     -10.696   5.922  71.598  1.00  0.00    -0.308 A  
HETATM    6  C   UNL     1     -10.047   5.200  70.584  1.00  0.00    -0.309 A  
HETATM    7  C   UNL     1      -9.683   3.872  70.853  1.00  0.00    -0.253 A  
HETATM    8  C   UNL     1      -9.702   5.879  69.263  1.00  0.00    -0.182 C  
HETATM    9  C   UNL     1     -10.401   7.241  69.134  1.00  0.00    -0.205 C  
HETATM   10  C   UNL     1      -8.190   6.197  69.226  1.00  0.00    -0.116 C  
HETATM   11  C   UNL     1     -10.067   5.007  68.049  1.00  0.00    -0.169 C  
HETATM   12  C   UNL     1     -10.005   3.280  72.079  1.00  0.00    -0.222 A  
HETATM   13  O   UNL     1     -10.785   7.711  68.065  1.00  0.00    -0.178 OA 
HETATM   14  N   UNL     1     -10.404   7.957  70.316  1.00  0.00    -0.208 N  
HETATM   15  O   UNL     1     -11.385   8.028  72.395  1.00  0.00    -0.325 OA 
HETATM   16  C   UNL     1     -10.876   7.391  71.479  1.00  0.00    -0.224 C  
BRANCH  14  17
HETATM   17  C   UNL     1     -10.141   9.378  70.266  1.00  0.00    -0.240 C  
BRANCH  17  18
HETATM   18  C   UNL     1     -11.352  10.310  70.279  1.00  0.00    -0.398 C  
BRANCH  18  19
HETATM   19  C   UNL     1     -11.334  11.261  69.093  1.00  0.00    -0.349 A  
HETATM   20  C   UNL     1     -11.513  12.646  69.247  1.00  0.00    -0.354 A  
HETATM   21  C   UNL     1     -11.554  13.494  68.141  1.00  0.00    -0.368 A  
HETATM   22  C   UNL     1     -11.381  12.964  66.867  1.00  0.00    -0.312 A  
HETATM   23  C   UNL     1     -11.134  10.750  67.802  1.00  0.00    -0.381 A  
HETATM   24  C   UNL     1     -11.171  11.596  66.691  1.00  0.00    -0.362 A  
BRANCH  22  25
HETATM   25  S   UNL     1     -11.483  14.045  65.466  1.00  0.00    -0.328 S  
HETATM   26  O   UNL     1     -10.498  13.651  64.481  1.00  0.00    -0.430 OA 
HETATM   27  O   UNL     1     -12.881  14.150  65.102  1.00  0.00    -0.686 OA 
BRANCH  25  28
HETATM   28  N   UNL     1     -11.087  15.528  66.098  1.00  0.00    -0.240 N  
HETATM   29  H   UNL     1     -10.975  15.600  67.109  1.00  0.00     0.000 HD 
BRANCH  28  30
HETATM   30  C   UNL     1     -10.898  16.672  65.348  1.00  0.00    -0.173 C  
HETATM   31  O   UNL     1     -11.360  16.840  64.231  1.00  0.00    -1.170 OA 
BRANCH  30  32
HETATM   32  N   UNL     1     -10.131  17.589  65.997  1.00  0.00    -0.296 N  
HETATM   33  H   UNL     1      -9.310  17.973  65.529  1.00  0.00     0.000 HD 
BRANCH  32  34
HETATM   34  C   UNL     1     -10.456  18.036  67.347  1.00  0.00    -0.387 C  
HETATM   35  C   UNL     1      -9.430  17.528  68.367  1.00  0.00    -0.292 C  
HETATM   36  C   UNL     1      -8.055  18.158  68.149  1.00  0.00    -0.289 C  
HETATM   37  C   UNL     1      -8.119  19.683  68.130  1.00  0.00    -0.353 C  
HETATM   38  C   UNL     1      -9.187  20.229  67.185  1.00  0.00    -0.519 C  
HETATM   39  C   UNL     1     -10.546  19.564  67.404  1.00  0.00    -0.607 C  
ENDBRANCH  32  34
ENDBRANCH  30  32
ENDBRANCH  28  30
ENDBRANCH  25  28
ENDBRANCH  22  25
ENDBRANCH  18  19
ENDBRANCH  17  18
ENDBRANCH  14  17
ENDBRANCH   2   3
TORSDOF 9
ENDMDL
MODEL       11
REMARK 921   NORMALIZED FREE ENERGY PREDICTED BY IDOCK:   -6.86 KCAL/MOL
REMARK 922        TOTAL FREE ENERGY PREDICTED BY IDOCK:  -12.61 KCAL/MOL
REMARK 923 INTER-LIGAND FREE ENERGY PREDICTED BY IDOCK:  -11.64 KCAL/MOL
REMARK 924 INTRA-LIGAND FREE ENERGY PREDICTED BY IDOCK:   -0.98 KCAL/MOL
REMARK 927      BINDING AFFINITY PREDICTED BY RF-SCORE:    0.00 PKD
ROOT
HETATM    1  C   UNL     1     -10.066   4.354  66.220  1.00  0.00    -0.225 C  
HETATM    2  O   UNL     1      -9.086   3.933  67.165  1.00  0.00    -0.131 OA 
ENDROOT
BRANCH   2   3
HETATM    3  C   UNL     1      -9.317   4.314  68.457  1.00  0.00    -0.151 A  
HETATM    4  C   UNL     1      -9.417   5.630  68.892  1.00  0.00    -0.157 A  
HETATM    5  C   UNL     1      -9.702   5.904  70.236  1.00  0.00    -0.212 A  
HETATM    6  C   UNL     1      -9.838   4.871  71.178  1.00  0.00    -0.261 A  
HETATM    7  C   UNL     1      -9.773   3.548  70.716  1.00  0.00    -0.207 A  
HETATM    8  C   UNL     1     -10.111   5.202  72.641  1.00  0.00    -0.220 C  
HETATM    9  C   UNL     1      -9.910   6.698  72.925  1.00  0.00    -0.164 C  
HETATM   10  C   UNL     1     -11.597   4.927  72.964  1.00  0.00    -0.284 C  
HETATM   11  C   UNL     1      -9.224   4.384  73.597  1.00  0.00    -0.106 C  
HETATM   12  C   UNL     1      -9.530   3.277  69.365  1.00  0.00    -0.203 A  
HETATM   13  O   UNL     1      -9.496   7.140  73.994  1.00  0.00    -0.231 OA 
HETATM   14  N   UNL     1     -10.400   7.506  71.915  1.00  0.00    -0.191 N  
HETATM   15  O   UNL     1      -9.959   8.197  69.766  1.00  0.00    -0.185 OA 
HETATM   16  C   UNL     1     -10.016   7.307  70.607  1.00  0.00    -0.186 C  
BRANCH  14  17
HETATM   17  C   UNL     1     -11.117   8.708  72.276  1.00  0.00    -0.325 C  
BRANCH  17  18
HETATM   18  C   UNL     1     -12.338   9.070  71.431  1.00  0.00    -0.380 C  
BRANCH  18  19
HETATM   19  C   UNL     1     -12.398  10.563  71.151  1.00  0.00    -0.510 A  
HETATM   20  C   UNL     1     -11.679  11.150  70.095  1.00  0.00    -0.439 A  
HETATM   21  C   UNL     1     -11.698  12.530  69.892  1.00  0.00    -0.327 A  
HETATM   22  C   UNL     1     -12.468  13.333  70.726  1.00  0.00    -0.324 A  
HETATM   23  C   UNL     1     -13.189  11.387  71.963  1.00  0.00    -0.432 A  
HETATM   24  C   UNL     1     -13.215  12.769  71.761  1.00  0.00    -0.471 A  
BRANCH  22  25
HETATM   25  S   UNL     1     -12.446  15.089  70.487  1.00  0.00    -0.384 S  
HETATM   26  O   UNL     1     -13.660  15.664  71.026  1.00  0.00    -0.588 OA 
HETATM   27  O   UNL     1     -11.151  15.568  70.925  1.00  0.00    -0.327 OA 
BRANCH  25  28
HETATM   28  N   UNL     1     -12.432  15.249  68.835  1.00  0.00    -0.532 N  
HETATM   29  H   UNL     1     -13.314  15.128  68.337  1.00  0.00     0.000 HD 
BRANCH  28  30
HETATM   30  C   UNL     1     -11.306  15.537  68.088  1.00  0.00    -0.345 C  
HETATM   31  O   UNL     1     -10.689  14.709  67.437  1.00  0.00    -0.272 OA 
BRANCH  30  32
HETATM   32  N   UNL     1     -10.961  16.851  68.167  1.00  0.00    -0.346 N  
HETATM   33  H   UNL     1     -11.648  17.527  68.501  1.00  0.00     0.000 HD 
BRANCH  32  34
HETATM   34  C   UNL     1      -9.632  17.315  67.785  1.00  0.00    -0.262 C  
HETATM   35  C   UNL     1      -9.597  17.768  66.320  1.00  0.00    -0.256 C  
HETATM   36  C   UNL     1     -10.443  19.019  66.094  1.00  0.00    -0.541 C  
HETATM   37  C   UNL     1     -10.057  20.152  67.041  1.00  0.00    -0.599 C  
HETATM   38  C   UNL     1     -10.001  19.720  68.506  1.00  0.00    -0.538 C  
HETATM   39  C   UNL     1      -9.172  18.451  68.701  1.00  0.00    -0.328 C  
ENDBRANCH  32  34
ENDBRANCH  30  32
ENDBRANCH  28  30
ENDBRANCH  25  28
ENDBRANCH  22  25
ENDBRANCH  18  19
ENDBRANCH  17  18
ENDBRANCH  14  17
ENDBRANCH   2   3
TORSDOF 9
ENDMDL
MODEL       12
REMARK 921   NORMALIZED FREE ENERGY PREDICTED BY IDOCK:   -6.84 KCAL/MOL
REMARK 922        TOTAL FREE ENERGY PREDICTED BY IDOCK:  -12.59 KCAL/MOL
REMARK 923 INTER-LIGAND FREE ENERGY PREDICTED BY IDOCK:  -11.26 KCAL/MOL
REMARK 924 INTRA-LIGAND FREE ENERGY PREDICTED BY IDOCK:   -1.32 KCAL/MOL
REMARK 927      BINDING AFFINITY PREDICTED BY RF-SCORE:    0.00 PKD
ROOT
HETATM    1  C   UNL     1      -7.939   2.519  66.786  1.00  0.00    -0.076 C  
HETATM    2  O   UNL     1      -7.584   3.886  66.979  1.00  0.00    -0.078 OA 
ENDROOT
BRANCH   2   3
HETATM    3  C   UNL     1      -8.232   4.520  68.001  1.00  0.00    -0.094 A  
HETATM    4  C   UNL     1      -8.067   5.858  68.339  1.00  0.00    -0.109 A  
HETATM    5  C   UNL     1      -8.820   6.416  69.381  1.00  0.00    -0.132 A  
HETATM    6  C   UNL     1      -9.711   5.636  70.136  1.00  0.00    -0.228 A  
HETATM    7  C   UNL     1      -9.895   4.298  69.757  1.00  0.00    -0.258 A  
HETATM    8  C   UNL     1     -10.489   6.262  71.288  1.00  0.00    -0.264 C  
HETATM    9  C   UNL     1      -9.945   7.656  71.639  1.00  0.00    -0.176 C  
HETATM   10  C   UNL     1     -11.952   6.499  70.853  1.00  0.00    -0.353 C  
HETATM   11  C   UNL     1     -10.470   5.382  72.549  1.00  0.00    -0.262 C  
HETATM   12  C   UNL     1      -9.173   3.754  68.690  1.00  0.00    -0.216 A  
HETATM   13  O   UNL     1      -9.941   8.119  72.777  1.00  0.00    -0.272 OA 
HETATM   14  N   UNL     1      -9.615   8.401  70.522  1.00  0.00    -0.167 N  
HETATM   15  O   UNL     1      -8.041   8.575  68.854  1.00  0.00    -0.115 OA 
HETATM   16  C   UNL     1      -8.772   7.889  69.561  1.00  0.00    -0.134 C  
BRANCH  14  17
HETATM   17  C   UNL     1      -9.962   9.804  70.497  1.00  0.00    -0.193 C  
BRANCH  17  18
HETATM   18  C   UNL     1     -11.412  10.156  70.163  1.00  0.00    -0.368 C  
BRANCH  18  19
HETATM   19  C   UNL     1     -11.496  11.069  68.951  1.00  0.00    -0.364 A  
HETATM   20  C   UNL     1     -11.264  10.597  67.647  1.00  0.00    -0.361 A  
HETATM   21  C   UNL     1     -11.285  11.462  66.554  1.00  0.00    -0.276 A  
HETATM   22  C   UNL     1     -11.576  12.807  66.753  1.00  0.00    -0.370 A  
HETATM   23  C   UNL     1     -11.814  12.423  69.126  1.00  0.00    -0.352 A  
HETATM   24  C   UNL     1     -11.841  13.294  68.034  1.00  0.00    -0.392 A  
BRANCH  22  25
HETATM   25  S   UNL     1     -11.554  13.905  65.361  1.00  0.00    -0.339 S  
HETATM   26  O   UNL     1     -10.454  13.554  64.489  1.00  0.00    -0.418 OA 
HETATM   27  O   UNL     1     -12.905  13.975  64.845  1.00  0.00    -0.692 OA 
BRANCH  25  28
HETATM   28  N   UNL     1     -11.275  15.389  66.051  1.00  0.00    -0.234 N  
HETATM   29  H   UNL     1     -11.489  15.502  67.042  1.00  0.00     0.000 HD 
BRANCH  28  30
HETATM   30  C   UNL     1     -10.772  16.483  65.374  1.00  0.00    -0.259 C  
HETATM   31  O   UNL     1     -11.242  16.918  64.335  1.00  0.00    -1.159 OA 
BRANCH  30  32
HETATM   32  N   UNL     1      -9.686  17.016  65.997  1.00  0.00    -0.254 N  
HETATM   33  H   UNL     1      -8.799  17.068  65.496  1.00  0.00     0.000 HD 
BRANCH  32  34
HETATM   34  C   UNL     1      -9.761  17.515  67.366  1.00  0.00    -0.274 C  
HETATM   35  C   UNL     1      -8.391  17.990  67.864  1.00  0.00    -0.249 C  
HETATM   36  C   UNL     1      -7.911  19.226  67.104  1.00  0.00    -0.274 C  
HETATM   37  C   UNL     1      -8.940  20.353  67.132  1.00  0.00    -0.453 C  
HETATM   38  C   UNL     1     -10.339  19.900  66.720  1.00  0.00    -0.599 C  
HETATM   39  C   UNL     1     -10.785  18.647  67.473  1.00  0.00    -0.447 C  
ENDBRANCH  32  34
ENDBRANCH  30  32
ENDBRANCH  28  30
ENDBRANCH  25  28
ENDBRANCH  22  25
ENDBRANCH  18  19
ENDBRANCH  17  18
ENDBRANCH  14  17
ENDBRANCH   2   3
TORSDOF 9
ENDMDL
MODEL       13
REMARK 921   NORMALIZED FREE ENERGY PREDICTED BY IDOCK:   -6.80 KCAL/MOL
REMARK 922        TOTAL FREE ENERGY PREDICTED BY IDOCK:  -12.52 KCAL/MOL
REMARK 923 INTER-LIGAND FREE ENERGY PREDICTED BY IDOCK:  -10.71 KCAL/MOL
REMARK 924 INTRA-LIGAND FREE ENERGY PREDICTED BY IDOCK:   -1.82 KCAL/MOL
REMARK 927      BINDING AFFINITY PREDICTED BY RF-SCORE:    0.00 PKD
ROOT
HETATM    1  C   UNL     1     -12.782  15.460  74.060  1.00  0.00    -0.505 C  
HETATM    2  O   UNL     1     -13.003  14.534  72.999  1.00  0.00    -0.481 OA 
ENDROOT
BRANCH   2   3
HETATM    3  C   UNL     1     -12.318  14.793  71.845  1.00  0.00    -0.345 A  
HETATM    4  C   UNL     1     -12.156  13.894  70.798  1.00  0.00    -0.404 A  
HETATM    5  C   UNL     1     -11.471  14.283  69.639  1.00  0.00    -0.334 A  
HETATM    6  C   UNL     1     -10.890  15.558  69.528  1.00  0.00    -0.267 A  
HETATM    7  C   UNL     1     -11.097  16.466  70.577  1.00  0.00    -0.214 A  
HETATM    8  C   UNL     1     -10.119  15.940  68.270  1.00  0.00    -0.224 C  
HETATM    9  C   UNL     1      -9.845  14.713  67.386  1.00  0.00    -0.222 C  
HETATM   10  C   UNL     1     -10.984  16.878  67.399  1.00  0.00    -0.073 C  
HETATM   11  C   UNL     1      -8.785  16.635  68.594  1.00  0.00    -0.250 C  
HETATM   12  C   UNL     1     -11.818  16.088  71.715  1.00  0.00    -0.599 A  
HETATM   13  O   UNL     1      -8.838  14.583  66.694  1.00  0.00    -0.243 OA 
HETATM   14  N   UNL     1     -10.922  13.849  67.318  1.00  0.00    -0.286 N  
HETATM   15  O   UNL     1     -12.078  12.286  68.549  1.00  0.00    -0.279 OA 
HETATM   16  C   UNL     1     -11.512  13.372  68.468  1.00  0.00    -0.310 C  
BRANCH  14  17
HETATM   17  C   UNL     1     -11.259  13.260  66.042  1.00  0.00    -0.297 C  
BRANCH  17  18
HETATM   18  C   UNL     1     -10.182  12.419  65.358  1.00  0.00    -0.302 C  
BRANCH  18  19
HETATM   19  C   UNL     1      -9.873  11.160  66.151  1.00  0.00    -0.265 A  
HETATM   20  C   UNL     1     -10.776  10.085  66.221  1.00  0.00    -0.018 A  
HETATM   21  C   UNL     1     -10.502   8.964  67.004  1.00  0.00    -0.326 A  
HETATM   22  C   UNL     1      -9.299   8.894  67.698  1.00  0.00    -0.136 A  
HETATM   23  C   UNL     1      -8.655  11.057  66.837  1.00  0.00    -0.143 A  
HETATM   24  C   UNL     1      -8.373   9.934  67.619  1.00  0.00    -0.114 A  
BRANCH  22  25
HETATM   25  S   UNL     1      -8.983   7.485  68.727  1.00  0.00    -0.128 S  
HETATM   26  O   UNL     1      -8.015   6.624  68.080  1.00  0.00    -0.108 OA 
HETATM   27  O   UNL     1      -8.746   7.975  70.069  1.00  0.00    -0.133 OA 
BRANCH  25  28
HETATM   28  N   UNL     1     -10.456   6.725  68.797  1.00  0.00    -0.195 N  
HETATM   29  H   UNL     1     -10.949   6.559  67.919  1.00  0.00     0.000 HD 
BRANCH  28  30
HETATM   30  C   UNL     1     -11.062   6.300  69.963  1.00  0.00    -0.388 C  
HETATM   31  O   UNL     1     -10.679   5.348  70.624  1.00  0.00    -0.254 OA 
BRANCH  30  32
HETATM   32  N   UNL     1     -12.141   7.063  70.287  1.00  0.00    -0.618 N  
HETATM   33  H   UNL     1     -12.749   7.407  69.544  1.00  0.00     0.000 HD 
BRANCH  32  34
HETATM   34  C   UNL     1     -12.447   7.401  71.673  1.00  0.00    -0.349 C  
HETATM   35  C   UNL     1     -11.419   8.383  72.250  1.00  0.00    -0.454 C  
HETATM   36  C   UNL     1     -11.497   9.748  71.568  1.00  0.00    -0.393 C  
HETATM   37  C   UNL     1     -12.908  10.329  71.604  1.00  0.00    -0.568 C  
HETATM   38  C   UNL     1     -13.973   9.351  71.112  1.00  0.00    -0.026 C  
HETATM   39  C   UNL     1     -13.858   7.984  71.788  1.00  0.00    -0.452 C  
ENDBRANCH  32  34
ENDBRANCH  30  32
ENDBRANCH  28  30
ENDBRANCH  25  28
ENDBRANCH  22  25
ENDBRANCH  18  19
ENDBRANCH  17  18
ENDBRANCH  14  17
ENDBRANCH   2   3
TORSDOF 9
ENDMDL
MODEL       14
REMARK 921   NORMALIZED FREE ENERGY PREDICTED BY IDOCK:   -6.77 KCAL/MOL
REMARK 922        TOTAL FREE ENERGY PREDICTED BY IDOCK:  -12.48 KCAL/MOL
REMARK 923 INTER-LIGAND FREE ENERGY PREDICTED BY IDOCK:  -10.32 KCAL/MOL
REMARK 924 INTRA-LIGAND FREE ENERGY PREDICTED BY IDOCK:   -2.16 KCAL/MOL
REMARK 927      BINDING AFFINITY PREDICTED BY RF-SCORE:    0.00 PKD
ROOT
HETATM    1  C   UNL     1     -12.789  11.937  63.682  1.00  0.00    -0.305 C  
HETATM    2  O   UNL     1     -13.342  12.739  64.722  1.00  0.00    -0.736 OA 
ENDROOT
BRANCH   2   3
HETATM    3  C   UNL     1     -12.505  13.690  65.235  1.00  0.00    -0.479 A  
HETATM    4  C   UNL     1     -12.006  13.693  66.532  1.00  0.00    -0.465 A  
HETATM    5  C   UNL     1     -11.116  14.697  66.938  1.00  0.00    -0.333 A  
HETATM    6  C   UNL     1     -10.753  15.742  66.074  1.00  0.00    -0.311 A  
HETATM    7  C   UNL     1     -11.234  15.703  64.757  1.00  0.00    -0.391 A  
HETATM    8  C   UNL     1      -9.811  16.841  66.556  1.00  0.00    -0.303 C  
HETATM    9  C   UNL     1      -9.615  16.781  68.079  1.00  0.00    -0.234 C  
HETATM   10  C   UNL     1      -8.405  16.613  65.959  1.00  0.00    -0.180 C  
HETATM   11  C   UNL     1     -10.307  18.244  66.166  1.00  0.00    -0.414 C  
HETATM   12  C   UNL     1     -12.089  14.676  64.342  1.00  0.00    -0.481 A  
HETATM   13  O   UNL     1      -9.434  17.773  68.782  1.00  0.00    -0.292 OA 
HETATM   14  N   UNL     1      -9.494  15.489  68.555  1.00  0.00    -0.195 N  
HETATM   15  O   UNL     1     -10.716  13.586  68.976  1.00  0.00    -0.228 OA 
HETATM   16  C   UNL     1     -10.443  14.538  68.252  1.00  0.00    -0.242 C  
BRANCH  14  17
HETATM   17  C   UNL     1      -8.503  15.214  69.571  1.00  0.00    -0.144 C  
BRANCH  17  18
HETATM   18  C   UNL     1      -7.197  14.567  69.111  1.00  0.00    -0.138 C  
BRANCH  18  19
HETATM   19  C   UNL     1      -7.432  13.166  68.569  1.00  0.00    -0.117 A  
HETATM   20  C   UNL     1      -7.836  12.940  67.241  1.00  0.00    -0.134 A  
HETATM   21  C   UNL     1      -8.106  11.652  66.781  1.00  0.00    -0.150 A  
HETATM   22  C   UNL     1      -7.939  10.571  67.639  1.00  0.00    -0.106 A  
HETATM   23  C   UNL     1      -7.243  12.060  69.410  1.00  0.00     0.152 A  
HETATM   24  C   UNL     1      -7.509  10.767  68.951  1.00  0.00    -0.116 A  
BRANCH  22  25
HETATM   25  S   UNL     1      -8.331   8.944  67.055  1.00  0.00    -0.105 S  
HETATM   26  O   UNL     1      -7.754   8.751  65.741  1.00  0.00    -0.091 OA 
HETATM   27  O   UNL     1      -8.034   8.017  68.128  1.00  0.00    -0.123 OA 
BRANCH  25  28
HETATM   28  N   UNL     1      -9.987   8.965  66.946  1.00  0.00    -0.222 N  
HETATM   29  H   UNL     1     -10.421   8.447  66.182  1.00  0.00     0.000 HD 
BRANCH  28  30
HETATM   30  C   UNL     1     -10.819   9.637  67.821  1.00  0.00    -0.217 C  
HETATM   31  O   UNL     1     -11.496  10.604  67.513  1.00  0.00    -0.460 OA 
BRANCH  30  32
HETATM   32  N   UNL     1     -10.790   9.098  69.070  1.00  0.00    -0.401 N  
HETATM   33  H   UNL     1     -10.880   8.088  69.180  1.00  0.00     0.000 HD 
BRANCH  32  34
HETATM   34  C   UNL     1     -10.632   9.932  70.257  1.00  0.00    -0.301 C  
HETATM   35  C   UNL     1     -11.913  10.717  70.564  1.00  0.00    -0.456 C  
HETATM   36  C   UNL     1     -13.057   9.793  70.978  1.00  0.00    -0.363 C  
HETATM   37  C   UNL     1     -12.667   8.881  72.138  1.00  0.00    -0.470 C  
HETATM   38  C   UNL     1     -11.350   8.141  71.906  1.00  0.00    -0.356 C  
HETATM   39  C   UNL     1     -10.230   9.082  71.465  1.00  0.00    -0.414 C  
ENDBRANCH  32  34
ENDBRANCH  30  32
ENDBRANCH  28  30
ENDBRANCH  25  28
ENDBRANCH  22  25
ENDBRANCH  18  19
ENDBRANCH  17  18
ENDBRANCH  14  17
ENDBRANCH   2   3
TORSDOF 9
ENDMDL
MODEL       15
REMARK 921   NORMALIZED FREE ENERGY PREDICTED BY IDOCK:   -6.77 KCAL/MOL
REMARK 922        TOTAL FREE ENERGY PREDICTED BY IDOCK:  -12.48 KCAL/MOL
REMARK 923 INTER-LIGAND FREE ENERGY PREDICTED BY IDOCK:   -9.73 KCAL/MOL
REMARK 924 INTRA-LIGAND FREE ENERGY PREDICTED BY IDOCK:   -2.76 KCAL/MOL
REMARK 927      BINDING AFFINITY PREDICTED BY RF-SCORE:    0.00 PKD
ROOT
HETATM    1  C   UNL     1     -13.499  13.544  72.266  1.00  0.00    -0.571 C  
HETATM    2  O   UNL     1     -12.712  14.697  71.975  1.00  0.00    -0.313 OA 
ENDROOT
BRANCH   2   3
HETATM    3  C   UNL     1     -12.263  14.790  70.688  1.00  0.00    -0.319 A  
HETATM    4  C   UNL     1     -11.740  15.940  70.109  1.00  0.00    -0.342 A  
HETATM    5  C   UNL     1     -11.267  15.908  68.790  1.00  0.00    -0.359 A  
HETATM    6  C   UNL     1     -11.357  14.743  68.011  1.00  0.00    -0.332 A  
HETATM    7  C   UNL     1     -11.851  13.581  68.622  1.00  0.00    -0.404 A  
HETATM    8  C   UNL     1     -10.868  14.750  66.567  1.00  0.00    -0.319 C  
HETATM    9  C   UNL     1     -10.591  16.179  66.075  1.00  0.00    -0.295 C  
HETATM   10  C   UNL     1      -9.506  14.024  66.481  1.00  0.00    -0.295 C  
HETATM   11  C   UNL     1     -11.866  14.072  65.612  1.00  0.00    -0.384 C  
HETATM   12  C   UNL     1     -12.284  13.605  69.952  1.00  0.00    -0.367 A  
HETATM   13  O   UNL     1     -10.758  16.544  64.914  1.00  0.00    -0.702 OA 
HETATM   14  N   UNL     1      -9.979  16.967  67.032  1.00  0.00    -0.278 N  
HETATM   15  O   UNL     1     -10.388  18.083  69.001  1.00  0.00    -0.350 OA 
HETATM   16  C   UNL     1     -10.521  17.091  68.292  1.00  0.00    -0.363 C  
BRANCH  14  17
HETATM   17  C   UNL     1      -8.910  17.849  66.622  1.00  0.00    -0.268 C  
BRANCH  17  18
HETATM   18  C   UNL     1      -7.697  17.950  67.547  1.00  0.00    -0.217 C  
BRANCH  18  19
HETATM   19  C   UNL     1      -7.263  16.580  68.043  1.00  0.00    -0.152 A  
HETATM   20  C   UNL     1      -6.428  15.744  67.282  1.00  0.00    -0.139 A  
HETATM   21  C   UNL     1      -6.090  14.467  67.727  1.00  0.00    -0.132 A  
HETATM   22  C   UNL     1      -6.558  14.027  68.960  1.00  0.00    -0.106 A  
HETATM   23  C   UNL     1      -7.702  16.128  69.296  1.00  0.00    -0.210 A  
HETATM   24  C   UNL     1      -7.363  14.850  69.748  1.00  0.00    -0.100 A  
BRANCH  22  25
HETATM   25  S   UNL     1      -6.161  12.383  69.492  1.00  0.00    -0.126 S  
HETATM   26  O   UNL     1      -5.188  11.806  68.589  1.00  0.00    -0.046 OA 
HETATM   27  O   UNL     1      -5.895  12.443  70.915  1.00  0.00    -0.321 OA 
BRANCH  25  28
HETATM   28  N   UNL     1      -7.605  11.577  69.355  1.00  0.00    -0.352 N  
HETATM   29  H   UNL     1      -8.446  12.045  69.694  1.00  0.00     0.000 HD 
BRANCH  28  30
HETATM   30  C   UNL     1      -7.747  10.315  68.812  1.00  0.00    -0.096 C  
HETATM   31  O   UNL     1      -7.669   9.282  69.456  1.00  0.00    -0.075 OA 
BRANCH  30  32
HETATM   32  N   UNL     1      -7.977  10.357  67.471  1.00  0.00    -0.106 N  
HETATM   33  H   UNL     1      -7.625  11.147  66.930  1.00  0.00     0.000 HD 
BRANCH  32  34
HETATM   34  C   UNL     1      -8.715   9.299  66.791  1.00  0.00    -0.127 C  
HETATM   35  C   UNL     1     -10.225   9.430  67.025  1.00  0.00    -0.322 C  
HETATM   36  C   UNL     1     -10.793  10.685  66.365  1.00  0.00    -0.132 C  
HETATM   37  C   UNL     1     -10.448  10.760  64.880  1.00  0.00    -0.324 C  
HETATM   38  C   UNL     1      -8.961  10.552  64.597  1.00  0.00    -0.229 C  
HETATM   39  C   UNL     1      -8.410   9.306  65.290  1.00  0.00    -0.151 C  
ENDBRANCH  32  34
ENDBRANCH  30  32
ENDBRANCH  28  30
ENDBRANCH  25  28
ENDBRANCH  22  25
ENDBRANCH  18  19
ENDBRANCH  17  18
ENDBRANCH  14  17
ENDBRANCH   2   3
TORSDOF 9
ENDMDL
MODEL       16
REMARK 921   NORMALIZED FREE ENERGY PREDICTED BY IDOCK:   -6.74 KCAL/MOL
REMARK 922        TOTAL FREE ENERGY PREDICTED BY IDOCK:  -12.43 KCAL/MOL
REMARK 923 INTER-LIGAND FREE ENERGY PREDICTED BY IDOCK:  -10.03 KCAL/MOL
REMARK 924 INTRA-LIGAND FREE ENERGY PREDICTED BY IDOCK:   -2.40 KCAL/MOL
REMARK 927      BINDING AFFINITY PREDICTED BY RF-SCORE:    0.00 PKD
ROOT
HETATM    1  C   UNL     1     -13.905  13.932  72.161  1.00  0.00    -0.541 C  
HETATM    2  O   UNL     1     -13.102  15.071  71.864  1.00  0.00    -0.310 OA 
ENDROOT
BRANCH   2   3
HETATM    3  C   UNL     1     -12.560  15.094  70.610  1.00  0.00    -0.395 A  
HETATM    4  C   UNL     1     -11.881  16.173  70.056  1.00  0.00    -0.129 A  
HETATM    5  C   UNL     1     -11.326  16.069  68.774  1.00  0.00    -0.380 A  
HETATM    6  C   UNL     1     -11.486  14.906  68.002  1.00  0.00    -0.355 A  
HETATM    7  C   UNL     1     -12.139  13.813  68.590  1.00  0.00    -0.333 A  
HETATM    8  C   UNL     1     -10.903  14.836  66.595  1.00  0.00    -0.319 C  
HETATM    9  C   UNL     1     -10.445  16.220  66.109  1.00  0.00    -0.322 C  
HETATM   10  C   UNL     1      -9.622  13.971  66.610  1.00  0.00    -0.299 C  
HETATM   11  C   UNL     1     -11.900  14.250  65.581  1.00  0.00    -0.373 C  
HETATM   12  C   UNL     1     -12.656  13.905  69.886  1.00  0.00    -0.172 A  
HETATM   13  O   UNL     1     -10.494  16.580  64.934  1.00  0.00    -0.653 OA 
HETATM   14  N   UNL     1      -9.819  16.957  67.096  1.00  0.00    -0.263 N  
HETATM   15  O   UNL     1     -10.240  18.144  69.021  1.00  0.00    -0.381 OA 
HETATM   16  C   UNL     1     -10.429  17.159  68.315  1.00  0.00    -0.373 C  
BRANCH  14  17
HETATM   17  C   UNL     1      -8.638  17.715  66.752  1.00  0.00    -0.255 C  
BRANCH  17  18
HETATM   18  C   UNL     1      -7.471  17.673  67.739  1.00  0.00    -0.205 C  
BRANCH  18  19
HETATM   19  C   UNL     1      -7.145  16.247  68.152  1.00  0.00    -0.141 A  
HETATM   20  C   UNL     1      -6.336  15.411  67.363  1.00  0.00    -0.070 A  
HETATM   21  C   UNL     1      -6.098  14.087  67.728  1.00  0.00    -0.134 A  
HETATM   22  C   UNL     1      -6.642  13.596  68.910  1.00  0.00    -0.105 A  
HETATM   23  C   UNL     1      -7.662  15.741  69.353  1.00  0.00    -0.213 A  
HETATM   24  C   UNL     1      -7.423  14.415  69.725  1.00  0.00     0.176 A  
BRANCH  22  25
HETATM   25  S   UNL     1      -6.372  11.897  69.339  1.00  0.00    -0.122 S  
HETATM   26  O   UNL     1      -5.572  11.263  68.312  1.00  0.00    -0.046 OA 
HETATM   27  O   UNL     1      -5.948  11.863  70.723  1.00  0.00    -0.330 OA 
BRANCH  25  28
HETATM   28  N   UNL     1      -7.903  11.255  69.338  1.00  0.00    -0.368 N  
HETATM   29  H   UNL     1      -8.653  11.814  68.932  1.00  0.00     0.000 HD 
BRANCH  28  30
HETATM   30  C   UNL     1      -8.230  10.014  69.849  1.00  0.00    -0.159 C  
HETATM   31  O   UNL     1      -7.517   9.027  69.756  1.00  0.00    -0.057 OA 
BRANCH  30  32
HETATM   32  N   UNL     1      -9.443  10.018  70.465  1.00  0.00    -0.301 N  
HETATM   33  H   UNL     1      -9.548  10.502  71.357  1.00  0.00     0.000 HD 
BRANCH  32  34
HETATM   34  C   UNL     1     -10.598   9.347  69.878  1.00  0.00    -0.234 C  
HETATM   35  C   UNL     1     -10.844   7.981  70.532  1.00  0.00    -0.241 C  
HETATM   36  C   UNL     1     -11.270   8.123  71.992  1.00  0.00    -0.372 C  
HETATM   37  C   UNL     1     -12.475   9.046  72.153  1.00  0.00    -0.450 C  
HETATM   38  C   UNL     1     -12.302  10.389  71.445  1.00  0.00    -0.500 C  
HETATM   39  C   UNL     1     -11.849  10.222  69.995  1.00  0.00    -0.305 C  
ENDBRANCH  32  34
ENDBRANCH  30  32
ENDBRANCH  28  30
ENDBRANCH  25  28
ENDBRANCH  22  25
ENDBRANCH  18  19
ENDBRANCH  17  18
ENDBRANCH  14  17
ENDBRANCH   2   3
TORSDOF 9
ENDMDL
MODEL       17
REMARK 921   NORMALIZED FREE ENERGY PREDICTED BY IDOCK:   -6.63 KCAL/MOL
REMARK 922        TOTAL FREE ENERGY PREDICTED BY IDOCK:  -12.27 KCAL/MOL
REMARK 923 INTER-LIGAND FREE ENERGY PREDICTED BY IDOCK:  -10.13 KCAL/MOL
REMARK 924 INTRA-LIGAND FREE ENERGY PREDICTED BY IDOCK:   -2.14 KCAL/MOL
REMARK 927      BINDING AFFINITY PREDICTED BY RF-SCORE:    0.00 PKD
ROOT
HETATM    1  C   UNL     1     -13.048  14.259  71.811  1.00  0.00    -0.359 C  
HETATM    2  O   UNL     1     -12.604  13.550  70.656  1.00  0.00    -0.320 OA 
ENDROOT
BRANCH   2   3
HETATM    3  C   UNL     1     -12.425  12.206  70.827  1.00  0.00    -0.271 A  
HETATM    4  C   UNL     1     -11.418  11.456  70.232  1.00  0.00    -0.244 A  
HETATM    5  C   UNL     1     -11.303  10.088  70.516  1.00  0.00    -0.409 A  
HETATM    6  C   UNL     1     -12.223   9.436  71.354  1.00  0.00    -0.438 A  
HETATM    7  C   UNL     1     -13.209  10.216  71.977  1.00  0.00    -0.534 A  
HETATM    8  C   UNL     1     -12.093   7.940  71.614  1.00  0.00    -0.333 C  
HETATM    9  C   UNL     1     -11.090   7.288  70.650  1.00  0.00    -0.264 C  
HETATM   10  C   UNL     1     -11.504   7.710  73.024  1.00  0.00    -0.265 C  
HETATM   11  C   UNL     1     -13.444   7.212  71.504  1.00  0.00    -0.411 C  
HETATM   12  C   UNL     1     -13.296  11.589  71.725  1.00  0.00    -0.356 A  
HETATM   13  O   UNL     1     -11.197   6.138  70.229  1.00  0.00    -0.343 OA 
HETATM   14  N   UNL     1      -9.968   8.067  70.435  1.00  0.00    -0.188 N  
HETATM   15  O   UNL     1      -9.256   9.970  69.357  1.00  0.00    -0.191 OA 
HETATM   16  C   UNL     1     -10.090   9.379  70.035  1.00  0.00    -0.226 C  
BRANCH  14  17
HETATM   17  C   UNL     1      -8.675   7.422  70.393  1.00  0.00    -0.145 C  
BRANCH  17  18
HETATM   18  C   UNL     1      -8.414   6.462  69.232  1.00  0.00    -0.126 C  
BRANCH  18  19
HETATM   19  C   UNL     1      -8.421   7.190  67.897  1.00  0.00    -0.121 A  
HETATM   20  C   UNL     1      -7.258   7.772  67.361  1.00  0.00    -0.091 A  
HETATM   21  C   UNL     1      -7.298   8.488  66.166  1.00  0.00    -0.081 A  
HETATM   22  C   UNL     1      -8.500   8.599  65.475  1.00  0.00    -0.165 A  
HETATM   23  C   UNL     1      -9.616   7.291  67.172  1.00  0.00    -0.203 A  
HETATM   24  C   UNL     1      -9.661   8.004  65.972  1.00  0.00    -0.072 A  
BRANCH  22  25
HETATM   25  S   UNL     1      -8.547   9.552  63.981  1.00  0.00    -0.212 S  
HETATM   26  O   UNL     1      -7.518  10.569  64.027  1.00  0.00    -0.047 OA 
HETATM   27  O   UNL     1      -8.606   8.618  62.875  1.00  0.00    -0.166 OA 
BRANCH  25  28
HETATM   28  N   UNL     1     -10.046  10.263  64.029  1.00  0.00    -0.464 N  
HETATM   29  H   UNL     1     -10.861   9.653  64.088  1.00  0.00     0.000 HD 
BRANCH  28  30
HETATM   30  C   UNL     1     -10.265  11.626  63.994  1.00  0.00    -0.346 C  
HETATM   31  O   UNL     1     -10.891  12.195  63.113  1.00  0.00    -0.366 OA 
BRANCH  30  32
HETATM   32  N   UNL     1      -9.696  12.264  65.053  1.00  0.00    -0.450 N  
HETATM   33  H   UNL     1      -8.937  12.925  64.887  1.00  0.00     0.000 HD 
BRANCH  32  34
HETATM   34  C   UNL     1     -10.147  12.024  66.419  1.00  0.00    -0.218 C  
HETATM   35  C   UNL     1      -9.489  12.998  67.405  1.00  0.00    -0.210 C  
HETATM   36  C   UNL     1      -9.947  14.436  67.170  1.00  0.00    -0.253 C  
HETATM   37  C   UNL     1     -11.468  14.565  67.186  1.00  0.00    -0.383 C  
HETATM   38  C   UNL     1     -12.167  13.555  66.277  1.00  0.00    -0.468 C  
HETATM   39  C   UNL     1     -11.672  12.128  66.511  1.00  0.00    -0.392 C  
ENDBRANCH  32  34
ENDBRANCH  30  32
ENDBRANCH  28  30
ENDBRANCH  25  28
ENDBRANCH  22  25
ENDBRANCH  18  19
ENDBRANCH  17  18
ENDBRANCH  14  17
ENDBRANCH   2   3
TORSDOF 9
ENDMDL
MODEL       18
REMARK 921   NORMALIZED FREE ENERGY PREDICTED BY IDOCK:   -6.61 KCAL/MOL
REMARK 922        TOTAL FREE ENERGY PREDICTED BY IDOCK:  -12.23 KCAL/MOL
REMARK 923 INTER-LIGAND FREE ENERGY PREDICTED BY IDOCK:  -10.24 KCAL/MOL
REMARK 924 INTRA-LIGAND FREE ENERGY PREDICTED BY IDOCK:   -1.99 KCAL/MOL
REMARK 927      BINDING AFFINITY PREDICTED BY RF-SCORE:    0.00 PKD
ROOT
HETATM    1  C   UNL     1     -14.346   7.649  71.666  1.00  0.00    -0.477 C  
HETATM    2  O   UNL     1     -13.235   8.424  72.110  1.00  0.00    -0.335 OA 
ENDROOT
BRANCH   2   3
HETATM    3  C   UNL     1     -12.024   8.061  71.593  1.00  0.00    -0.298 A  
HETATM    4  C   UNL     1     -11.844   7.359  70.406  1.00  0.00    -0.114 A  
HETATM    5  C   UNL     1     -10.550   7.079  69.947  1.00  0.00    -0.249 A  
HETATM    6  C   UNL     1      -9.416   7.446  70.691  1.00  0.00    -0.164 A  
HETATM    7  C   UNL     1      -9.614   8.188  71.865  1.00  0.00    -0.264 A  
HETATM    8  C   UNL     1      -8.022   7.095  70.184  1.00  0.00    -0.113 C  
HETATM    9  C   UNL     1      -8.085   6.099  69.016  1.00  0.00    -0.112 C  
HETATM   10  C   UNL     1      -7.352   8.358  69.600  1.00  0.00    -0.072 C  
HETATM   11  C   UNL     1      -7.129   6.514  71.294  1.00  0.00    -0.077 C  
HETATM   12  C   UNL     1     -10.905   8.503  72.300  1.00  0.00    -0.418 A  
HETATM   13  O   UNL     1      -7.232   5.239  68.806  1.00  0.00    -0.063 OA 
HETATM   14  N   UNL     1      -9.110   6.375  68.130  1.00  0.00    -0.115 N  
HETATM   15  O   UNL     1     -11.396   6.268  67.905  1.00  0.00    -0.257 OA 
HETATM   16  C   UNL     1     -10.404   6.526  68.577  1.00  0.00    -0.192 C  
BRANCH  14  17
HETATM   17  C   UNL     1      -8.851   6.256  66.712  1.00  0.00    -0.126 C  
BRANCH  17  18
HETATM   18  C   UNL     1      -7.920   7.293  66.085  1.00  0.00    -0.112 C  
BRANCH  18  19
HETATM   19  C   UNL     1      -8.676   8.555  65.700  1.00  0.00    -0.213 A  
HETATM   20  C   UNL     1      -9.381   9.319  66.647  1.00  0.00    -0.219 A  
HETATM   21  C   UNL     1     -10.118  10.438  66.264  1.00  0.00    -0.292 A  
HETATM   22  C   UNL     1     -10.127  10.826  64.928  1.00  0.00    -0.322 A  
HETATM   23  C   UNL     1      -8.676   8.979  64.364  1.00  0.00    -0.151 A  
HETATM   24  C   UNL     1      -9.409  10.103  63.975  1.00  0.00    -0.339 A  
BRANCH  22  25
HETATM   25  S   UNL     1     -11.106  12.223  64.447  1.00  0.00    -0.356 S  
HETATM   26  O   UNL     1     -10.235  13.338  64.140  1.00  0.00    -0.371 OA 
HETATM   27  O   UNL     1     -12.072  11.758  63.473  1.00  0.00    -0.491 OA 
BRANCH  25  28
HETATM   28  N   UNL     1     -11.991  12.558  65.810  1.00  0.00    -0.435 N  
HETATM   29  H   UNL     1     -12.070  11.827  66.518  1.00  0.00     0.000 HD 
BRANCH  28  30
HETATM   30  C   UNL     1     -12.628  13.759  66.053  1.00  0.00    -0.408 C  
HETATM   31  O   UNL     1     -13.385  14.302  65.265  1.00  0.00    -0.660 OA 
BRANCH  30  32
HETATM   32  N   UNL     1     -12.308  14.271  67.273  1.00  0.00    -0.592 N  
HETATM   33  H   UNL     1     -12.640  15.201  67.525  1.00  0.00     0.000 HD 
BRANCH  32  34
HETATM   34  C   UNL     1     -11.502  13.518  68.228  1.00  0.00    -0.310 C  
HETATM   35  C   UNL     1     -10.090  14.106  68.354  1.00  0.00    -0.238 C  
HETATM   36  C   UNL     1     -10.111  15.496  68.986  1.00  0.00    -0.234 C  
HETATM   37  C   UNL     1     -10.845  15.508  70.324  1.00  0.00    -0.358 C  
HETATM   38  C   UNL     1     -12.226  14.857  70.259  1.00  0.00    -0.389 C  
HETATM   39  C   UNL     1     -12.183  13.480  69.598  1.00  0.00    -0.304 C  
ENDBRANCH  32  34
ENDBRANCH  30  32
ENDBRANCH  28  30
ENDBRANCH  25  28
ENDBRANCH  22  25
ENDBRANCH  18  19
ENDBRANCH  17  18
ENDBRANCH  14  17
ENDBRANCH   2   3
TORSDOF 9
ENDMDL
MODEL       19
REMARK 921   NORMALIZED FREE ENERGY PREDICTED BY IDOCK:   -6.61 KCAL/MOL
REMARK 922        TOTAL FREE ENERGY PREDICTED BY IDOCK:  -12.23 KCAL/MOL
REMARK 923 INTER-LIGAND FREE ENERGY PREDICTED BY IDOCK:  -10.60 KCAL/MOL
REMARK 924 INTRA-LIGAND FREE ENERGY PREDICTED BY IDOCK:   -1.63 KCAL/MOL
REMARK 927      BINDING AFFINITY PREDICTED BY RF-SCORE:    0.00 PKD
ROOT
HETATM    1  C   UNL     1      -7.181  19.864  68.212  1.00  0.00    -0.299 C  
HETATM    2  O   UNL     1      -7.725  19.694  66.906  1.00  0.00    -0.247 OA 
ENDROOT
BRANCH   2   3
HETATM    3  C   UNL     1      -8.388  18.517  66.697  1.00  0.00    -0.272 A  
HETATM    4  C   UNL     1      -7.842  17.253  66.883  1.00  0.00    -0.251 A  
HETATM    5  C   UNL     1      -8.631  16.112  66.682  1.00  0.00    -0.311 A  
HETATM    6  C   UNL     1      -9.960  16.213  66.240  1.00  0.00    -0.336 A  
HETATM    7  C   UNL     1     -10.508  17.496  66.095  1.00  0.00    -0.288 A  
HETATM    8  C   UNL     1     -10.781  14.952  65.994  1.00  0.00    -0.326 C  
HETATM    9  C   UNL     1      -9.897  13.696  66.002  1.00  0.00    -0.276 C  
HETATM   10  C   UNL     1     -11.778  14.750  67.157  1.00  0.00    -0.351 C  
HETATM   11  C   UNL     1     -11.557  15.014  64.666  1.00  0.00    -0.386 C  
HETATM   12  C   UNL     1      -9.731  18.633  66.337  1.00  0.00    -0.363 A  
HETATM   13  O   UNL     1     -10.113  12.705  65.308  1.00  0.00    -0.284 OA 
HETATM   14  N   UNL     1      -8.930  13.726  66.989  1.00  0.00    -0.237 N  
HETATM   15  O   UNL     1      -6.935  14.726  67.549  1.00  0.00    -0.175 OA 
HETATM   16  C   UNL     1      -8.075  14.801  67.102  1.00  0.00    -0.197 C  
BRANCH  14  17
HETATM   17  C   UNL     1      -8.665  12.519  67.737  1.00  0.00    -0.178 C  
BRANCH  17  18
HETATM   18  C   UNL     1      -7.771  11.471  67.074  1.00  0.00    -0.158 C  
BRANCH  18  19
HETATM   19  C   UNL     1      -8.370  10.078  67.188  1.00  0.00    -0.121 A  
HETATM   20  C   UNL     1      -9.577   9.734  66.555  1.00  0.00    -0.249 A  
HETATM   21  C   UNL     1     -10.141   8.469  66.722  1.00  0.00    -0.369 A  
HETATM   22  C   UNL     1      -9.481   7.523  67.498  1.00  0.00    -0.139 A  
HETATM   23  C   UNL     1      -7.706   9.102  67.944  1.00  0.00    -0.093 A  
HETATM   24  C   UNL     1      -8.265   7.832  68.111  1.00  0.00    -0.124 A  
BRANCH  22  25
HETATM   25  S   UNL     1     -10.232   5.936  67.741  1.00  0.00    -0.205 S  
HETATM   26  O   UNL     1     -10.821   5.487  66.497  1.00  0.00    -0.288 OA 
HETATM   27  O   UNL     1      -9.272   5.106  68.439  1.00  0.00    -0.110 OA 
BRANCH  25  28
HETATM   28  N   UNL     1     -11.427   6.245  68.851  1.00  0.00    -0.495 N  
HETATM   29  H   UNL     1     -12.392   6.253  68.521  1.00  0.00     0.000 HD 
BRANCH  28  30
HETATM   30  C   UNL     1     -11.203   6.491  70.192  1.00  0.00    -0.377 C  
HETATM   31  O   UNL     1     -10.461   5.823  70.894  1.00  0.00    -0.226 OA 
BRANCH  30  32
HETATM   32  N   UNL     1     -11.913   7.561  70.641  1.00  0.00    -0.491 N  
HETATM   33  H   UNL     1     -12.857   7.718  70.287  1.00  0.00     0.000 HD 
BRANCH  32  34
HETATM   34  C   UNL     1     -11.355   8.490  71.618  1.00  0.00    -0.295 C  
HETATM   35  C   UNL     1     -10.287   9.392  70.986  1.00  0.00    -0.382 C  
HETATM   36  C   UNL     1     -10.890  10.344  69.954  1.00  0.00    -0.353 C  
HETATM   37  C   UNL     1     -12.044  11.160  70.531  1.00  0.00    -0.474 C  
HETATM   38  C   UNL     1     -13.091  10.304  71.242  1.00  0.00    -0.492 C  
HETATM   39  C   UNL     1     -12.461   9.341  72.248  1.00  0.00    -0.377 C  
ENDBRANCH  32  34
ENDBRANCH  30  32
ENDBRANCH  28  30
ENDBRANCH  25  28
ENDBRANCH  22  25
ENDBRANCH  18  19
ENDBRANCH  17  18
ENDBRANCH  14  17
ENDBRANCH   2   3
TORSDOF 9
ENDMDL
MODEL       20
REMARK 921   NORMALIZED FREE ENERGY PREDICTED BY IDOCK:   -6.59 KCAL/MOL
REMARK 922        TOTAL FREE ENERGY PREDICTED BY IDOCK:  -12.20 KCAL/MOL
REMARK 923 INTER-LIGAND FREE ENERGY PREDICTED BY IDOCK:   -9.42 KCAL/MOL
REMARK 924 INTRA-LIGAND FREE ENERGY PREDICTED BY IDOCK:   -2.78 KCAL/MOL
REMARK 927      BINDING AFFINITY PREDICTED BY RF-SCORE:    0.00 PKD
ROOT
HETATM    1  C   UNL     1     -12.270  15.689  64.037  1.00  0.00     0.174 C  
HETATM    2  O   UNL     1     -12.498  14.310  63.761  1.00  0.00    -0.810 OA 
ENDROOT
BRANCH   2   3
HETATM    3  C   UNL     1     -11.926  13.435  64.641  1.00  0.00    -0.399 A  
HETATM    4  C   UNL     1     -11.971  13.556  66.025  1.00  0.00    -0.449 A  
HETATM    5  C   UNL     1     -11.387  12.572  66.834  1.00  0.00    -0.383 A  
HETATM    6  C   UNL     1     -10.702  11.480  66.275  1.00  0.00    -0.321 A  
HETATM    7  C   UNL     1     -10.700  11.352  64.878  1.00  0.00    -0.350 A  
HETATM    8  C   UNL     1     -10.044  10.445  67.181  1.00  0.00    -0.254 C  
HETATM    9  C   UNL     1      -9.992  10.929  68.639  1.00  0.00    -0.189 C  
HETATM   10  C   UNL     1     -10.907   9.164  67.213  1.00  0.00    -0.121 C  
HETATM   11  C   UNL     1      -8.621  10.087  66.718  1.00  0.00    -0.129 C  
HETATM   12  C   UNL     1     -11.320  12.314  64.074  1.00  0.00    -0.469 A  
HETATM   13  O   UNL     1      -9.087  10.644  69.419  1.00  0.00    -0.152 OA 
HETATM   14  N   UNL     1     -11.148  11.577  69.031  1.00  0.00    -0.229 N  
HETATM   15  O   UNL     1     -12.303  13.549  68.770  1.00  0.00    -0.235 OA 
HETATM   16  C   UNL     1     -11.648  12.628  68.294  1.00  0.00    -0.332 C  
BRANCH  14  17
HETATM   17  C   UNL     1     -11.683  11.306  70.346  1.00  0.00    -0.304 C  
BRANCH  17  18
HETATM   18  C   UNL     1     -12.757  10.224  70.451  1.00  0.00    -0.243 C  
BRANCH  18  19
HETATM   19  C   UNL     1     -12.242   9.000  71.189  1.00  0.00    -0.331 A  
HETATM   20  C   UNL     1     -11.052   9.028  71.937  1.00  0.00    -0.433 A  
HETATM   21  C   UNL     1     -10.564   7.879  72.557  1.00  0.00    -0.378 A  
HETATM   22  C   UNL     1     -11.284   6.693  72.463  1.00  0.00    -0.266 A  
HETATM   23  C   UNL     1     -12.967   7.801  71.130  1.00  0.00    -0.172 A  
HETATM   24  C   UNL     1     -12.485   6.647  71.753  1.00  0.00    -0.360 A  
BRANCH  22  25
HETATM   25  S   UNL     1     -10.629   5.228  73.215  1.00  0.00    -0.270 S  
HETATM   26  O   UNL     1      -9.625   5.596  74.191  1.00  0.00    -0.139 OA 
HETATM   27  O   UNL     1     -11.754   4.399  73.599  1.00  0.00    -0.168 OA 
BRANCH  25  28
HETATM   28  N   UNL     1      -9.917   4.432  71.945  1.00  0.00    -0.183 N  
HETATM   29  H   UNL     1     -10.268   3.503  71.708  1.00  0.00     0.000 HD 
BRANCH  28  30
HETATM   30  C   UNL     1      -8.882   4.941  71.185  1.00  0.00    -0.127 C  
HETATM   31  O   UNL     1      -7.795   5.261  71.639  1.00  0.00    -0.105 OA 
BRANCH  30  32
HETATM   32  N   UNL     1      -9.217   5.050  69.871  1.00  0.00    -0.118 N  
HETATM   33  H   UNL     1      -9.137   4.232  69.267  1.00  0.00     0.000 HD 
BRANCH  32  34
HETATM   34  C   UNL     1      -9.689   6.309  69.306  1.00  0.00    -0.136 C  
HETATM   35  C   UNL     1      -8.540   7.104  68.673  1.00  0.00    -0.124 C  
HETATM   36  C   UNL     1      -7.976   6.398  67.441  1.00  0.00    -0.116 C  
HETATM   37  C   UNL     1      -9.062   6.071  66.419  1.00  0.00    -0.159 C  
HETATM   38  C   UNL     1     -10.263   5.350  67.027  1.00  0.00    -0.274 C  
HETATM   39  C   UNL     1     -10.791   6.060  68.274  1.00  0.00    -0.366 C  
ENDBRANCH  32  34
ENDBRANCH  30  32
ENDBRANCH  28  30
ENDBRANCH  25  28
ENDBRANCH  22  25
ENDBRANCH  18  19
ENDBRANCH  17  18
ENDBRANCH  14  17
ENDBRANCH   2   3
TORSDOF 9
ENDMDL
MODEL       21
REMARK 921   NORMALIZED FREE ENERGY PREDICTED BY IDOCK:   -6.57 KCAL/MOL
REMARK 922        TOTAL FREE ENERGY PREDICTED BY IDOCK:  -12.17 KCAL/MOL
REMARK 923 INTER-LIGAND FREE ENERGY PREDICTED BY IDOCK:  -10.83 KCAL/MOL
REMARK 924 INTRA-LIGAND FREE ENERGY PREDICTED BY IDOCK:   -1.34 KCAL/MOL
REMARK 927      BINDING AFFINITY PREDICTED BY RF-SCORE:    0.00 PKD
ROOT
HETATM    1  C   UNL     1      -5.618   7.620  73.997  1.00  0.00    -0.053 C  
HETATM    2  O   UNL     1      -6.898   7.266  74.514  1.00  0.00    -0.095 OA 
ENDROOT
BRANCH   2   3
HETATM    3  C   UNL     1      -7.962   7.615  73.730  1.00  0.00    -0.152 A  
HETATM    4  C   UNL     1      -7.891   8.442  72.616  1.00  0.00    -0.144 A  
HETATM    5  C   UNL     1      -9.042   8.697  71.858  1.00  0.00    -0.326 A  
HETATM    6  C   UNL     1     -10.292   8.174  72.229  1.00  0.00    -0.361 A  
HETATM    7  C   UNL     1     -10.339   7.309  73.333  1.00  0.00    -0.410 A  
HETATM    8  C   UNL     1     -11.532   8.499  71.406  1.00  0.00    -0.344 C  
HETATM    9  C   UNL     1     -11.259   9.631  70.404  1.00  0.00    -0.283 C  
HETATM   10  C   UNL     1     -11.911   7.277  70.539  1.00  0.00    -0.237 C  
HETATM   11  C   UNL     1     -12.731   8.886  72.289  1.00  0.00    -0.464 C  
HETATM   12  C   UNL     1      -9.181   7.023  74.063  1.00  0.00    -0.261 A  
HETATM   13  O   UNL     1     -12.103  10.457  70.060  1.00  0.00    -0.267 OA 
HETATM   14  N   UNL     1     -10.019   9.528  69.801  1.00  0.00    -0.199 N  
HETATM   15  O   UNL     1      -7.772   9.800  70.210  1.00  0.00    -0.158 OA 
HETATM   16  C   UNL     1      -8.877   9.402  70.561  1.00  0.00    -0.239 C  
BRANCH  14  17
HETATM   17  C   UNL     1      -9.911   9.802  68.386  1.00  0.00    -0.152 C  
BRANCH  17  18
HETATM   18  C   UNL     1     -11.117  10.453  67.709  1.00  0.00    -0.365 C  
BRANCH  18  19
HETATM   19  C   UNL     1     -10.800  11.869  67.255  1.00  0.00    -0.294 A  
HETATM   20  C   UNL     1      -9.517  12.425  67.394  1.00  0.00    -0.186 A  
HETATM   21  C   UNL     1      -9.261  13.746  67.028  1.00  0.00    -0.256 A  
HETATM   22  C   UNL     1     -10.285  14.515  66.485  1.00  0.00    -0.279 A  
HETATM   23  C   UNL     1     -11.812  12.652  66.681  1.00  0.00    -0.449 A  
HETATM   24  C   UNL     1     -11.560  13.975  66.309  1.00  0.00    -0.379 A  
BRANCH  22  25
HETATM   25  S   UNL     1      -9.960  16.207  66.068  1.00  0.00    -0.367 S  
HETATM   26  O   UNL     1      -8.550  16.483  66.241  1.00  0.00    -0.288 OA 
HETATM   27  O   UNL     1     -10.608  16.471  64.799  1.00  0.00    -0.684 OA 
BRANCH  25  28
HETATM   28  N   UNL     1     -10.842  17.053  67.190  1.00  0.00    -0.161 N  
HETATM   29  H   UNL     1     -11.690  17.524  66.873  1.00  0.00     0.000 HD 
BRANCH  28  30
HETATM   30  C   UNL     1     -10.507  17.164  68.526  1.00  0.00    -0.377 C  
HETATM   31  O   UNL     1      -9.511  17.737  68.935  1.00  0.00    -0.262 OA 
BRANCH  30  32
HETATM   32  N   UNL     1     -11.416  16.552  69.334  1.00  0.00    -0.261 N  
HETATM   33  H   UNL     1     -12.411  16.662  69.138  1.00  0.00     0.000 HD 
BRANCH  32  34
HETATM   34  C   UNL     1     -10.999  15.741  70.473  1.00  0.00    -0.343 C  
HETATM   35  C   UNL     1     -11.798  16.094  71.733  1.00  0.00    -0.581 C  
HETATM   36  C   UNL     1     -13.270  15.710  71.595  1.00  0.00    -0.554 C  
HETATM   37  C   UNL     1     -13.448  14.244  71.211  1.00  0.00    -0.378 C  
HETATM   38  C   UNL     1     -12.604  13.831  70.006  1.00  0.00    -0.207 C  
HETATM   39  C   UNL     1     -11.142  14.250  70.156  1.00  0.00    -0.014 C  
ENDBRANCH  32  34
ENDBRANCH  30  32
ENDBRANCH  28  30
ENDBRANCH  25  28
ENDBRANCH  22  25
ENDBRANCH  18  19
ENDBRANCH  17  18
ENDBRANCH  14  17
ENDBRANCH   2   3
TORSDOF 9
ENDMDL
MODEL       22
REMARK 921   NORMALIZED FREE ENERGY PREDICTED BY IDOCK:   -6.55 KCAL/MOL
REMARK 922        TOTAL FREE ENERGY PREDICTED BY IDOCK:  -12.15 KCAL/MOL
REMARK 923 INTER-LIGAND FREE ENERGY PREDICTED BY IDOCK:  -11.61 KCAL/MOL
REMARK 924 INTRA-LIGAND FREE ENERGY PREDICTED BY IDOCK:   -0.54 KCAL/MOL
REMARK 927      BINDING AFFINITY PREDICTED BY RF-SCORE:    0.00 PKD
ROOT
HETATM    1  C   UNL     1     -10.522   5.927  74.357  1.00  0.00    -0.163 C  
HETATM    2  O   UNL     1     -11.104   4.972  73.474  1.00  0.00    -0.304 OA 
ENDROOT
BRANCH   2   3
HETATM    3  C   UNL     1     -10.598   4.965  72.204  1.00  0.00    -0.164 A  
HETATM    4  C   UNL     1     -10.681   6.026  71.309  1.00  0.00    -0.320 A  
HETATM    5  C   UNL     1     -10.086   5.924  70.045  1.00  0.00    -0.258 A  
HETATM    6  C   UNL     1      -9.445   4.744  69.632  1.00  0.00    -0.223 A  
HETATM    7  C   UNL     1      -9.336   3.698  70.561  1.00  0.00    -0.231 A  
HETATM    8  C   UNL     1      -8.839   4.651  68.237  1.00  0.00    -0.122 C  
HETATM    9  C   UNL     1      -9.287   5.824  67.351  1.00  0.00    -0.112 C  
HETATM   10  C   UNL     1      -7.302   4.783  68.332  1.00  0.00    -0.065 C  
HETATM   11  C   UNL     1      -9.192   3.327  67.537  1.00  0.00    -0.233 C  
HETATM   12  C   UNL     1      -9.895   3.818  71.837  1.00  0.00    -0.248 A  
HETATM   13  O   UNL     1      -9.459   5.735  66.138  1.00  0.00    -0.159 OA 
HETATM   14  N   UNL     1      -9.316   7.028  68.029  1.00  0.00    -0.128 N  
HETATM   15  O   UNL     1     -10.514   8.198  69.606  1.00  0.00    -0.219 OA 
HETATM   16  C   UNL     1     -10.009   7.152  69.213  1.00  0.00    -0.168 C  
BRANCH  14  17
HETATM   17  C   UNL     1      -8.822   8.212  67.362  1.00  0.00    -0.127 C  
BRANCH  17  18
HETATM   18  C   UNL     1      -9.415   8.535  65.990  1.00  0.00    -0.256 C  
BRANCH  18  19
HETATM   19  C   UNL     1     -10.072   9.905  65.978  1.00  0.00    -0.314 A  
HETATM   20  C   UNL     1     -10.172  10.672  64.804  1.00  0.00    -0.401 A  
HETATM   21  C   UNL     1     -10.723  11.953  64.826  1.00  0.00    -0.356 A  
HETATM   22  C   UNL     1     -11.213  12.465  66.022  1.00  0.00    -0.335 A  
HETATM   23  C   UNL     1     -10.596  10.430  67.168  1.00  0.00    -0.319 A  
HETATM   24  C   UNL     1     -11.153  11.711  67.194  1.00  0.00    -0.354 A  
BRANCH  22  25
HETATM   25  S   UNL     1     -11.867  14.113  66.046  1.00  0.00    -0.412 S  
HETATM   26  O   UNL     1     -12.950  14.214  65.090  1.00  0.00    -0.729 OA 
HETATM   27  O   UNL     1     -12.077  14.474  67.433  1.00  0.00    -0.380 OA 
BRANCH  25  28
HETATM   28  N   UNL     1     -10.585  15.041  65.545  1.00  0.00    -0.335 N  
HETATM   29  H   UNL     1      -9.676  14.587  65.454  1.00  0.00     0.000 HD 
BRANCH  28  30
HETATM   30  C   UNL     1     -10.665  16.386  65.244  1.00  0.00    -0.295 C  
HETATM   31  O   UNL     1     -11.313  16.841  64.315  1.00  0.00    -1.170 OA 
BRANCH  30  32
HETATM   32  N   UNL     1      -9.930  17.147  66.101  1.00  0.00    -0.295 N  
HETATM   33  H   UNL     1      -8.974  17.397  65.851  1.00  0.00     0.000 HD 
BRANCH  32  34
HETATM   34  C   UNL     1     -10.480  17.614  67.369  1.00  0.00    -0.356 C  
HETATM   35  C   UNL     1      -9.555  17.267  68.542  1.00  0.00    -0.291 C  
HETATM   36  C   UNL     1      -8.237  18.036  68.468  1.00  0.00    -0.311 C  
HETATM   37  C   UNL     1      -8.456  19.543  68.352  1.00  0.00    -0.387 C  
HETATM   38  C   UNL     1      -9.438  19.925  67.246  1.00  0.00    -0.487 C  
HETATM   39  C   UNL     1     -10.736  19.122  67.324  1.00  0.00    -0.585 C  
ENDBRANCH  32  34
ENDBRANCH  30  32
ENDBRANCH  28  30
ENDBRANCH  25  28
ENDBRANCH  22  25
ENDBRANCH  18  19
ENDBRANCH  17  18
ENDBRANCH  14  17
ENDBRANCH   2   3
TORSDOF 9
ENDMDL
MODEL       23
REMARK 921   NORMALIZED FREE ENERGY PREDICTED BY IDOCK:   -6.53 KCAL/MOL
REMARK 922        TOTAL FREE ENERGY PREDICTED BY IDOCK:  -12.12 KCAL/MOL
REMARK 923 INTER-LIGAND FREE ENERGY PREDICTED BY IDOCK:   -9.70 KCAL/MOL
REMARK 924 INTRA-LIGAND FREE ENERGY PREDICTED BY IDOCK:   -2.41 KCAL/MOL
REMARK 927      BINDING AFFINITY PREDICTED BY RF-SCORE:    0.00 PKD
ROOT
HETATM    1  C   UNL     1     -13.736   8.007  71.519  1.00  0.00    -0.312 C  
HETATM    2  O   UNL     1     -12.683   8.912  71.839  1.00  0.00    -0.328 OA 
ENDROOT
BRANCH   2   3
HETATM    3  C   UNL     1     -11.484   8.652  71.235  1.00  0.00    -0.283 A  
HETATM    4  C   UNL     1     -11.322   8.343  69.890  1.00  0.00     0.062 A  
HETATM    5  C   UNL     1     -10.038   8.139  69.368  1.00  0.00    -0.194 A  
HETATM    6  C   UNL     1      -8.900   8.186  70.190  1.00  0.00    -0.145 A  
HETATM    7  C   UNL     1      -9.077   8.537  71.536  1.00  0.00    -0.281 A  
HETATM    8  C   UNL     1      -7.519   7.922  69.600  1.00  0.00    -0.092 C  
HETATM    9  C   UNL     1      -7.617   7.343  68.180  1.00  0.00    -0.114 C  
HETATM   10  C   UNL     1      -6.763   9.260  69.437  1.00  0.00    -0.048 C  
HETATM   11  C   UNL     1      -6.685   6.971  70.475  1.00  0.00    -0.053 C  
HETATM   12  C   UNL     1     -10.357   8.782  72.045  1.00  0.00    -0.411 A  
HETATM   13  O   UNL     1      -6.813   6.540  67.714  1.00  0.00    -0.073 OA 
HETATM   14  N   UNL     1      -8.606   7.944  67.422  1.00  0.00    -0.125 N  
HETATM   15  O   UNL     1     -10.890   8.055  67.174  1.00  0.00    -0.278 OA 
HETATM   16  C   UNL     1      -9.897   8.030  67.894  1.00  0.00    -0.167 C  
BRANCH  14  17
HETATM   17  C   UNL     1      -8.326   8.254  66.038  1.00  0.00    -0.128 C  
BRANCH  17  18
HETATM   18  C   UNL     1      -7.601   9.569  65.753  1.00  0.00    -0.100 C  
BRANCH  18  19
HETATM   19  C   UNL     1      -8.450  10.768  66.145  1.00  0.00    -0.167 A  
HETATM   20  C   UNL     1      -9.677  11.046  65.518  1.00  0.00    -0.274 A  
HETATM   21  C   UNL     1     -10.412  12.184  65.848  1.00  0.00    -0.288 A  
HETATM   22  C   UNL     1      -9.940  13.038  66.839  1.00  0.00    -0.243 A  
HETATM   23  C   UNL     1      -8.005  11.627  67.159  1.00  0.00    -0.163 A  
HETATM   24  C   UNL     1      -8.740  12.767  67.497  1.00  0.00    -0.185 A  
BRANCH  22  25
HETATM   25  S   UNL     1     -10.860  14.506  67.216  1.00  0.00    -0.304 S  
HETATM   26  O   UNL     1     -10.028  15.412  67.981  1.00  0.00    -0.219 OA 
HETATM   27  O   UNL     1     -11.489  14.949  65.989  1.00  0.00    -0.343 OA 
BRANCH  25  28
HETATM   28  N   UNL     1     -12.102  13.945  68.164  1.00  0.00    -0.478 N  
HETATM   29  H   UNL     1     -13.056  14.149  67.866  1.00  0.00     0.000 HD 
BRANCH  28  30
HETATM   30  C   UNL     1     -11.932  13.221  69.327  1.00  0.00    -0.303 C  
HETATM   31  O   UNL     1     -12.028  12.006  69.396  1.00  0.00    -0.301 OA 
BRANCH  30  32
HETATM   32  N   UNL     1     -11.650  14.021  70.391  1.00  0.00    -0.490 N  
HETATM   33  H   UNL     1     -11.007  13.687  71.109  1.00  0.00     0.000 HD 
BRANCH  32  34
HETATM   34  C   UNL     1     -12.247  15.345  70.529  1.00  0.00    -0.394 C  
HETATM   35  C   UNL     1     -13.757  15.255  70.782  1.00  0.00    -0.255 C  
HETATM   36  C   UNL     1     -14.066  14.628  72.139  1.00  0.00    -0.604 C  
HETATM   37  C   UNL     1     -13.348  15.344  73.281  1.00  0.00    -0.559 C  
HETATM   38  C   UNL     1     -11.852  15.527  73.030  1.00  0.00    -0.555 C  
HETATM   39  C   UNL     1     -11.568  16.130  71.654  1.00  0.00    -0.503 C  
ENDBRANCH  32  34
ENDBRANCH  30  32
ENDBRANCH  28  30
ENDBRANCH  25  28
ENDBRANCH  22  25
ENDBRANCH  18  19
ENDBRANCH  17  18
ENDBRANCH  14  17
ENDBRANCH   2   3
TORSDOF 9
ENDMDL
MODEL       24
REMARK 921   NORMALIZED FREE ENERGY PREDICTED BY IDOCK:   -6.52 KCAL/MOL
REMARK 922        TOTAL FREE ENERGY PREDICTED BY IDOCK:  -12.10 KCAL/MOL
REMARK 923 INTER-LIGAND FREE ENERGY PREDICTED BY IDOCK:  -10.86 KCAL/MOL
REMARK 924 INTRA-LIGAND FREE ENERGY PREDICTED BY IDOCK:   -1.24 KCAL/MOL
REMARK 927      BINDING AFFINITY PREDICTED BY RF-SCORE:    0.00 PKD
ROOT
HETATM    1  C   UNL     1      -5.168  18.190  71.048  1.00  0.00    -0.260 C  
HETATM    2  O   UNL     1      -5.227  18.703  69.719  1.00  0.00    -0.176 OA 
ENDROOT
BRANCH   2   3
HETATM    3  C   UNL     1      -6.343  18.358  69.008  1.00  0.00    -0.241 A  
HETATM    4  C   UNL     1      -6.505  17.165  68.313  1.00  0.00    -0.153 A  
HETATM    5  C   UNL     1      -7.713  16.897  67.654  1.00  0.00    -0.179 A  
HETATM    6  C   UNL     1      -8.757  17.837  67.633  1.00  0.00    -0.244 A  
HETATM    7  C   UNL     1      -8.592  19.017  68.373  1.00  0.00    -0.383 A  
HETATM    8  C   UNL     1     -10.045  17.532  66.877  1.00  0.00    -0.324 C  
HETATM    9  C   UNL     1      -9.887  16.297  65.977  1.00  0.00    -0.343 C  
HETATM   10  C   UNL     1     -11.157  17.158  67.882  1.00  0.00    -0.087 C  
HETATM   11  C   UNL     1     -10.513  18.722  66.022  1.00  0.00    -0.483 C  
HETATM   12  C   UNL     1      -7.401  19.264  69.064  1.00  0.00    -0.380 A  
HETATM   13  O   UNL     1     -10.463  16.160  64.900  1.00  0.00    -0.605 OA 
HETATM   14  N   UNL     1      -9.165  15.283  66.578  1.00  0.00    -0.269 N  
HETATM   15  O   UNL     1      -7.029  14.692  67.193  1.00  0.00    -0.207 OA 
HETATM   16  C   UNL     1      -7.920  15.530  67.114  1.00  0.00    -0.221 C  
BRANCH  14  17
HETATM   17  C   UNL     1      -9.617  13.919  66.417  1.00  0.00    -0.277 C  
BRANCH  17  18
HETATM   18  C   UNL     1     -11.094  13.639  66.694  1.00  0.00    -0.312 C  
BRANCH  18  19
HETATM   19  C   UNL     1     -11.267  12.671  67.853  1.00  0.00    -0.310 A  
HETATM   20  C   UNL     1     -10.941  11.309  67.740  1.00  0.00    -0.305 A  
HETATM   21  C   UNL     1     -11.164  10.425  68.795  1.00  0.00    -0.295 A  
HETATM   22  C   UNL     1     -11.686  10.906  69.990  1.00  0.00    -0.345 A  
HETATM   23  C   UNL     1     -11.767  13.141  69.076  1.00  0.00    -0.367 A  
HETATM   24  C   UNL     1     -11.989  12.260  70.138  1.00  0.00    -0.377 A  
BRANCH  22  25
HETATM   25  S   UNL     1     -12.010   9.765  71.307  1.00  0.00    -0.410 S  
HETATM   26  O   UNL     1     -10.764   9.408  71.952  1.00  0.00    -0.280 OA 
HETATM   27  O   UNL     1     -13.109  10.301  72.083  1.00  0.00    -0.438 OA 
BRANCH  25  28
HETATM   28  N   UNL     1     -12.637   8.443  70.522  1.00  0.00    -0.229 N  
HETATM   29  H   UNL     1     -13.352   8.606  69.813  1.00  0.00     0.000 HD 
BRANCH  28  30
HETATM   30  C   UNL     1     -12.255   7.138  70.763  1.00  0.00    -0.264 C  
HETATM   31  O   UNL     1     -12.286   6.609  71.862  1.00  0.00    -0.336 OA 
BRANCH  30  32
HETATM   32  N   UNL     1     -11.835   6.511  69.630  1.00  0.00    -0.610 N  
HETATM   33  H   UNL     1     -12.208   5.589  69.403  1.00  0.00     0.000 HD 
BRANCH  32  34
HETATM   34  C   UNL     1     -10.862   7.127  68.734  1.00  0.00    -0.120 C  
HETATM   35  C   UNL     1      -9.448   7.077  69.324  1.00  0.00    -0.147 C  
HETATM   36  C   UNL     1      -8.925   5.645  69.420  1.00  0.00    -0.124 C  
HETATM   37  C   UNL     1      -9.000   4.915  68.082  1.00  0.00    -0.123 C  
HETATM   38  C   UNL     1     -10.374   5.010  67.421  1.00  0.00    -0.174 C  
HETATM   39  C   UNL     1     -10.887   6.448  67.362  1.00  0.00    -0.457 C  
ENDBRANCH  32  34
ENDBRANCH  30  32
ENDBRANCH  28  30
ENDBRANCH  25  28
ENDBRANCH  22  25
ENDBRANCH  18  19
ENDBRANCH  17  18
ENDBRANCH  14  17
ENDBRANCH   2   3
TORSDOF 9
ENDMDL
MODEL       25
REMARK 921   NORMALIZED FREE ENERGY PREDICTED BY IDOCK:   -6.51 KCAL/MOL
REMARK 922        TOTAL FREE ENERGY PREDICTED BY IDOCK:  -12.08 KCAL/MOL
REMARK 923 INTER-LIGAND FREE ENERGY PREDICTED BY IDOCK:   -9.95 KCAL/MOL
REMARK 924 INTRA-LIGAND FREE ENERGY PREDICTED BY IDOCK:   -2.13 KCAL/MOL
REMARK 927      BINDING AFFINITY PREDICTED BY RF-SCORE:    0.00 PKD
ROOT
HETATM    1  C   UNL     1      -8.404   1.720  64.228  1.00  0.00    -0.078 C  
HETATM    2  O   UNL     1      -8.718   3.020  63.735  1.00  0.00    -0.089 OA 
ENDROOT
BRANCH   2   3
HETATM    3  C   UNL     1      -8.894   3.981  64.691  1.00  0.00    -0.131 A  
HETATM    4  C   UNL     1      -7.911   4.866  65.119  1.00  0.00    -0.092 A  
HETATM    5  C   UNL     1      -8.216   5.843  66.076  1.00  0.00    -0.123 A  
HETATM    6  C   UNL     1      -9.490   5.919  66.661  1.00  0.00    -0.165 A  
HETATM    7  C   UNL     1     -10.482   5.045  66.190  1.00  0.00    -0.334 A  
HETATM    8  C   UNL     1      -9.782   6.969  67.726  1.00  0.00    -0.156 C  
HETATM    9  C   UNL     1      -8.490   7.638  68.221  1.00  0.00    -0.125 C  
HETATM   10  C   UNL     1     -10.616   8.113  67.109  1.00  0.00    -0.355 C  
HETATM   11  C   UNL     1     -10.538   6.382  68.930  1.00  0.00    -0.298 C  
HETATM   12  C   UNL     1     -10.186   4.098  65.204  1.00  0.00    -0.218 A  
HETATM   13  O   UNL     1      -8.327   8.037  69.373  1.00  0.00    -0.127 OA 
HETATM   14  N   UNL     1      -7.594   7.898  67.201  1.00  0.00    -0.098 N  
HETATM   15  O   UNL     1      -6.115   6.864  65.775  1.00  0.00    -0.034 OA 
HETATM   16  C   UNL     1      -7.204   6.897  66.338  1.00  0.00    -0.075 C  
BRANCH  14  17
HETATM   17  C   UNL     1      -6.887   9.158  67.203  1.00  0.00    -0.080 C  
BRANCH  17  18
HETATM   18  C   UNL     1      -6.920   9.977  65.912  1.00  0.00    -0.113 C  
BRANCH  18  19
HETATM   19  C   UNL     1      -8.237  10.720  65.760  1.00  0.00    -0.146 A  
HETATM   20  C   UNL     1      -9.112  10.471  64.689  1.00  0.00    -0.248 A  
HETATM   21  C   UNL     1     -10.286  11.207  64.533  1.00  0.00    -0.400 A  
HETATM   22  C   UNL     1     -10.614  12.179  65.472  1.00  0.00    -0.277 A  
HETATM   23  C   UNL     1      -8.599  11.685  66.711  1.00  0.00    -0.180 A  
HETATM   24  C   UNL     1      -9.776  12.423  66.561  1.00  0.00    -0.245 A  
BRANCH  22  25
HETATM   25  S   UNL     1     -12.085  13.139  65.237  1.00  0.00    -0.457 S  
HETATM   26  O   UNL     1     -13.115  12.307  64.653  1.00  0.00    -0.770 OA 
HETATM   27  O   UNL     1     -12.334  13.856  66.470  1.00  0.00    -0.445 OA 
BRANCH  25  28
HETATM   28  N   UNL     1     -11.613  14.300  64.148  1.00  0.00    -0.635 N  
HETATM   29  H   UNL     1     -11.590  14.045  63.160  1.00  0.00     0.000 HD 
BRANCH  28  30
HETATM   30  C   UNL     1     -11.250  15.588  64.488  1.00  0.00    -0.315 C  
HETATM   31  O   UNL     1     -11.648  16.586  63.908  1.00  0.00    -1.175 OA 
BRANCH  30  32
HETATM   32  N   UNL     1     -10.389  15.616  65.542  1.00  0.00    -0.370 N  
HETATM   33  H   UNL     1      -9.904  14.761  65.812  1.00  0.00     0.000 HD 
BRANCH  32  34
HETATM   34  C   UNL     1     -10.145  16.842  66.294  1.00  0.00    -0.326 C  
HETATM   35  C   UNL     1     -10.640  16.719  67.741  1.00  0.00    -0.341 C  
HETATM   36  C   UNL     1      -9.826  15.696  68.531  1.00  0.00    -0.205 C  
HETATM   37  C   UNL     1      -8.328  15.986  68.474  1.00  0.00    -0.191 C  
HETATM   38  C   UNL     1      -7.810  16.196  67.052  1.00  0.00    -0.258 C  
HETATM   39  C   UNL     1      -8.657  17.202  66.273  1.00  0.00    -0.276 C  
ENDBRANCH  32  34
ENDBRANCH  30  32
ENDBRANCH  28  30
ENDBRANCH  25  28
ENDBRANCH  22  25
ENDBRANCH  18  19
ENDBRANCH  17  18
ENDBRANCH  14  17
ENDBRANCH   2   3
TORSDOF 9
ENDMDL
MODEL       26
REMARK 921   NORMALIZED FREE ENERGY PREDICTED BY IDOCK:   -6.51 KCAL/MOL
REMARK 922        TOTAL FREE ENERGY PREDICTED BY IDOCK:  -12.08 KCAL/MOL
REMARK 923 INTER-LIGAND FREE ENERGY PREDICTED BY IDOCK:   -9.76 KCAL/MOL
REMARK 924 INTRA-LIGAND FREE ENERGY PREDICTED BY IDOCK:   -2.32 KCAL/MOL
REMARK 927      BINDING AFFINITY PREDICTED BY RF-SCORE:    0.00 PKD
ROOT
HETATM    1  C   UNL     1      -9.287  19.059  66.297  1.00  0.00    -0.298 C  
HETATM    2  O   UNL     1     -10.494  18.518  65.767  1.00  0.00    -0.598 OA 
ENDROOT
BRANCH   2   3
HETATM    3  C   UNL     1     -10.520  17.157  65.643  1.00  0.00    -0.197 A  
HETATM    4  C   UNL     1      -9.909  16.267  66.519  1.00  0.00    -0.287 A  
HETATM    5  C   UNL     1     -10.039  14.886  66.319  1.00  0.00    -0.298 A  
HETATM    6  C   UNL     1     -10.735  14.372  65.213  1.00  0.00    -0.387 A  
HETATM    7  C   UNL     1     -11.380  15.282  64.361  1.00  0.00    -0.224 A  
HETATM    8  C   UNL     1     -10.829  12.865  65.001  1.00  0.00    -0.323 C  
HETATM    9  C   UNL     1      -9.863  12.108  65.926  1.00  0.00    -0.247 C  
HETATM   10  C   UNL     1     -12.238  12.374  65.403  1.00  0.00    -0.386 C  
HETATM   11  C   UNL     1     -10.548  12.464  63.542  1.00  0.00    -0.451 C  
HETATM   12  C   UNL     1     -11.283  16.659  64.587  1.00  0.00    -0.023 A  
HETATM   13  O   UNL     1      -9.306  11.057  65.617  1.00  0.00    -0.199 OA 
HETATM   14  N   UNL     1      -9.812  12.640  67.201  1.00  0.00    -0.209 N  
HETATM   15  O   UNL     1      -9.010  14.439  68.389  1.00  0.00    -0.178 OA 
HETATM   16  C   UNL     1      -9.559  13.981  67.393  1.00  0.00    -0.227 C  
BRANCH  14  17
HETATM   17  C   UNL     1      -9.780  11.736  68.328  1.00  0.00    -0.199 C  
BRANCH  17  18
HETATM   18  C   UNL     1     -11.050  11.631  69.172  1.00  0.00    -0.302 C  
BRANCH  18  19
HETATM   19  C   UNL     1     -11.017  10.408  70.074  1.00  0.00    -0.370 A  
HETATM   20  C   UNL     1      -9.809   9.812  70.475  1.00  0.00    -0.228 A  
HETATM   21  C   UNL     1      -9.801   8.654  71.253  1.00  0.00    -0.307 A  
HETATM   22  C   UNL     1     -11.007   8.101  71.667  1.00  0.00    -0.250 A  
HETATM   23  C   UNL     1     -12.222   9.850  70.525  1.00  0.00    -0.260 A  
HETATM   24  C   UNL     1     -12.219   8.692  71.308  1.00  0.00    -0.320 A  
BRANCH  22  25
HETATM   25  S   UNL     1     -10.984   6.603  72.615  1.00  0.00    -0.261 S  
HETATM   26  O   UNL     1     -10.522   6.890  73.956  1.00  0.00    -0.374 OA 
HETATM   27  O   UNL     1     -12.255   5.939  72.404  1.00  0.00    -0.239 OA 
BRANCH  25  28
HETATM   28  N   UNL     1      -9.868   5.666  71.821  1.00  0.00    -0.165 N  
HETATM   29  H   UNL     1      -8.900   5.706  72.140  1.00  0.00     0.000 HD 
BRANCH  28  30
HETATM   30  C   UNL     1     -10.160   4.834  70.759  1.00  0.00    -0.216 C  
HETATM   31  O   UNL     1      -9.982   3.627  70.766  1.00  0.00    -0.138 OA 
BRANCH  30  32
HETATM   32  N   UNL     1     -10.666   5.519  69.697  1.00  0.00    -0.321 N  
HETATM   33  H   UNL     1     -11.417   6.192  69.849  1.00  0.00     0.000 HD 
BRANCH  32  34
HETATM   34  C   UNL     1     -10.158   5.313  68.345  1.00  0.00    -0.159 C  
HETATM   35  C   UNL     1     -10.890   6.200  67.330  1.00  0.00    -0.431 C  
HETATM   36  C   UNL     1     -10.593   7.681  67.556  1.00  0.00    -0.323 C  
HETATM   37  C   UNL     1      -9.093   7.970  67.574  1.00  0.00    -0.146 C  
HETATM   38  C   UNL     1      -8.315   7.050  68.514  1.00  0.00    -0.121 C  
HETATM   39  C   UNL     1      -8.651   5.576  68.287  1.00  0.00    -0.096 C  
ENDBRANCH  32  34
ENDBRANCH  30  32
ENDBRANCH  28  30
ENDBRANCH  25  28
ENDBRANCH  22  25
ENDBRANCH  18  19
ENDBRANCH  17  18
ENDBRANCH  14  17
ENDBRANCH   2   3
TORSDOF 9
ENDMDL
MODEL       27
REMARK 921   NORMALIZED FREE ENERGY PREDICTED BY IDOCK:   -6.51 KCAL/MOL
REMARK 922        TOTAL FREE ENERGY PREDICTED BY IDOCK:  -12.08 KCAL/MOL
REMARK 923 INTER-LIGAND FREE ENERGY PREDICTED BY IDOCK:  -10.42 KCAL/MOL
REMARK 924 INTRA-LIGAND FREE ENERGY PREDICTED BY IDOCK:   -1.66 KCAL/MOL
REMARK 927      BINDING AFFINITY PREDICTED BY RF-SCORE:    0.00 PKD
ROOT
HETATM    1  C   UNL     1      -9.377  20.387  66.805  1.00  0.00    -0.306 C  
HETATM    2  O   UNL     1     -10.654  19.768  66.678  1.00  0.00    -0.453 OA 
ENDROOT
BRANCH   2   3
HETATM    3  C   UNL     1     -10.658  18.406  66.790  1.00  0.00    -0.333 A  
HETATM    4  C   UNL     1     -10.647  17.706  67.990  1.00  0.00    -0.379 A  
HETATM    5  C   UNL     1     -10.698  16.306  67.986  1.00  0.00    -0.331 A  
HETATM    6  C   UNL     1     -10.707  15.580  66.784  1.00  0.00    -0.305 A  
HETATM    7  C   UNL     1     -10.758  16.301  65.581  1.00  0.00    -0.297 A  
HETATM    8  C   UNL     1     -10.725  14.055  66.811  1.00  0.00    -0.285 C  
HETATM    9  C   UNL     1     -10.437  13.516  68.220  1.00  0.00    -0.253 C  
HETATM   10  C   UNL     1     -12.145  13.550  66.469  1.00  0.00    -0.460 C  
HETATM   11  C   UNL     1      -9.717  13.444  65.822  1.00  0.00    -0.147 C  
HETATM   12  C   UNL     1     -10.749  17.700  65.590  1.00  0.00    -0.084 A  
HETATM   13  O   UNL     1      -9.840  12.465  68.439  1.00  0.00    -0.217 OA 
HETATM   14  N   UNL     1     -11.063  14.247  69.213  1.00  0.00    -0.263 N  
HETATM   15  O   UNL     1     -10.963  16.258  70.325  1.00  0.00    -0.347 OA 
HETATM   16  C   UNL     1     -10.905  15.614  69.283  1.00  0.00    -0.250 C  
BRANCH  14  17
HETATM   17  C   UNL     1     -11.675  13.539  70.314  1.00  0.00    -0.173 C  
BRANCH  17  18
HETATM   18  C   UNL     1     -12.653  12.418  69.962  1.00  0.00     0.107 C  
BRANCH  18  19
HETATM   19  C   UNL     1     -12.257  11.108  70.624  1.00  0.00    -0.492 A  
HETATM   20  C   UNL     1     -11.071  10.434  70.286  1.00  0.00    -0.379 A  
HETATM   21  C   UNL     1     -10.755   9.202  70.859  1.00  0.00    -0.343 A  
HETATM   22  C   UNL     1     -11.611   8.650  71.806  1.00  0.00    -0.332 A  
HETATM   23  C   UNL     1     -13.092  10.547  71.600  1.00  0.00    -0.551 A  
HETATM   24  C   UNL     1     -12.778   9.315  72.181  1.00  0.00    -0.465 A  
BRANCH  22  25
HETATM   25  S   UNL     1     -11.222   7.062  72.492  1.00  0.00    -0.270 S  
HETATM   26  O   UNL     1     -10.765   7.226  73.856  1.00  0.00    -0.318 OA 
HETATM   27  O   UNL     1     -12.330   6.179  72.191  1.00  0.00    -0.299 OA 
BRANCH  25  28
HETATM   28  N   UNL     1      -9.972   6.530  71.538  1.00  0.00    -0.176 N  
HETATM   29  H   UNL     1      -9.074   7.007  71.621  1.00  0.00     0.000 HD 
BRANCH  28  30
HETATM   30  C   UNL     1     -10.064   5.484  70.641  1.00  0.00    -0.223 C  
HETATM   31  O   UNL     1      -9.675   4.351  70.870  1.00  0.00    -0.170 OA 
BRANCH  30  32
HETATM   32  N   UNL     1     -10.635   5.867  69.466  1.00  0.00    -0.275 N  
HETATM   33  H   UNL     1     -11.538   6.341  69.482  1.00  0.00     0.000 HD 
BRANCH  32  34
HETATM   34  C   UNL     1      -9.985   5.615  68.185  1.00  0.00    -0.147 C  
HETATM   35  C   UNL     1     -10.771   6.241  67.026  1.00  0.00    -0.435 C  
HETATM   36  C   UNL     1     -10.757   7.767  67.091  1.00  0.00    -0.337 C  
HETATM   37  C   UNL     1      -9.338   8.325  67.173  1.00  0.00    -0.189 C  
HETATM   38  C   UNL     1      -8.495   7.669  68.264  1.00  0.00    -0.125 C  
HETATM   39  C   UNL     1      -8.548   6.143  68.195  1.00  0.00    -0.115 C  
ENDBRANCH  32  34
ENDBRANCH  30  32
ENDBRANCH  28  30
ENDBRANCH  25  28
ENDBRANCH  22  25
ENDBRANCH  18  19
ENDBRANCH  17  18
ENDBRANCH  14  17
ENDBRANCH   2   3
TORSDOF 9
ENDMDL
MODEL       28
REMARK 921   NORMALIZED FREE ENERGY PREDICTED BY IDOCK:   -6.47 KCAL/MOL
REMARK 922        TOTAL FREE ENERGY PREDICTED BY IDOCK:  -12.02 KCAL/MOL
REMARK 923 INTER-LIGAND FREE ENERGY PREDICTED BY IDOCK:   -8.73 KCAL/MOL
REMARK 924 INTRA-LIGAND FREE ENERGY PREDICTED BY IDOCK:   -3.29 KCAL/MOL
REMARK 927      BINDING AFFINITY PREDICTED BY RF-SCORE:    0.00 PKD
ROOT
HETATM    1  C   UNL     1     -12.356  14.473  70.321  1.00  0.00    -0.349 C  
HETATM    2  O   UNL     1     -11.921  14.879  69.026  1.00  0.00    -0.308 OA 
ENDROOT
BRANCH   2   3
HETATM    3  C   UNL     1     -11.338  13.900  68.271  1.00  0.00    -0.294 A  
HETATM    4  C   UNL     1     -10.030  13.455  68.419  1.00  0.00    -0.231 A  
HETATM    5  C   UNL     1      -9.550  12.411  67.617  1.00  0.00    -0.193 A  
HETATM    6  C   UNL     1     -10.349  11.830  66.619  1.00  0.00    -0.251 A  
HETATM    7  C   UNL     1     -11.679  12.264  66.509  1.00  0.00    -0.420 A  
HETATM    8  C   UNL     1      -9.787  10.721  65.737  1.00  0.00    -0.292 C  
HETATM    9  C   UNL     1      -8.265  10.593  65.901  1.00  0.00    -0.159 C  
HETATM   10  C   UNL     1     -10.357   9.360  66.194  1.00  0.00    -0.162 C  
HETATM   11  C   UNL     1     -10.117  10.936  64.250  1.00  0.00    -0.413 C  
HETATM   12  C   UNL     1     -12.168  13.278  67.339  1.00  0.00    -0.236 A  
HETATM   13  O   UNL     1      -7.507  10.258  64.993  1.00  0.00    -0.140 OA 
HETATM   14  N   UNL     1      -7.852  10.729  67.214  1.00  0.00    -0.111 N  
HETATM   15  O   UNL     1      -7.562  12.294  68.874  1.00  0.00    -0.081 OA 
HETATM   16  C   UNL     1      -8.229  11.825  67.958  1.00  0.00    -0.152 C  
BRANCH  14  17
HETATM   17  C   UNL     1      -6.826   9.842  67.713  1.00  0.00    -0.081 C  
BRANCH  17  18
HETATM   18  C   UNL     1      -7.201   8.369  67.883  1.00  0.00    -0.091 C  
BRANCH  18  19
HETATM   19  C   UNL     1      -7.410   8.015  69.346  1.00  0.00    -0.080 A  
HETATM   20  C   UNL     1      -7.818   6.731  69.749  1.00  0.00    -0.115 A  
HETATM   21  C   UNL     1      -8.064   6.443  71.091  1.00  0.00    -0.117 A  
HETATM   22  C   UNL     1      -7.867   7.431  72.049  1.00  0.00    -0.090 A  
HETATM   23  C   UNL     1      -7.191   8.989  70.330  1.00  0.00    -0.069 A  
HETATM   24  C   UNL     1      -7.432   8.704  71.677  1.00  0.00    -0.121 A  
BRANCH  22  25
HETATM   25  S   UNL     1      -8.228   7.066  73.746  1.00  0.00    -0.134 S  
HETATM   26  O   UNL     1      -8.164   5.635  73.954  1.00  0.00    -0.110 OA 
HETATM   27  O   UNL     1      -7.431   7.961  74.560  1.00  0.00    -0.147 OA 
BRANCH  25  28
HETATM   28  N   UNL     1      -9.792   7.592  73.926  1.00  0.00    -0.389 N  
HETATM   29  H   UNL     1      -9.977   8.302  74.634  1.00  0.00     0.000 HD 
BRANCH  28  30
HETATM   30  C   UNL     1     -10.861   7.134  73.181  1.00  0.00    -0.335 C  
HETATM   31  O   UNL     1     -11.041   5.961  72.894  1.00  0.00    -0.255 OA 
BRANCH  30  32
HETATM   32  N   UNL     1     -11.688   8.144  72.798  1.00  0.00    -0.522 N  
HETATM   33  H   UNL     1     -11.826   8.939  73.422  1.00  0.00     0.000 HD 
BRANCH  32  34
HETATM   34  C   UNL     1     -12.383   8.116  71.516  1.00  0.00    -0.306 C  
HETATM   35  C   UNL     1     -13.512   9.153  71.468  1.00  0.00    -0.417 C  
HETATM   36  C   UNL     1     -12.969  10.581  71.501  1.00  0.00    -0.565 C  
HETATM   37  C   UNL     1     -11.934  10.828  70.406  1.00  0.00    -0.448 C  
HETATM   38  C   UNL     1     -10.834   9.768  70.368  1.00  0.00    -0.370 C  
HETATM   39  C   UNL     1     -11.401   8.348  70.364  1.00  0.00    -0.178 C  
ENDBRANCH  32  34
ENDBRANCH  30  32
ENDBRANCH  28  30
ENDBRANCH  25  28
ENDBRANCH  22  25
ENDBRANCH  18  19
ENDBRANCH  17  18
ENDBRANCH  14  17
ENDBRANCH   2   3
TORSDOF 9
ENDMDL
MODEL       29
REMARK 921   NORMALIZED FREE ENERGY PREDICTED BY IDOCK:   -6.47 KCAL/MOL
REMARK 922        TOTAL FREE ENERGY PREDICTED BY IDOCK:  -12.02 KCAL/MOL
REMARK 923 INTER-LIGAND FREE ENERGY PREDICTED BY IDOCK:  -11.30 KCAL/MOL
REMARK 924 INTRA-LIGAND FREE ENERGY PREDICTED BY IDOCK:   -0.72 KCAL/MOL
REMARK 927      BINDING AFFINITY PREDICTED BY RF-SCORE:    0.00 PKD
ROOT
HETATM    1  C   UNL     1      -8.790   2.243  67.363  1.00  0.00    -0.135 C  
HETATM    2  O   UNL     1      -8.556   3.623  67.637  1.00  0.00    -0.093 OA 
ENDROOT
BRANCH   2   3
HETATM    3  C   UNL     1      -8.967   4.052  68.868  1.00  0.00    -0.116 A  
HETATM    4  C   UNL     1      -9.089   5.384  69.246  1.00  0.00    -0.133 A  
HETATM    5  C   UNL     1      -9.564   5.709  70.524  1.00  0.00    -0.221 A  
HETATM    6  C   UNL     1      -9.874   4.712  71.463  1.00  0.00    -0.259 A  
HETATM    7  C   UNL     1      -9.783   3.373  71.053  1.00  0.00    -0.216 A  
HETATM    8  C   UNL     1     -10.354   5.097  72.858  1.00  0.00    -0.238 C  
HETATM    9  C   UNL     1     -10.150   6.596  73.126  1.00  0.00    -0.194 C  
HETATM   10  C   UNL     1     -11.879   4.874  72.959  1.00  0.00    -0.127 C  
HETATM   11  C   UNL     1      -9.648   4.287  73.960  1.00  0.00    -0.130 C  
HETATM   12  C   UNL     1      -9.348   3.052  69.763  1.00  0.00    -0.215 A  
HETATM   13  O   UNL     1      -9.888   7.061  74.233  1.00  0.00    -0.289 OA 
HETATM   14  N   UNL     1     -10.455   7.384  72.032  1.00  0.00    -0.196 N  
HETATM   15  O   UNL     1      -9.673   7.992  69.956  1.00  0.00    -0.172 OA 
HETATM   16  C   UNL     1      -9.885   7.131  70.804  1.00  0.00    -0.178 C  
BRANCH  14  17
HETATM   17  C   UNL     1     -11.179   8.617  72.246  1.00  0.00    -0.328 C  
BRANCH  17  18
HETATM   18  C   UNL     1     -12.274   8.964  71.238  1.00  0.00    -0.351 C  
BRANCH  18  19
HETATM   19  C   UNL     1     -12.336  10.461  70.979  1.00  0.00    -0.490 A  
HETATM   20  C   UNL     1     -11.625  11.064  69.927  1.00  0.00    -0.416 A  
HETATM   21  C   UNL     1     -11.646  12.446  69.744  1.00  0.00    -0.302 A  
HETATM   22  C   UNL     1     -12.410  13.237  70.595  1.00  0.00    -0.339 A  
HETATM   23  C   UNL     1     -13.122  11.273  71.809  1.00  0.00    -0.527 A  
HETATM   24  C   UNL     1     -13.149  12.658  71.627  1.00  0.00    -0.421 A  
BRANCH  22  25
HETATM   25  S   UNL     1     -12.391  14.996  70.380  1.00  0.00    -0.361 S  
HETATM   26  O   UNL     1     -13.593  15.565  70.953  1.00  0.00    -0.520 OA 
HETATM   27  O   UNL     1     -11.086  15.468  70.799  1.00  0.00    -0.315 OA 
BRANCH  25  28
HETATM   28  N   UNL     1     -12.410  15.181  68.731  1.00  0.00    -0.595 N  
HETATM   29  H   UNL     1     -13.302  15.069  68.250  1.00  0.00     0.000 HD 
BRANCH  28  30
HETATM   30  C   UNL     1     -11.299  15.476  67.965  1.00  0.00    -0.330 C  
HETATM   31  O   UNL     1     -10.582  16.447  68.147  1.00  0.00    -0.290 OA 
BRANCH  30  32
HETATM   32  N   UNL     1     -11.100  14.561  66.978  1.00  0.00    -0.313 N  
HETATM   33  H   UNL     1     -10.191  14.512  66.519  1.00  0.00     0.000 HD 
BRANCH  32  34
HETATM   34  C   UNL     1     -12.158  13.647  66.561  1.00  0.00    -0.423 C  
HETATM   35  C   UNL     1     -12.902  14.176  65.328  1.00  0.00    -0.370 C  
HETATM   36  C   UNL     1     -12.003  14.201  64.094  1.00  0.00    -0.421 C  
HETATM   37  C   UNL     1     -11.362  12.842  63.821  1.00  0.00    -0.490 C  
HETATM   38  C   UNL     1     -10.680  12.242  65.049  1.00  0.00    -0.336 C  
HETATM   39  C   UNL     1     -11.589  12.254  66.278  1.00  0.00    -0.446 C  
ENDBRANCH  32  34
ENDBRANCH  30  32
ENDBRANCH  28  30
ENDBRANCH  25  28
ENDBRANCH  22  25
ENDBRANCH  18  19
ENDBRANCH  17  18
ENDBRANCH  14  17
ENDBRANCH   2   3
TORSDOF 9
ENDMDL
MODEL       30
REMARK 921   NORMALIZED FREE ENERGY PREDICTED BY IDOCK:   -6.42 KCAL/MOL
REMARK 922        TOTAL FREE ENERGY PREDICTED BY IDOCK:  -11.94 KCAL/MOL
REMARK 923 INTER-LIGAND FREE ENERGY PREDICTED BY IDOCK:  -10.58 KCAL/MOL
REMARK 924 INTRA-LIGAND FREE ENERGY PREDICTED BY IDOCK:   -1.37 KCAL/MOL
REMARK 927      BINDING AFFINITY PREDICTED BY RF-SCORE:    0.00 PKD
ROOT
HETATM    1  C   UNL     1      -7.811   1.869  66.522  1.00  0.00    -0.071 C  
HETATM    2  O   UNL     1      -9.071   2.462  66.825  1.00  0.00    -0.139 OA 
ENDROOT
BRANCH   2   3
HETATM    3  C   UNL     1      -9.179   3.000  68.077  1.00  0.00    -0.198 A  
HETATM    4  C   UNL     1      -9.837   4.186  68.378  1.00  0.00    -0.082 A  
HETATM    5  C   UNL     1      -9.924   4.622  69.707  1.00  0.00    -0.295 A  
HETATM    6  C   UNL     1      -9.308   3.909  70.750  1.00  0.00    -0.214 A  
HETATM    7  C   UNL     1      -8.682   2.694  70.434  1.00  0.00    -0.131 A  
HETATM    8  C   UNL     1      -9.388   4.427  72.181  1.00  0.00    -0.174 C  
HETATM    9  C   UNL     1      -9.920   5.868  72.227  1.00  0.00    -0.169 C  
HETATM   10  C   UNL     1     -10.418   3.593  72.976  1.00  0.00    -0.253 C  
HETATM   11  C   UNL     1      -8.027   4.370  72.897  1.00  0.00    -0.091 C  
HETATM   12  C   UNL     1      -8.634   2.241  69.112  1.00  0.00    -0.111 A  
HETATM   13  O   UNL     1      -9.569   6.699  73.062  1.00  0.00    -0.145 OA 
HETATM   14  N   UNL     1     -10.957   6.086  71.339  1.00  0.00    -0.270 N  
HETATM   15  O   UNL     1     -11.405   6.348  69.098  1.00  0.00    -0.364 OA 
HETATM   16  C   UNL     1     -10.818   5.769  70.006  1.00  0.00    -0.333 C  
BRANCH  14  17
HETATM   17  C   UNL     1     -12.088   6.875  71.773  1.00  0.00    -0.346 C  
BRANCH  17  18
HETATM   18  C   UNL     1     -11.794   8.275  72.311  1.00  0.00    -0.451 C  
BRANCH  18  19
HETATM   19  C   UNL     1     -11.545   9.262  71.182  1.00  0.00    -0.397 A  
HETATM   20  C   UNL     1     -10.302   9.351  70.532  1.00  0.00    -0.341 A  
HETATM   21  C   UNL     1     -10.075  10.305  69.541  1.00  0.00    -0.260 A  
HETATM   22  C   UNL     1     -11.107  11.159  69.165  1.00  0.00    -0.248 A  
HETATM   23  C   UNL     1     -12.580  10.114  70.770  1.00  0.00    -0.406 A  
HETATM   24  C   UNL     1     -12.359  11.069  69.774  1.00  0.00    -0.331 A  
BRANCH  22  25
HETATM   25  S   UNL     1     -10.791  12.398  67.937  1.00  0.00    -0.233 S  
HETATM   26  O   UNL     1     -10.117  11.795  66.807  1.00  0.00    -0.205 OA 
HETATM   27  O   UNL     1     -12.021  13.140  67.747  1.00  0.00    -0.350 OA 
BRANCH  25  28
HETATM   28  N   UNL     1      -9.766  13.450  68.711  1.00  0.00    -0.418 N  
HETATM   29  H   UNL     1      -8.774  13.213  68.738  1.00  0.00     0.000 HD 
BRANCH  28  30
HETATM   30  C   UNL     1     -10.164  14.624  69.319  1.00  0.00    -0.147 C  
HETATM   31  O   UNL     1      -9.725  15.725  69.032  1.00  0.00    -0.211 OA 
BRANCH  30  32
HETATM   32  N   UNL     1     -11.101  14.409  70.283  1.00  0.00    -0.475 N  
HETATM   33  H   UNL     1     -11.042  13.567  70.856  1.00  0.00     0.000 HD 
BRANCH  32  34
HETATM   34  C   UNL     1     -12.186  15.355  70.516  1.00  0.00    -0.394 C  
HETATM   35  C   UNL     1     -13.521  14.633  70.734  1.00  0.00    -0.195 C  
HETATM   36  C   UNL     1     -13.522  13.827  72.032  1.00  0.00    -0.559 C  
HETATM   37  C   UNL     1     -13.143  14.680  73.239  1.00  0.00    -0.505 C  
HETATM   38  C   UNL     1     -11.858  15.481  73.030  1.00  0.00    -0.555 C  
HETATM   39  C   UNL     1     -11.870  16.256  71.713  1.00  0.00    -0.510 C  
ENDBRANCH  32  34
ENDBRANCH  30  32
ENDBRANCH  28  30
ENDBRANCH  25  28
ENDBRANCH  22  25
ENDBRANCH  18  19
ENDBRANCH  17  18
ENDBRANCH  14  17
ENDBRANCH   2   3
TORSDOF 9
ENDMDL
MODEL       31
REMARK 921   NORMALIZED FREE ENERGY PREDICTED BY IDOCK:   -6.38 KCAL/MOL
REMARK 922        TOTAL FREE ENERGY PREDICTED BY IDOCK:  -11.88 KCAL/MOL
REMARK 923 INTER-LIGAND FREE ENERGY PREDICTED BY IDOCK:  -11.24 KCAL/MOL
REMARK 924 INTRA-LIGAND FREE ENERGY PREDICTED BY IDOCK:   -0.64 KCAL/MOL
REMARK 927      BINDING AFFINITY PREDICTED BY RF-SCORE:    0.00 PKD
ROOT
HETATM    1  C   UNL     1      -7.333   2.098  68.160  1.00  0.00    -0.047 C  
HETATM    2  O   UNL     1      -8.731   2.363  68.238  1.00  0.00    -0.075 OA 
ENDROOT
BRANCH   2   3
HETATM    3  C   UNL     1      -9.122   3.136  69.296  1.00  0.00    -0.136 A  
HETATM    4  C   UNL     1      -9.802   4.343  69.191  1.00  0.00    -0.198 A  
HETATM    5  C   UNL     1     -10.193   5.030  70.348  1.00  0.00    -0.324 A  
HETATM    6  C   UNL     1      -9.865   4.551  71.627  1.00  0.00    -0.258 A  
HETATM    7  C   UNL     1      -9.214   3.312  71.717  1.00  0.00    -0.186 A  
HETATM    8  C   UNL     1     -10.273   5.340  72.866  1.00  0.00    -0.218 C  
HETATM    9  C   UNL     1     -10.762   6.749  72.498  1.00  0.00    -0.230 C  
HETATM   10  C   UNL     1     -11.484   4.656  73.538  1.00  0.00    -0.277 C  
HETATM   11  C   UNL     1      -9.125   5.455  73.885  1.00  0.00    -0.122 C  
HETATM   12  C   UNL     1      -8.861   2.608  70.561  1.00  0.00    -0.144 A  
HETATM   13  O   UNL     1     -10.600   7.736  73.213  1.00  0.00    -0.364 OA 
HETATM   14  N   UNL     1     -11.549   6.764  71.362  1.00  0.00    -0.288 N  
HETATM   15  O   UNL     1     -11.439   6.568  69.072  1.00  0.00    -0.283 OA 
HETATM   16  C   UNL     1     -11.103   6.193  70.190  1.00  0.00    -0.378 C  
BRANCH  14  17
HETATM   17  C   UNL     1     -12.730   7.598  71.347  1.00  0.00    -0.327 C  
BRANCH  17  18
HETATM   18  C   UNL     1     -12.666   8.908  72.132  1.00  0.00    -0.470 C  
BRANCH  18  19
HETATM   19  C   UNL     1     -12.291  10.075  71.233  1.00  0.00    -0.496 A  
HETATM   20  C   UNL     1     -11.406   9.927  70.151  1.00  0.00    -0.335 A  
HETATM   21  C   UNL     1     -11.027  11.022  69.376  1.00  0.00    -0.301 A  
HETATM   22  C   UNL     1     -11.561  12.275  69.656  1.00  0.00    -0.278 A  
HETATM   23  C   UNL     1     -12.839  11.342  71.481  1.00  0.00    -0.519 A  
HETATM   24  C   UNL     1     -12.466  12.442  70.704  1.00  0.00    -0.320 A  
BRANCH  22  25
HETATM   25  S   UNL     1     -11.035  13.667  68.693  1.00  0.00    -0.274 S  
HETATM   26  O   UNL     1      -9.932  13.274  67.841  1.00  0.00    -0.220 OA 
HETATM   27  O   UNL     1     -12.221  14.271  68.123  1.00  0.00    -0.284 OA 
BRANCH  25  28
HETATM   28  N   UNL     1     -10.506  14.746  69.838  1.00  0.00    -0.458 N  
HETATM   29  H   UNL     1      -9.691  14.487  70.395  1.00  0.00     0.000 HD 
BRANCH  28  30
HETATM   30  C   UNL     1     -11.093  15.970  70.088  1.00  0.00    -0.371 C  
HETATM   31  O   UNL     1     -11.642  16.262  71.138  1.00  0.00    -0.427 OA 
BRANCH  30  32
HETATM   32  N   UNL     1     -10.995  16.812  69.024  1.00  0.00    -0.281 N  
HETATM   33  H   UNL     1     -11.802  16.941  68.414  1.00  0.00     0.000 HD 
BRANCH  32  34
HETATM   34  C   UNL     1      -9.762  17.536  68.736  1.00  0.00    -0.298 C  
HETATM   35  C   UNL     1      -9.136  17.072  67.415  1.00  0.00    -0.225 C  
HETATM   36  C   UNL     1     -10.006  17.443  66.216  1.00  0.00    -0.306 C  
HETATM   37  C   UNL     1     -10.339  18.933  66.186  1.00  0.00    -0.517 C  
HETATM   38  C   UNL     1     -10.890  19.453  67.512  1.00  0.00    -0.521 C  
HETATM   39  C   UNL     1     -10.017  19.045  68.699  1.00  0.00    -0.482 C  
ENDBRANCH  32  34
ENDBRANCH  30  32
ENDBRANCH  28  30
ENDBRANCH  25  28
ENDBRANCH  22  25
ENDBRANCH  18  19
ENDBRANCH  17  18
ENDBRANCH  14  17
ENDBRANCH   2   3
TORSDOF 9
ENDMDL
MODEL       32
REMARK 921   NORMALIZED FREE ENERGY PREDICTED BY IDOCK:   -6.38 KCAL/MOL
REMARK 922        TOTAL FREE ENERGY PREDICTED BY IDOCK:  -11.88 KCAL/MOL
REMARK 923 INTER-LIGAND FREE ENERGY PREDICTED BY IDOCK:   -9.83 KCAL/MOL
REMARK 924 INTRA-LIGAND FREE ENERGY PREDICTED BY IDOCK:   -2.05 KCAL/MOL
REMARK 927      BINDING AFFINITY PREDICTED BY RF-SCORE:    0.00 PKD
ROOT
HETATM    1  C   UNL     1     -10.428  18.997  66.041  1.00  0.00    -0.458 C  
HETATM    2  O   UNL     1      -9.363  18.055  65.942  1.00  0.00    -0.520 OA 
ENDROOT
BRANCH   2   3
HETATM    3  C   UNL     1      -9.745  16.759  65.738  1.00  0.00    -0.128 A  
HETATM    4  C   UNL     1      -9.129  15.650  66.306  1.00  0.00    -0.376 A  
HETATM    5  C   UNL     1      -9.636  14.366  66.063  1.00  0.00    -0.292 A  
HETATM    6  C   UNL     1     -10.731  14.163  65.207  1.00  0.00    -0.374 A  
HETATM    7  C   UNL     1     -11.365  15.296  64.673  1.00  0.00    -0.364 A  
HETATM    8  C   UNL     1     -11.236  12.752  64.932  1.00  0.00    -0.331 C  
HETATM    9  C   UNL     1     -10.246  11.693  65.441  1.00  0.00    -0.263 C  
HETATM   10  C   UNL     1     -12.535  12.504  65.730  1.00  0.00    -0.040 C  
HETATM   11  C   UNL     1     -11.505  12.511  63.436  1.00  0.00    -0.523 C  
HETATM   12  C   UNL     1     -10.883  16.579  64.952  1.00  0.00    -0.222 A  
HETATM   13  O   UNL     1     -10.071  10.605  64.897  1.00  0.00    -0.296 OA 
HETATM   14  N   UNL     1      -9.693  12.019  66.666  1.00  0.00    -0.204 N  
HETATM   15  O   UNL     1      -8.173  13.433  67.655  1.00  0.00    -0.151 OA 
HETATM   16  C   UNL     1      -9.086  13.240  66.860  1.00  0.00    -0.232 C  
BRANCH  14  17
HETATM   17  C   UNL     1      -9.541  10.978  67.657  1.00  0.00    -0.168 C  
BRANCH  17  18
HETATM   18  C   UNL     1     -10.691  10.786  68.646  1.00  0.00    -0.242 C  
BRANCH  18  19
HETATM   19  C   UNL     1     -10.250   9.983  69.860  1.00  0.00    -0.304 A  
HETATM   20  C   UNL     1     -11.156   9.593  70.862  1.00  0.00    -0.422 A  
HETATM   21  C   UNL     1     -10.722   8.910  71.997  1.00  0.00    -0.389 A  
HETATM   22  C   UNL     1      -9.377   8.579  72.123  1.00  0.00    -0.283 A  
HETATM   23  C   UNL     1      -8.904   9.616  69.993  1.00  0.00    -0.259 A  
HETATM   24  C   UNL     1      -8.464   8.928  71.127  1.00  0.00    -0.250 A  
BRANCH  22  25
HETATM   25  S   UNL     1      -8.830   7.753  73.593  1.00  0.00    -0.279 S  
HETATM   26  O   UNL     1      -8.057   8.671  74.402  1.00  0.00    -0.333 OA 
HETATM   27  O   UNL     1      -9.976   7.067  74.155  1.00  0.00    -0.313 OA 
BRANCH  25  28
HETATM   28  N   UNL     1      -7.847   6.549  73.011  1.00  0.00    -0.104 N  
HETATM   29  H   UNL     1      -6.845   6.734  72.963  1.00  0.00     0.000 HD 
BRANCH  28  30
HETATM   30  C   UNL     1      -8.293   5.312  72.588  1.00  0.00    -0.114 C  
HETATM   31  O   UNL     1      -8.379   4.333  73.311  1.00  0.00    -0.090 OA 
BRANCH  30  32
HETATM   32  N   UNL     1      -8.619   5.310  71.267  1.00  0.00    -0.127 N  
HETATM   33  H   UNL     1      -8.015   5.795  70.604  1.00  0.00     0.000 HD 
BRANCH  32  34
HETATM   34  C   UNL     1      -9.813   4.630  70.777  1.00  0.00    -0.214 C  
HETATM   35  C   UNL     1     -10.857   5.631  70.267  1.00  0.00    -0.336 C  
HETATM   36  C   UNL     1     -10.375   6.362  69.015  1.00  0.00    -0.238 C  
HETATM   37  C   UNL     1      -9.941   5.394  67.916  1.00  0.00    -0.202 C  
HETATM   38  C   UNL     1      -8.962   4.329  68.405  1.00  0.00    -0.151 C  
HETATM   39  C   UNL     1      -9.453   3.632  69.674  1.00  0.00    -0.245 C  
ENDBRANCH  32  34
ENDBRANCH  30  32
ENDBRANCH  28  30
ENDBRANCH  25  28
ENDBRANCH  22  25
ENDBRANCH  18  19
ENDBRANCH  17  18
ENDBRANCH  14  17
ENDBRANCH   2   3
TORSDOF 9
ENDMDL
MODEL       33
REMARK 921   NORMALIZED FREE ENERGY PREDICTED BY IDOCK:   -6.37 KCAL/MOL
REMARK 922        TOTAL FREE ENERGY PREDICTED BY IDOCK:  -11.87 KCAL/MOL
REMARK 923 INTER-LIGAND FREE ENERGY PREDICTED BY IDOCK:   -9.53 KCAL/MOL
REMARK 924 INTRA-LIGAND FREE ENERGY PREDICTED BY IDOCK:   -2.34 KCAL/MOL
REMARK 927      BINDING AFFINITY PREDICTED BY RF-SCORE:    0.00 PKD
ROOT
HETATM    1  C   UNL     1      -5.209  10.046  68.101  1.00  0.00    -0.035 C  
HETATM    2  O   UNL     1      -5.701   8.898  67.413  1.00  0.00    -0.038 OA 
ENDROOT
BRANCH   2   3
HETATM    3  C   UNL     1      -6.720   8.235  68.036  1.00  0.00    -0.065 A  
HETATM    4  C   UNL     1      -7.257   8.582  69.270  1.00  0.00    -0.063 A  
HETATM    5  C   UNL     1      -8.334   7.855  69.795  1.00  0.00    -0.127 A  
HETATM    6  C   UNL     1      -8.857   6.738  69.123  1.00  0.00    -0.134 A  
HETATM    7  C   UNL     1      -8.330   6.425  67.861  1.00  0.00    -0.118 A  
HETATM    8  C   UNL     1     -10.005   5.944  69.737  1.00  0.00    -0.236 C  
HETATM    9  C   UNL     1     -10.242   6.343  71.201  1.00  0.00    -0.191 C  
HETATM   10  C   UNL     1     -11.322   6.293  69.007  1.00  0.00    -0.319 C  
HETATM   11  C   UNL     1      -9.769   4.426  69.659  1.00  0.00    -0.289 C  
HETATM   12  C   UNL     1      -7.283   7.178  67.320  1.00  0.00    -0.086 A  
HETATM   13  O   UNL     1     -10.631   5.562  72.066  1.00  0.00    -0.215 OA 
HETATM   14  N   UNL     1     -10.134   7.705  71.411  1.00  0.00    -0.182 N  
HETATM   15  O   UNL     1      -8.591   9.406  71.548  1.00  0.00    -0.266 OA 
HETATM   16  C   UNL     1      -9.012   8.392  71.001  1.00  0.00    -0.165 C  
BRANCH  14  17
HETATM   17  C   UNL     1     -11.091   8.351  72.281  1.00  0.00    -0.368 C  
BRANCH  17  18
HETATM   18  C   UNL     1     -12.381   8.861  71.638  1.00  0.00    -0.405 C  
BRANCH  18  19
HETATM   19  C   UNL     1     -12.141  10.141  70.853  1.00  0.00    -0.453 A  
HETATM   20  C   UNL     1     -11.458  10.142  69.624  1.00  0.00    -0.256 A  
HETATM   21  C   UNL     1     -11.194  11.333  68.949  1.00  0.00    -0.315 A  
HETATM   22  C   UNL     1     -11.646  12.536  69.483  1.00  0.00    -0.281 A  
HETATM   23  C   UNL     1     -12.612  11.360  71.360  1.00  0.00    -0.439 A  
HETATM   24  C   UNL     1     -12.354  12.556  70.685  1.00  0.00    -0.369 A  
BRANCH  22  25
HETATM   25  S   UNL     1     -11.263  14.047  68.639  1.00  0.00    -0.285 S  
HETATM   26  O   UNL     1     -12.282  14.315  67.646  1.00  0.00    -0.337 OA 
HETATM   27  O   UNL     1     -10.946  15.036  69.649  1.00  0.00    -0.259 OA 
BRANCH  25  28
HETATM   28  N   UNL     1      -9.820  13.712  67.891  1.00  0.00    -0.230 N  
HETATM   29  H   UNL     1      -9.092  13.257  68.443  1.00  0.00     0.000 HD 
BRANCH  28  30
HETATM   30  C   UNL     1      -9.537  14.007  66.572  1.00  0.00    -0.293 C  
HETATM   31  O   UNL     1      -9.481  15.140  66.122  1.00  0.00    -0.282 OA 
BRANCH  30  32
HETATM   32  N   UNL     1      -9.334  12.885  65.829  1.00  0.00    -0.462 N  
HETATM   33  H   UNL     1      -8.393  12.670  65.498  1.00  0.00     0.000 HD 
BRANCH  32  34
HETATM   34  C   UNL     1     -10.430  11.982  65.496  1.00  0.00    -0.269 C  
HETATM   35  C   UNL     1     -10.725  11.990  63.991  1.00  0.00    -0.426 C  
HETATM   36  C   UNL     1      -9.571  11.395  63.186  1.00  0.00    -0.398 C  
HETATM   37  C   UNL     1      -9.188  10.000  63.675  1.00  0.00    -0.314 C  
HETATM   38  C   UNL     1      -8.966   9.932  65.185  1.00  0.00    -0.235 C  
HETATM   39  C   UNL     1     -10.120  10.558  65.967  1.00  0.00    -0.317 C  
ENDBRANCH  32  34
ENDBRANCH  30  32
ENDBRANCH  28  30
ENDBRANCH  25  28
ENDBRANCH  22  25
ENDBRANCH  18  19
ENDBRANCH  17  18
ENDBRANCH  14  17
ENDBRANCH   2   3
TORSDOF 9
ENDMDL
MODEL       34
REMARK 921   NORMALIZED FREE ENERGY PREDICTED BY IDOCK:   -6.32 KCAL/MOL
REMARK 922        TOTAL FREE ENERGY PREDICTED BY IDOCK:  -11.79 KCAL/MOL
REMARK 923 INTER-LIGAND FREE ENERGY PREDICTED BY IDOCK:   -9.89 KCAL/MOL
REMARK 924 INTRA-LIGAND FREE ENERGY PREDICTED BY IDOCK:   -1.90 KCAL/MOL
REMARK 927      BINDING AFFINITY PREDICTED BY RF-SCORE:    0.00 PKD
ROOT
HETATM    1  C   UNL     1     -12.847  15.292  71.452  1.00  0.00    -0.415 C  
HETATM    2  O   UNL     1     -11.533  15.355  70.904  1.00  0.00    -0.300 OA 
ENDROOT
BRANCH   2   3
HETATM    3  C   UNL     1     -11.376  14.751  69.687  1.00  0.00    -0.283 A  
HETATM    4  C   UNL     1     -10.837  13.485  69.492  1.00  0.00     0.060 A  
HETATM    5  C   UNL     1     -10.766  12.946  68.200  1.00  0.00    -0.258 A  
HETATM    6  C   UNL     1     -11.183  13.682  67.078  1.00  0.00    -0.328 A  
HETATM    7  C   UNL     1     -11.761  14.941  67.297  1.00  0.00    -0.308 A  
HETATM    8  C   UNL     1     -11.059  13.082  65.682  1.00  0.00    -0.301 C  
HETATM    9  C   UNL     1     -10.198  11.810  65.692  1.00  0.00    -0.246 C  
HETATM   10  C   UNL     1     -12.450  12.622  65.193  1.00  0.00    -0.531 C  
HETATM   11  C   UNL     1     -10.470  14.081  64.671  1.00  0.00    -0.398 C  
HETATM   12  C   UNL     1     -11.868  15.460  68.592  1.00  0.00    -0.317 A  
HETATM   13  O   UNL     1      -9.475  11.468  64.759  1.00  0.00    -0.199 OA 
HETATM   14  N   UNL     1     -10.445  11.003  66.787  1.00  0.00    -0.241 N  
HETATM   15  O   UNL     1     -10.090  10.859  69.055  1.00  0.00    -0.200 OA 
HETATM   16  C   UNL     1     -10.390  11.516  68.065  1.00  0.00    -0.190 C  
BRANCH  14  17
HETATM   17  C   UNL     1     -10.515   9.572  66.592  1.00  0.00    -0.171 C  
BRANCH  17  18
HETATM   18  C   UNL     1      -9.206   8.791  66.699  1.00  0.00    -0.223 C  
BRANCH  18  19
HETATM   19  C   UNL     1      -9.267   7.755  67.809  1.00  0.00    -0.143 A  
HETATM   20  C   UNL     1      -8.412   7.808  68.924  1.00  0.00    -0.129 A  
HETATM   21  C   UNL     1      -8.442   6.815  69.902  1.00  0.00    -0.140 A  
HETATM   22  C   UNL     1      -9.355   5.772  69.789  1.00  0.00    -0.147 A  
HETATM   23  C   UNL     1     -10.198   6.710  67.728  1.00  0.00    -0.207 A  
HETATM   24  C   UNL     1     -10.235   5.714  68.708  1.00  0.00    -0.269 A  
BRANCH  22  25
HETATM   25  S   UNL     1      -9.350   4.490  71.013  1.00  0.00    -0.161 S  
HETATM   26  O   UNL     1      -9.653   3.222  70.384  1.00  0.00    -0.177 OA 
HETATM   27  O   UNL     1      -8.144   4.649  71.800  1.00  0.00    -0.099 OA 
BRANCH  25  28
HETATM   28  N   UNL     1     -10.589   4.926  72.028  1.00  0.00    -0.179 N  
HETATM   29  H   UNL     1     -11.341   4.252  72.178  1.00  0.00     0.000 HD 
BRANCH  28  30
HETATM   30  C   UNL     1     -10.673   6.139  72.683  1.00  0.00    -0.229 C  
HETATM   31  O   UNL     1      -9.738   6.668  73.262  1.00  0.00    -0.157 OA 
BRANCH  30  32
HETATM   32  N   UNL     1     -11.923   6.672  72.615  1.00  0.00    -0.502 N  
HETATM   33  H   UNL     1     -12.466   6.780  73.471  1.00  0.00     0.000 HD 
BRANCH  32  34
HETATM   34  C   UNL     1     -12.503   7.095  71.345  1.00  0.00    -0.388 C  
HETATM   35  C   UNL     1     -13.995   7.418  71.491  1.00  0.00    -0.517 C  
HETATM   36  C   UNL     1     -14.224   8.649  72.367  1.00  0.00    -0.443 C  
HETATM   37  C   UNL     1     -13.434   9.859  71.875  1.00  0.00    -0.467 C  
HETATM   38  C   UNL     1     -11.955   9.556  71.638  1.00  0.00    -0.474 C  
HETATM   39  C   UNL     1     -11.752   8.305  70.783  1.00  0.00    -0.213 C  
ENDBRANCH  32  34
ENDBRANCH  30  32
ENDBRANCH  28  30
ENDBRANCH  25  28
ENDBRANCH  22  25
ENDBRANCH  18  19
ENDBRANCH  17  18
ENDBRANCH  14  17
ENDBRANCH   2   3
TORSDOF 9
ENDMDL
MODEL       35
REMARK 921   NORMALIZED FREE ENERGY PREDICTED BY IDOCK:   -6.31 KCAL/MOL
REMARK 922        TOTAL FREE ENERGY PREDICTED BY IDOCK:  -11.78 KCAL/MOL
REMARK 923 INTER-LIGAND FREE ENERGY PREDICTED BY IDOCK:  -10.12 KCAL/MOL
REMARK 924 INTRA-LIGAND FREE ENERGY PREDICTED BY IDOCK:   -1.66 KCAL/MOL
REMARK 927      BINDING AFFINITY PREDICTED BY RF-SCORE:    0.00 PKD
ROOT
HETATM    1  C   UNL     1     -10.296  18.854  67.234  1.00  0.00    -0.418 C  
HETATM    2  O   UNL     1      -9.984  18.313  65.953  1.00  0.00    -0.538 OA 
ENDROOT
BRANCH   2   3
HETATM    3  C   UNL     1     -10.067  16.953  65.856  1.00  0.00    -0.283 A  
HETATM    4  C   UNL     1      -9.402  16.055  66.682  1.00  0.00    -0.268 A  
HETATM    5  C   UNL     1      -9.597  14.676  66.520  1.00  0.00    -0.308 A  
HETATM    6  C   UNL     1     -10.417  14.171  65.498  1.00  0.00    -0.352 A  
HETATM    7  C   UNL     1     -11.112  15.090  64.699  1.00  0.00    -0.335 A  
HETATM    8  C   UNL     1     -10.580  12.665  65.324  1.00  0.00    -0.317 C  
HETATM    9  C   UNL     1      -9.552  11.889  66.161  1.00  0.00    -0.234 C  
HETATM   10  C   UNL     1     -11.957  12.229  65.872  1.00  0.00    -0.358 C  
HETATM   11  C   UNL     1     -10.460  12.234  63.852  1.00  0.00    -0.458 C  
HETATM   12  C   UNL     1     -10.948  16.466  64.890  1.00  0.00    -0.277 A  
HETATM   13  O   UNL     1      -9.064  10.814  65.817  1.00  0.00    -0.175 OA 
HETATM   14  N   UNL     1      -9.357  12.437  67.415  1.00  0.00    -0.177 N  
HETATM   15  O   UNL     1      -8.381  14.224  68.485  1.00  0.00    -0.151 OA 
HETATM   16  C   UNL     1      -9.042  13.770  67.557  1.00  0.00    -0.209 C  
BRANCH  14  17
HETATM   17  C   UNL     1      -9.242  11.549  68.550  1.00  0.00    -0.167 C  
BRANCH  17  18
HETATM   18  C   UNL     1      -7.915  10.810  68.723  1.00  0.00    -0.136 C  
BRANCH  18  19
HETATM   19  C   UNL     1      -8.115   9.458  69.389  1.00  0.00    -0.105 A  
HETATM   20  C   UNL     1      -8.477   8.314  68.656  1.00  0.00    -0.125 A  
HETATM   21  C   UNL     1      -8.716   7.097  69.294  1.00  0.00    -0.136 A  
HETATM   22  C   UNL     1      -8.559   7.006  70.672  1.00  0.00    -0.147 A  
HETATM   23  C   UNL     1      -7.936   9.338  70.774  1.00  0.00    -0.187 A  
HETATM   24  C   UNL     1      -8.170   8.120  71.418  1.00  0.00    -0.141 A  
BRANCH  22  25
HETATM   25  S   UNL     1      -8.911   5.466  71.476  1.00  0.00    -0.136 S  
HETATM   26  O   UNL     1      -9.720   4.641  70.603  1.00  0.00    -0.174 OA 
HETATM   27  O   UNL     1      -7.663   4.962  72.010  1.00  0.00    -0.094 OA 
BRANCH  25  28
HETATM   28  N   UNL     1      -9.798   5.921  72.803  1.00  0.00    -0.166 N  
HETATM   29  H   UNL     1      -9.311   6.403  73.559  1.00  0.00     0.000 HD 
BRANCH  28  30
HETATM   30  C   UNL     1     -11.152   5.693  72.954  1.00  0.00    -0.292 C  
HETATM   31  O   UNL     1     -11.636   4.603  73.212  1.00  0.00    -0.314 OA 
BRANCH  30  32
HETATM   32  N   UNL     1     -11.885   6.826  72.775  1.00  0.00    -0.487 N  
HETATM   33  H   UNL     1     -11.930   7.515  73.526  1.00  0.00     0.000 HD 
BRANCH  32  34
HETATM   34  C   UNL     1     -12.608   7.078  71.533  1.00  0.00    -0.385 C  
HETATM   35  C   UNL     1     -14.018   7.617  71.806  1.00  0.00    -0.471 C  
HETATM   36  C   UNL     1     -13.979   9.008  72.436  1.00  0.00    -0.517 C  
HETATM   37  C   UNL     1     -13.154   9.990  71.609  1.00  0.00    -0.547 C  
HETATM   38  C   UNL     1     -11.769   9.456  71.246  1.00  0.00    -0.432 C  
HETATM   39  C   UNL     1     -11.832   8.053  70.644  1.00  0.00    -0.102 C  
ENDBRANCH  32  34
ENDBRANCH  30  32
ENDBRANCH  28  30
ENDBRANCH  25  28
ENDBRANCH  22  25
ENDBRANCH  18  19
ENDBRANCH  17  18
ENDBRANCH  14  17
ENDBRANCH   2   3
TORSDOF 9
ENDMDL
MODEL       36
REMARK 921   NORMALIZED FREE ENERGY PREDICTED BY IDOCK:   -6.29 KCAL/MOL
REMARK 922        TOTAL FREE ENERGY PREDICTED BY IDOCK:  -11.74 KCAL/MOL
REMARK 923 INTER-LIGAND FREE ENERGY PREDICTED BY IDOCK:   -9.36 KCAL/MOL
REMARK 924 INTRA-LIGAND FREE ENERGY PREDICTED BY IDOCK:   -2.38 KCAL/MOL
REMARK 927      BINDING AFFINITY PREDICTED BY RF-SCORE:    0.00 PKD
ROOT
HETATM    1  C   UNL     1      -5.284  10.041  68.001  1.00  0.00    -0.035 C  
HETATM    2  O   UNL     1      -6.036   9.166  67.165  1.00  0.00    -0.056 OA 
ENDROOT
BRANCH   2   3
HETATM    3  C   UNL     1      -7.045   8.486  67.787  1.00  0.00    -0.083 A  
HETATM    4  C   UNL     1      -7.599   8.833  69.014  1.00  0.00    -0.090 A  
HETATM    5  C   UNL     1      -8.664   8.087  69.538  1.00  0.00    -0.136 A  
HETATM    6  C   UNL     1      -9.158   6.953  68.873  1.00  0.00    -0.134 A  
HETATM    7  C   UNL     1      -8.615   6.641  67.617  1.00  0.00    -0.120 A  
HETATM    8  C   UNL     1     -10.293   6.141  69.486  1.00  0.00    -0.277 C  
HETATM    9  C   UNL     1     -10.549   6.548  70.945  1.00  0.00    -0.230 C  
HETATM   10  C   UNL     1     -11.611   6.455  68.743  1.00  0.00     0.137 C  
HETATM   11  C   UNL     1     -10.024   4.627  69.424  1.00  0.00    -0.249 C  
HETATM   12  C   UNL     1      -7.580   7.411  67.077  1.00  0.00    -0.106 A  
HETATM   13  O   UNL     1     -10.928   5.767  71.814  1.00  0.00    -0.258 OA 
HETATM   14  N   UNL     1     -10.472   7.914  71.143  1.00  0.00    -0.204 N  
HETATM   15  O   UNL     1      -8.967   9.649  71.274  1.00  0.00    -0.128 OA 
HETATM   16  C   UNL     1      -9.362   8.621  70.734  1.00  0.00    -0.191 C  
BRANCH  14  17
HETATM   17  C   UNL     1     -11.449   8.547  71.999  1.00  0.00    -0.361 C  
BRANCH  17  18
HETATM   18  C   UNL     1     -12.735   9.045  71.339  1.00  0.00    -0.361 C  
BRANCH  18  19
HETATM   19  C   UNL     1     -12.728  10.557  71.181  1.00  0.00    -0.518 A  
HETATM   20  C   UNL     1     -12.094  11.188  70.097  1.00  0.00    -0.443 A  
HETATM   21  C   UNL     1     -12.047  12.579  70.002  1.00  0.00    -0.337 A  
HETATM   22  C   UNL     1     -12.667  13.352  70.978  1.00  0.00    -0.307 A  
HETATM   23  C   UNL     1     -13.371  11.353  72.139  1.00  0.00    -0.271 A  
HETATM   24  C   UNL     1     -13.329  12.747  72.046  1.00  0.00    -0.565 A  
BRANCH  22  25
HETATM   25  S   UNL     1     -12.558  15.118  70.871  1.00  0.00    -0.415 S  
HETATM   26  O   UNL     1     -13.769  15.639  70.274  1.00  0.00    -0.027 OA 
HETATM   27  O   UNL     1     -12.109  15.602  72.160  1.00  0.00    -0.359 OA 
BRANCH  25  28
HETATM   28  N   UNL     1     -11.275  15.360  69.846  1.00  0.00    -0.273 N  
HETATM   29  H   UNL     1     -10.362  15.006  70.134  1.00  0.00     0.000 HD 
BRANCH  28  30
HETATM   30  C   UNL     1     -11.358  16.009  68.629  1.00  0.00    -0.383 C  
HETATM   31  O   UNL     1     -11.083  17.186  68.462  1.00  0.00    -0.270 OA 
BRANCH  30  32
HETATM   32  N   UNL     1     -11.791  15.183  67.638  1.00  0.00    -0.381 N  
HETATM   33  H   UNL     1     -12.650  14.649  67.773  1.00  0.00     0.000 HD 
BRANCH  32  34
HETATM   34  C   UNL     1     -11.056  15.044  66.386  1.00  0.00    -0.329 C  
HETATM   35  C   UNL     1      -9.598  14.635  66.635  1.00  0.00    -0.294 C  
HETATM   36  C   UNL     1      -9.498  13.227  67.217  1.00  0.00    -0.233 C  
HETATM   37  C   UNL     1     -10.231  12.197  66.360  1.00  0.00    -0.245 C  
HETATM   38  C   UNL     1     -11.663  12.607  66.020  1.00  0.00    -0.470 C  
HETATM   39  C   UNL     1     -11.740  14.029  65.467  1.00  0.00    -0.353 C  
ENDBRANCH  32  34
ENDBRANCH  30  32
ENDBRANCH  28  30
ENDBRANCH  25  28
ENDBRANCH  22  25
ENDBRANCH  18  19
ENDBRANCH  17  18
ENDBRANCH  14  17
ENDBRANCH   2   3
TORSDOF 9
ENDMDL
MODEL       37
REMARK 921   NORMALIZED FREE ENERGY PREDICTED BY IDOCK:   -6.27 KCAL/MOL
REMARK 922        TOTAL FREE ENERGY PREDICTED BY IDOCK:  -11.72 KCAL/MOL
REMARK 923 INTER-LIGAND FREE ENERGY PREDICTED BY IDOCK:   -9.94 KCAL/MOL
REMARK 924 INTRA-LIGAND FREE ENERGY PREDICTED BY IDOCK:   -1.78 KCAL/MOL
REMARK 927      BINDING AFFINITY PREDICTED BY RF-SCORE:    0.00 PKD
ROOT
HETATM    1  C   UNL     1      -6.319   8.067  65.161  1.00  0.00    -0.045 C  
HETATM    2  O   UNL     1      -5.802   7.512  66.367  1.00  0.00    -0.034 OA 
ENDROOT
BRANCH   2   3
HETATM    3  C   UNL     1      -6.738   7.184  67.308  1.00  0.00    -0.064 A  
HETATM    4  C   UNL     1      -7.104   7.990  68.379  1.00  0.00    -0.084 A  
HETATM    5  C   UNL     1      -8.111   7.570  69.259  1.00  0.00    -0.126 A  
HETATM    6  C   UNL     1      -8.731   6.318  69.116  1.00  0.00    -0.123 A  
HETATM    7  C   UNL     1      -8.378   5.535  68.006  1.00  0.00    -0.099 A  
HETATM    8  C   UNL     1      -9.798   5.874  70.110  1.00  0.00    -0.226 C  
HETATM    9  C   UNL     1      -9.835   6.795  71.340  1.00  0.00    -0.178 C  
HETATM   10  C   UNL     1     -11.194   6.009  69.464  1.00  0.00    -0.416 C  
HETATM   11  C   UNL     1      -9.591   4.422  70.574  1.00  0.00    -0.269 C  
HETATM   12  C   UNL     1      -7.402   5.974  67.106  1.00  0.00    -0.076 A  
HETATM   13  O   UNL     1     -10.116   6.408  72.472  1.00  0.00    -0.175 OA 
HETATM   14  N   UNL     1      -9.685   8.130  71.016  1.00  0.00    -0.160 N  
HETATM   15  O   UNL     1      -8.118   9.668  70.330  1.00  0.00    -0.166 OA 
HETATM   16  C   UNL     1      -8.619   8.551  70.251  1.00  0.00    -0.137 C  
BRANCH  14  17
HETATM   17  C   UNL     1     -10.512   9.105  71.691  1.00  0.00    -0.332 C  
BRANCH  17  18
HETATM   18  C   UNL     1     -11.883   9.395  71.081  1.00  0.00    -0.413 C  
BRANCH  18  19
HETATM   19  C   UNL     1     -11.835  10.600  70.156  1.00  0.00    -0.421 A  
HETATM   20  C   UNL     1     -11.371  10.505  68.832  1.00  0.00    -0.313 A  
HETATM   21  C   UNL     1     -11.277  11.634  68.019  1.00  0.00    -0.327 A  
HETATM   22  C   UNL     1     -11.683  12.868  68.515  1.00  0.00    -0.339 A  
HETATM   23  C   UNL     1     -12.265  11.849  70.627  1.00  0.00    -0.424 A  
HETATM   24  C   UNL     1     -12.177  12.983  69.815  1.00  0.00    -0.242 A  
BRANCH  22  25
HETATM   25  S   UNL     1     -11.514  14.303  67.488  1.00  0.00    -0.364 S  
HETATM   26  O   UNL     1     -10.111  14.551  67.234  1.00  0.00    -0.244 OA 
HETATM   27  O   UNL     1     -12.444  14.157  66.386  1.00  0.00    -0.461 OA 
BRANCH  25  28
HETATM   28  N   UNL     1     -12.141  15.520  68.426  1.00  0.00    -0.493 N  
HETATM   29  H   UNL     1     -13.156  15.607  68.477  1.00  0.00     0.000 HD 
BRANCH  28  30
HETATM   30  C   UNL     1     -11.382  16.424  69.143  1.00  0.00    -0.241 C  
HETATM   31  O   UNL     1     -11.230  16.380  70.353  1.00  0.00    -0.378 OA 
BRANCH  30  32
HETATM   32  N   UNL     1     -10.827  17.375  68.342  1.00  0.00    -0.296 N  
HETATM   33  H   UNL     1     -11.267  17.592  67.448  1.00  0.00     0.000 HD 
BRANCH  32  34
HETATM   34  C   UNL     1      -9.619  18.091  68.735  1.00  0.00    -0.301 C  
HETATM   35  C   UNL     1      -8.491  17.888  67.715  1.00  0.00    -0.242 C  
HETATM   36  C   UNL     1      -8.820  18.537  66.372  1.00  0.00    -0.267 C  
HETATM   37  C   UNL     1      -9.182  20.012  66.520  1.00  0.00    -0.471 C  
HETATM   38  C   UNL     1     -10.246  20.266  67.586  1.00  0.00    -0.469 C  
HETATM   39  C   UNL     1      -9.909  19.584  68.912  1.00  0.00    -0.522 C  
ENDBRANCH  32  34
ENDBRANCH  30  32
ENDBRANCH  28  30
ENDBRANCH  25  28
ENDBRANCH  22  25
ENDBRANCH  18  19
ENDBRANCH  17  18
ENDBRANCH  14  17
ENDBRANCH   2   3
TORSDOF 9
ENDMDL
MODEL       38
REMARK 921   NORMALIZED FREE ENERGY PREDICTED BY IDOCK:   -6.27 KCAL/MOL
REMARK 922        TOTAL FREE ENERGY PREDICTED BY IDOCK:  -11.72 KCAL/MOL
REMARK 923 INTER-LIGAND FREE ENERGY PREDICTED BY IDOCK:   -9.98 KCAL/MOL
REMARK 924 INTRA-LIGAND FREE ENERGY PREDICTED BY IDOCK:   -1.74 KCAL/MOL
REMARK 927      BINDING AFFINITY PREDICTED BY RF-SCORE:    0.00 PKD
ROOT
HETATM    1  C   UNL     1     -10.019  11.316  63.219  1.00  0.00    -0.393 C  
HETATM    2  O   UNL     1     -10.704  12.556  63.374  1.00  0.00    -0.426 OA 
ENDROOT
BRANCH   2   3
HETATM    3  C   UNL     1     -10.815  13.006  64.660  1.00  0.00    -0.354 A  
HETATM    4  C   UNL     1     -11.318  12.264  65.721  1.00  0.00    -0.400 A  
HETATM    5  C   UNL     1     -11.344  12.813  67.010  1.00  0.00    -0.364 A  
HETATM    6  C   UNL     1     -10.918  14.129  67.252  1.00  0.00    -0.304 A  
HETATM    7  C   UNL     1     -10.376  14.851  66.177  1.00  0.00    -0.312 A  
HETATM    8  C   UNL     1     -10.992  14.711  68.659  1.00  0.00    -0.266 C  
HETATM    9  C   UNL     1     -11.822  13.817  69.592  1.00  0.00    -0.333 C  
HETATM   10  C   UNL     1      -9.578  14.740  69.281  1.00  0.00    -0.082 C  
HETATM   11  C   UNL     1     -11.580  16.133  68.669  1.00  0.00    -0.283 C  
HETATM   12  C   UNL     1     -10.313  14.285  64.900  1.00  0.00    -0.429 A  
HETATM   13  O   UNL     1     -12.513  14.247  70.513  1.00  0.00    -0.324 OA 
HETATM   14  N   UNL     1     -11.583  12.469  69.398  1.00  0.00    -0.300 N  
HETATM   15  O   UNL     1     -11.990  10.744  67.932  1.00  0.00    -0.518 OA 
HETATM   16  C   UNL     1     -11.682  11.912  68.142  1.00  0.00    -0.320 C  
BRANCH  14  17
HETATM   17  C   UNL     1     -11.473  11.610  70.555  1.00  0.00     0.268 C  
BRANCH  17  18
HETATM   18  C   UNL     1     -12.626  10.641  70.814  1.00  0.00    -0.479 C  
BRANCH  18  19
HETATM   19  C   UNL     1     -12.131   9.340  71.426  1.00  0.00    -0.424 A  
HETATM   20  C   UNL     1     -10.819   9.197  71.908  1.00  0.00    -0.353 A  
HETATM   21  C   UNL     1     -10.365   7.978  72.409  1.00  0.00    -0.355 A  
HETATM   22  C   UNL     1     -11.236   6.896  72.465  1.00  0.00    -0.267 A  
HETATM   23  C   UNL     1     -13.002   8.245  71.516  1.00  0.00    -0.310 A  
HETATM   24  C   UNL     1     -12.553   7.022  72.021  1.00  0.00    -0.254 A  
BRANCH  22  25
HETATM   25  S   UNL     1     -10.634   5.338  73.060  1.00  0.00    -0.257 S  
HETATM   26  O   UNL     1      -9.540   5.565  73.980  1.00  0.00    -0.134 OA 
HETATM   27  O   UNL     1     -11.784   4.558  73.468  1.00  0.00    -0.239 OA 
BRANCH  25  28
HETATM   28  N   UNL     1     -10.071   4.596  71.686  1.00  0.00    -0.194 N  
HETATM   29  H   UNL     1     -10.668   3.897  71.245  1.00  0.00     0.000 HD 
BRANCH  28  30
HETATM   30  C   UNL     1      -8.849   4.862  71.100  1.00  0.00    -0.127 C  
HETATM   31  O   UNL     1      -7.789   4.399  71.489  1.00  0.00    -0.078 OA 
BRANCH  30  32
HETATM   32  N   UNL     1      -8.964   5.707  70.039  1.00  0.00    -0.135 N  
HETATM   33  H   UNL     1      -8.440   6.582  70.040  1.00  0.00     0.000 HD 
BRANCH  32  34
HETATM   34  C   UNL     1      -9.818   5.389  68.900  1.00  0.00    -0.166 C  
HETATM   35  C   UNL     1     -11.039   6.316  68.841  1.00  0.00    -0.434 C  
HETATM   36  C   UNL     1     -10.639   7.760  68.542  1.00  0.00    -0.153 C  
HETATM   37  C   UNL     1      -9.789   7.870  67.278  1.00  0.00    -0.256 C  
HETATM   38  C   UNL     1      -8.607   6.903  67.262  1.00  0.00    -0.120 C  
HETATM   39  C   UNL     1      -9.028   5.471  67.592  1.00  0.00    -0.108 C  
ENDBRANCH  32  34
ENDBRANCH  30  32
ENDBRANCH  28  30
ENDBRANCH  25  28
ENDBRANCH  22  25
ENDBRANCH  18  19
ENDBRANCH  17  18
ENDBRANCH  14  17
ENDBRANCH   2   3
TORSDOF 9
ENDMDL
MODEL       39
REMARK 921   NORMALIZED FREE ENERGY PREDICTED BY IDOCK:   -6.26 KCAL/MOL
REMARK 922        TOTAL FREE ENERGY PREDICTED BY IDOCK:  -11.71 KCAL/MOL
REMARK 923 INTER-LIGAND FREE ENERGY PREDICTED BY IDOCK:  -10.59 KCAL/MOL
REMARK 924 INTRA-LIGAND FREE ENERGY PREDICTED BY IDOCK:   -1.12 KCAL/MOL
REMARK 927      BINDING AFFINITY PREDICTED BY RF-SCORE:    0.00 PKD
ROOT
HETATM    1  C   UNL     1      -7.727  20.529  67.225  1.00  0.00    -0.332 C  
HETATM    2  O   UNL     1      -9.085  20.298  66.860  1.00  0.00    -0.342 OA 
ENDROOT
BRANCH   2   3
HETATM    3  C   UNL     1      -9.519  19.010  67.008  1.00  0.00    -0.317 A  
HETATM    4  C   UNL     1     -10.234  18.298  66.052  1.00  0.00    -0.334 A  
HETATM    5  C   UNL     1     -10.590  16.964  66.293  1.00  0.00    -0.191 A  
HETATM    6  C   UNL     1     -10.285  16.337  67.512  1.00  0.00    -0.270 A  
HETATM    7  C   UNL     1      -9.529  17.056  68.450  1.00  0.00    -0.269 A  
HETATM    8  C   UNL     1     -10.718  14.896  67.760  1.00  0.00    -0.271 C  
HETATM    9  C   UNL     1     -11.713  14.418  66.691  1.00  0.00    -0.394 C  
HETATM   10  C   UNL     1      -9.497  13.959  67.621  1.00  0.00    -0.212 C  
HETATM   11  C   UNL     1     -11.345  14.709  69.152  1.00  0.00    -0.305 C  
HETATM   12  C   UNL     1      -9.139  18.374  68.189  1.00  0.00    -0.325 A  
HETATM   13  O   UNL     1     -12.621  13.620  66.913  1.00  0.00    -0.233 OA 
HETATM   14  N   UNL     1     -11.382  14.847  65.419  1.00  0.00    -0.349 N  
HETATM   15  O   UNL     1     -11.358  16.718  64.081  1.00  0.00    -1.194 OA 
HETATM   16  C   UNL     1     -11.155  16.182  65.165  1.00  0.00    -0.249 C  
BRANCH  14  17
HETATM   17  C   UNL     1     -11.520  13.921  64.318  1.00  0.00    -0.318 C  
BRANCH  17  18
HETATM   18  C   UNL     1     -12.034  12.520  64.647  1.00  0.00    -0.468 C  
BRANCH  18  19
HETATM   19  C   UNL     1     -10.904  11.502  64.651  1.00  0.00    -0.372 A  
HETATM   20  C   UNL     1     -10.236  11.128  63.472  1.00  0.00    -0.446 A  
HETATM   21  C   UNL     1      -9.245  10.148  63.488  1.00  0.00    -0.322 A  
HETATM   22  C   UNL     1      -8.887   9.556  64.694  1.00  0.00    -0.213 A  
HETATM   23  C   UNL     1     -10.510  10.913  65.861  1.00  0.00    -0.285 A  
HETATM   24  C   UNL     1      -9.514   9.933  65.882  1.00  0.00    -0.272 A  
BRANCH  22  25
HETATM   25  S   UNL     1      -7.659   8.278  64.693  1.00  0.00    -0.113 S  
HETATM   26  O   UNL     1      -6.676   8.556  63.668  1.00  0.00    -0.083 OA 
HETATM   27  O   UNL     1      -7.247   8.074  66.067  1.00  0.00    -0.067 OA 
BRANCH  25  28
HETATM   28  N   UNL     1      -8.523   6.918  64.293  1.00  0.00    -0.335 N  
HETATM   29  H   UNL     1      -9.240   7.005  63.574  1.00  0.00     0.000 HD 
BRANCH  28  30
HETATM   30  C   UNL     1      -8.335   5.676  64.868  1.00  0.00    -0.139 C  
HETATM   31  O   UNL     1      -7.869   4.715  64.279  1.00  0.00    -0.082 OA 
BRANCH  30  32
HETATM   32  N   UNL     1      -8.738   5.648  66.167  1.00  0.00    -0.131 N  
HETATM   33  H   UNL     1      -8.065   5.865  66.902  1.00  0.00     0.000 HD 
BRANCH  32  34
HETATM   34  C   UNL     1     -10.110   5.314  66.534  1.00  0.00    -0.229 C  
HETATM   35  C   UNL     1     -10.152   4.329  67.709  1.00  0.00     0.024 C  
HETATM   36  C   UNL     1      -9.627   4.962  68.996  1.00  0.00    -0.224 C  
HETATM   37  C   UNL     1     -10.348   6.266  69.331  1.00  0.00    -0.266 C  
HETATM   38  C   UNL     1     -10.400   7.243  68.158  1.00  0.00    -0.234 C  
HETATM   39  C   UNL     1     -10.901   6.580  66.876  1.00  0.00    -0.427 C  
ENDBRANCH  32  34
ENDBRANCH  30  32
ENDBRANCH  28  30
ENDBRANCH  25  28
ENDBRANCH  22  25
ENDBRANCH  18  19
ENDBRANCH  17  18
ENDBRANCH  14  17
ENDBRANCH   2   3
TORSDOF 9
ENDMDL
MODEL       40
REMARK 921   NORMALIZED FREE ENERGY PREDICTED BY IDOCK:   -6.26 KCAL/MOL
REMARK 922        TOTAL FREE ENERGY PREDICTED BY IDOCK:  -11.71 KCAL/MOL
REMARK 923 INTER-LIGAND FREE ENERGY PREDICTED BY IDOCK:   -9.49 KCAL/MOL
REMARK 924 INTRA-LIGAND FREE ENERGY PREDICTED BY IDOCK:   -2.22 KCAL/MOL
REMARK 927      BINDING AFFINITY PREDICTED BY RF-SCORE:    0.00 PKD
ROOT
HETATM    1  C   UNL     1     -13.410  16.075  73.433  1.00  0.00    -0.487 C  
HETATM    2  O   UNL     1     -14.100  15.295  72.460  1.00  0.00    -0.509 OA 
ENDROOT
BRANCH   2   3
HETATM    3  C   UNL     1     -13.305  14.689  71.527  1.00  0.00    -0.364 A  
HETATM    4  C   UNL     1     -12.957  13.343  71.534  1.00  0.00    -0.429 A  
HETATM    5  C   UNL     1     -12.172  12.818  70.499  1.00  0.00    -0.389 A  
HETATM    6  C   UNL     1     -11.676  13.636  69.471  1.00  0.00    -0.380 A  
HETATM    7  C   UNL     1     -12.070  14.983  69.457  1.00  0.00    -0.311 A  
HETATM    8  C   UNL     1     -10.794  13.043  68.379  1.00  0.00    -0.280 C  
HETATM    9  C   UNL     1     -10.330  11.624  68.743  1.00  0.00    -0.195 C  
HETATM   10  C   UNL     1     -11.618  12.877  67.083  1.00  0.00    -0.421 C  
HETATM   11  C   UNL     1      -9.561  13.917  68.089  1.00  0.00    -0.218 C  
HETATM   12  C   UNL     1     -12.889  15.496  70.469  1.00  0.00    -0.402 A  
HETATM   13  O   UNL     1      -9.242  11.157  68.413  1.00  0.00    -0.162 OA 
HETATM   14  N   UNL     1     -11.325  10.868  69.334  1.00  0.00    -0.254 N  
HETATM   15  O   UNL     1     -12.500  10.626  71.297  1.00  0.00    -0.358 OA 
HETATM   16  C   UNL     1     -12.010  11.343  70.431  1.00  0.00    -0.374 C  
BRANCH  14  17
HETATM   17  C   UNL     1     -11.468   9.483  68.945  1.00  0.00     0.324 C  
BRANCH  17  18
HETATM   18  C   UNL     1     -10.478   8.486  69.548  1.00  0.00    -0.222 C  
BRANCH  18  19
HETATM   19  C   UNL     1     -10.058   7.437  68.531  1.00  0.00    -0.187 A  
HETATM   20  C   UNL     1      -8.714   7.062  68.362  1.00  0.00    -0.125 A  
HETATM   21  C   UNL     1      -8.342   6.142  67.381  1.00  0.00    -0.108 A  
HETATM   22  C   UNL     1      -9.321   5.562  66.582  1.00  0.00    -0.141 A  
HETATM   23  C   UNL     1     -11.032   6.821  67.733  1.00  0.00    -0.321 A  
HETATM   24  C   UNL     1     -10.665   5.896  66.752  1.00  0.00    -0.371 A  
BRANCH  22  25
HETATM   25  S   UNL     1      -8.830   4.431  65.308  1.00  0.00    -0.142 S  
HETATM   26  O   UNL     1      -7.515   3.906  65.611  1.00  0.00    -0.078 OA 
HETATM   27  O   UNL     1      -9.942   3.533  65.076  1.00  0.00    -0.146 OA 
BRANCH  25  28
HETATM   28  N   UNL     1      -8.756   5.389  63.955  1.00  0.00    -0.337 N  
HETATM   29  H   UNL     1      -9.399   5.182  63.190  1.00  0.00     0.000 HD 
BRANCH  28  30
HETATM   30  C   UNL     1      -7.884   6.447  63.793  1.00  0.00    -0.111 C  
HETATM   31  O   UNL     1      -6.670   6.330  63.739  1.00  0.00    -0.035 OA 
BRANCH  30  32
HETATM   32  N   UNL     1      -8.535   7.639  63.707  1.00  0.00    -0.361 N  
HETATM   33  H   UNL     1      -9.487   7.662  63.340  1.00  0.00     0.000 HD 
BRANCH  32  34
HETATM   34  C   UNL     1      -7.904   8.885  64.129  1.00  0.00    -0.135 C  
HETATM   35  C   UNL     1      -8.133  10.003  63.104  1.00  0.00    -0.156 C  
HETATM   36  C   UNL     1      -9.604  10.406  63.026  1.00  0.00    -0.341 C  
HETATM   37  C   UNL     1     -10.173  10.774  64.394  1.00  0.00    -0.432 C  
HETATM   38  C   UNL     1      -9.895   9.721  65.464  1.00  0.00    -0.378 C  
HETATM   39  C   UNL     1      -8.422   9.314  65.504  1.00  0.00    -0.151 C  
ENDBRANCH  32  34
ENDBRANCH  30  32
ENDBRANCH  28  30
ENDBRANCH  25  28
ENDBRANCH  22  25
ENDBRANCH  18  19
ENDBRANCH  17  18
ENDBRANCH  14  17
ENDBRANCH   2   3
TORSDOF 9
ENDMDL
MODEL       41
REMARK 921   NORMALIZED FREE ENERGY PREDICTED BY IDOCK:   -6.25 KCAL/MOL
REMARK 922        TOTAL FREE ENERGY PREDICTED BY IDOCK:  -11.69 KCAL/MOL
REMARK 923 INTER-LIGAND FREE ENERGY PREDICTED BY IDOCK:  -10.75 KCAL/MOL
REMARK 924 INTRA-LIGAND FREE ENERGY PREDICTED BY IDOCK:   -0.94 KCAL/MOL
REMARK 927      BINDING AFFINITY PREDICTED BY RF-SCORE:    0.00 PKD
ROOT
HETATM    1  C   UNL     1     -13.792  14.263  72.364  1.00  0.00    -0.518 C  
HETATM    2  O   UNL     1     -13.191  13.841  71.143  1.00  0.00    -0.289 OA 
ENDROOT
BRANCH   2   3
HETATM    3  C   UNL     1     -12.784  12.536  71.111  1.00  0.00    -0.245 A  
HETATM    4  C   UNL     1     -11.772  12.039  70.299  1.00  0.00    -0.267 A  
HETATM    5  C   UNL     1     -11.408  10.688  70.382  1.00  0.00    -0.389 A  
HETATM    6  C   UNL     1     -12.083   9.801  71.237  1.00  0.00    -0.470 A  
HETATM    7  C   UNL     1     -13.075  10.327  72.078  1.00  0.00    -0.529 A  
HETATM    8  C   UNL     1     -11.688   8.329  71.278  1.00  0.00    -0.318 C  
HETATM    9  C   UNL     1     -10.749   7.968  70.117  1.00  0.00    -0.244 C  
HETATM   10  C   UNL     1     -10.870   8.050  72.559  1.00  0.00    -0.415 C  
HETATM   11  C   UNL     1     -12.913   7.398  71.245  1.00  0.00    -0.358 C  
HETATM   12  C   UNL     1     -13.408  11.685  72.023  1.00  0.00    -0.405 A  
HETATM   13  O   UNL     1     -10.739   6.870  69.565  1.00  0.00    -0.224 OA 
HETATM   14  N   UNL     1      -9.804   8.945  69.866  1.00  0.00    -0.177 N  
HETATM   15  O   UNL     1      -9.560  11.048  68.968  1.00  0.00    -0.190 OA 
HETATM   16  C   UNL     1     -10.184  10.253  69.662  1.00  0.00    -0.235 C  
BRANCH  14  17
HETATM   17  C   UNL     1      -8.448   8.539  69.576  1.00  0.00    -0.127 C  
BRANCH  17  18
HETATM   18  C   UNL     1      -8.189   7.907  68.208  1.00  0.00    -0.124 C  
BRANCH  18  19
HETATM   19  C   UNL     1      -8.627   8.827  67.080  1.00  0.00    -0.119 A  
HETATM   20  C   UNL     1      -7.752   9.762  66.500  1.00  0.00    -0.105 A  
HETATM   21  C   UNL     1      -8.190  10.639  65.508  1.00  0.00    -0.141 A  
HETATM   22  C   UNL     1      -9.504  10.563  65.061  1.00  0.00    -0.244 A  
HETATM   23  C   UNL     1      -9.940   8.748  66.595  1.00  0.00    -0.355 A  
HETATM   24  C   UNL     1     -10.383   9.622  65.599  1.00  0.00     0.058 A  
BRANCH  22  25
HETATM   25  S   UNL     1     -10.061  11.714  63.834  1.00  0.00    -0.390 S  
HETATM   26  O   UNL     1      -9.180  11.658  62.686  1.00  0.00    -0.349 OA 
HETATM   27  O   UNL     1     -11.487  11.518  63.673  1.00  0.00    -0.412 OA 
BRANCH  25  28
HETATM   28  N   UNL     1      -9.908  13.183  64.591  1.00  0.00    -0.595 N  
HETATM   29  H   UNL     1      -9.444  13.935  64.081  1.00  0.00     0.000 HD 
BRANCH  28  30
HETATM   30  C   UNL     1     -10.368  13.458  65.864  1.00  0.00    -0.290 C  
HETATM   31  O   UNL     1     -11.351  12.934  66.363  1.00  0.00    -0.293 OA 
BRANCH  30  32
HETATM   32  N   UNL     1      -9.600  14.386  66.497  1.00  0.00    -0.281 N  
HETATM   33  H   UNL     1      -9.209  14.169  67.414  1.00  0.00     0.000 HD 
BRANCH  32  34
HETATM   34  C   UNL     1      -9.321  15.684  65.893  1.00  0.00    -0.321 C  
HETATM   35  C   UNL     1     -10.516  16.635  66.034  1.00  0.00    -0.306 C  
HETATM   36  C   UNL     1     -10.768  17.013  67.493  1.00  0.00    -0.266 C  
HETATM   37  C   UNL     1      -9.519  17.579  68.164  1.00  0.00    -0.291 C  
HETATM   38  C   UNL     1      -8.285  16.699  67.976  1.00  0.00    -0.185 C  
HETATM   39  C   UNL     1      -8.070  16.311  66.514  1.00  0.00    -0.337 C  
ENDBRANCH  32  34
ENDBRANCH  30  32
ENDBRANCH  28  30
ENDBRANCH  25  28
ENDBRANCH  22  25
ENDBRANCH  18  19
ENDBRANCH  17  18
ENDBRANCH  14  17
ENDBRANCH   2   3
TORSDOF 9
ENDMDL
MODEL       42
REMARK 921   NORMALIZED FREE ENERGY PREDICTED BY IDOCK:   -6.25 KCAL/MOL
REMARK 922        TOTAL FREE ENERGY PREDICTED BY IDOCK:  -11.68 KCAL/MOL
REMARK 923 INTER-LIGAND FREE ENERGY PREDICTED BY IDOCK:   -9.74 KCAL/MOL
REMARK 924 INTRA-LIGAND FREE ENERGY PREDICTED BY IDOCK:   -1.94 KCAL/MOL
REMARK 927      BINDING AFFINITY PREDICTED BY RF-SCORE:    0.00 PKD
ROOT
HETATM    1  C   UNL     1     -10.510  19.477  65.735  1.00  0.00    -0.425 C  
HETATM    2  O   UNL     1     -10.949  18.388  64.926  1.00  0.00    -0.598 OA 
ENDROOT
BRANCH   2   3
HETATM    3  C   UNL     1     -10.946  17.166  65.539  1.00  0.00     0.064 A  
HETATM    4  C   UNL     1     -11.342  15.976  64.940  1.00  0.00    -0.232 A  
HETATM    5  C   UNL     1     -11.253  14.771  65.650  1.00  0.00    -0.343 A  
HETATM    6  C   UNL     1     -10.819  14.742  66.986  1.00  0.00    -0.315 A  
HETATM    7  C   UNL     1     -10.386  15.945  67.562  1.00  0.00    -0.283 A  
HETATM    8  C   UNL     1     -10.768  13.420  67.745  1.00  0.00    -0.259 C  
HETATM    9  C   UNL     1     -11.500  12.307  66.980  1.00  0.00    -0.354 C  
HETATM   10  C   UNL     1      -9.303  12.941  67.849  1.00  0.00    -0.208 C  
HETATM   11  C   UNL     1     -11.366  13.538  69.157  1.00  0.00    -0.333 C  
HETATM   12  C   UNL     1     -10.436  17.140  66.836  1.00  0.00    -0.274 A  
HETATM   13  O   UNL     1     -12.107  11.388  67.527  1.00  0.00    -0.592 OA 
HETATM   14  N   UNL     1     -11.267  12.348  65.618  1.00  0.00    -0.309 N  
HETATM   15  O   UNL     1     -11.792  13.536  63.719  1.00  0.00    -0.427 OA 
HETATM   16  C   UNL     1     -11.477  13.507  64.904  1.00  0.00    -0.334 C  
BRANCH  14  17
HETATM   17  C   UNL     1     -11.042  11.105  64.915  1.00  0.00    -0.047 C  
BRANCH  17  18
HETATM   18  C   UNL     1      -9.590  10.669  64.719  1.00  0.00    -0.334 C  
BRANCH  18  19
HETATM   19  C   UNL     1      -9.311   9.344  65.412  1.00  0.00    -0.311 A  
HETATM   20  C   UNL     1      -8.313   8.464  64.958  1.00  0.00    -0.169 A  
HETATM   21  C   UNL     1      -8.113   7.227  65.569  1.00  0.00    -0.132 A  
HETATM   22  C   UNL     1      -8.890   6.874  66.667  1.00  0.00    -0.135 A  
HETATM   23  C   UNL     1     -10.064   8.981  66.537  1.00  0.00    -0.354 A  
HETATM   24  C   UNL     1      -9.864   7.744  67.156  1.00  0.00    -0.270 A  
BRANCH  22  25
HETATM   25  S   UNL     1      -8.658   5.279  67.406  1.00  0.00    -0.103 S  
HETATM   26  O   UNL     1      -9.948   4.696  67.708  1.00  0.00    -0.152 OA 
HETATM   27  O   UNL     1      -7.702   4.560  66.589  1.00  0.00    -0.092 OA 
BRANCH  25  28
HETATM   28  N   UNL     1      -7.850   5.624  68.815  1.00  0.00    -0.095 N  
HETATM   29  H   UNL     1      -7.005   6.192  68.752  1.00  0.00     0.000 HD 
BRANCH  28  30
HETATM   30  C   UNL     1      -8.246   5.195  70.066  1.00  0.00    -0.082 C  
HETATM   31  O   UNL     1      -7.871   4.154  70.582  1.00  0.00    -0.051 OA 
BRANCH  30  32
HETATM   32  N   UNL     1      -9.108   6.067  70.657  1.00  0.00    -0.149 N  
HETATM   33  H   UNL     1      -8.791   7.011  70.876  1.00  0.00     0.000 HD 
BRANCH  32  34
HETATM   34  C   UNL     1     -10.476   5.681  70.985  1.00  0.00    -0.250 C  
HETATM   35  C   UNL     1     -10.739   5.776  72.493  1.00  0.00    -0.279 C  
HETATM   36  C   UNL     1     -10.692   7.221  72.985  1.00  0.00    -0.384 C  
HETATM   37  C   UNL     1     -11.633   8.128  72.194  1.00  0.00    -0.417 C  
HETATM   38  C   UNL     1     -11.458   8.002  70.682  1.00  0.00    -0.237 C  
HETATM   39  C   UNL     1     -11.480   6.546  70.218  1.00  0.00    -0.474 C  
ENDBRANCH  32  34
ENDBRANCH  30  32
ENDBRANCH  28  30
ENDBRANCH  25  28
ENDBRANCH  22  25
ENDBRANCH  18  19
ENDBRANCH  17  18
ENDBRANCH  14  17
ENDBRANCH   2   3
TORSDOF 9
ENDMDL
MODEL       43
REMARK 921   NORMALIZED FREE ENERGY PREDICTED BY IDOCK:   -6.23 KCAL/MOL
REMARK 922        TOTAL FREE ENERGY PREDICTED BY IDOCK:  -11.66 KCAL/MOL
REMARK 923 INTER-LIGAND FREE ENERGY PREDICTED BY IDOCK:  -10.21 KCAL/MOL
REMARK 924 INTRA-LIGAND FREE ENERGY PREDICTED BY IDOCK:   -1.45 KCAL/MOL
REMARK 927      BINDING AFFINITY PREDICTED BY RF-SCORE:    0.00 PKD
ROOT
HETATM    1  C   UNL     1     -12.658  15.353  73.935  1.00  0.00    -0.611 C  
HETATM    2  O   UNL     1     -13.148  14.486  72.916  1.00  0.00    -0.467 OA 
ENDROOT
BRANCH   2   3
HETATM    3  C   UNL     1     -12.452  14.515  71.739  1.00  0.00    -0.348 A  
HETATM    4  C   UNL     1     -12.352  13.453  70.849  1.00  0.00    -0.436 A  
HETATM    5  C   UNL     1     -11.648  13.610  69.647  1.00  0.00    -0.342 A  
HETATM    6  C   UNL     1     -10.987  14.811  69.341  1.00  0.00    -0.282 A  
HETATM    7  C   UNL     1     -11.131  15.885  70.231  1.00  0.00    -0.381 A  
HETATM    8  C   UNL     1     -10.197  14.939  68.043  1.00  0.00    -0.228 C  
HETATM    9  C   UNL     1     -10.007  13.573  67.365  1.00  0.00    -0.234 C  
HETATM   10  C   UNL     1     -11.004  15.782  67.029  1.00  0.00    -0.221 C  
HETATM   11  C   UNL     1      -8.820  15.590  68.262  1.00  0.00    -0.179 C  
HETATM   12  C   UNL     1     -11.869  15.738  71.410  1.00  0.00    -0.503 A  
HETATM   13  O   UNL     1      -9.012  13.271  66.709  1.00  0.00    -0.228 OA 
HETATM   14  N   UNL     1     -11.137  12.780  67.428  1.00  0.00    -0.263 N  
HETATM   15  O   UNL     1     -12.386  11.509  68.882  1.00  0.00    -0.400 OA 
HETATM   16  C   UNL     1     -11.753  12.529  68.635  1.00  0.00    -0.325 C  
BRANCH  14  17
HETATM   17  C   UNL     1     -11.516  12.020  66.258  1.00  0.00    -0.345 C  
BRANCH  17  18
HETATM   18  C   UNL     1     -10.387  11.400  65.435  1.00  0.00    -0.331 C  
BRANCH  18  19
HETATM   19  C   UNL     1     -10.021  10.017  65.948  1.00  0.00    -0.339 A  
HETATM   20  C   UNL     1      -8.898   9.320  65.469  1.00  0.00    -0.224 A  
HETATM   21  C   UNL     1      -8.614   8.027  65.907  1.00  0.00    -0.171 A  
HETATM   22  C   UNL     1      -9.435   7.432  66.859  1.00  0.00    -0.162 A  
HETATM   23  C   UNL     1     -10.821   9.410  66.926  1.00  0.00    -0.055 A  
HETATM   24  C   UNL     1     -10.538   8.116  67.372  1.00  0.00    -0.325 A  
BRANCH  22  25
HETATM   25  S   UNL     1      -9.090   5.770  67.372  1.00  0.00    -0.109 S  
HETATM   26  O   UNL     1     -10.274   5.197  67.976  1.00  0.00    -0.164 OA 
HETATM   27  O   UNL     1      -8.436   5.103  66.265  1.00  0.00    -0.112 OA 
BRANCH  25  28
HETATM   28  N   UNL     1      -7.908   5.963  68.522  1.00  0.00    -0.101 N  
HETATM   29  H   UNL     1      -6.951   6.110  68.200  1.00  0.00     0.000 HD 
BRANCH  28  30
HETATM   30  C   UNL     1      -8.132   5.939  69.884  1.00  0.00    -0.116 C  
HETATM   31  O   UNL     1      -7.671   5.097  70.637  1.00  0.00    -0.075 OA 
BRANCH  30  32
HETATM   32  N   UNL     1      -8.934   6.961  70.289  1.00  0.00    -0.152 N  
HETATM   33  H   UNL     1      -9.103   7.743  69.656  1.00  0.00     0.000 HD 
BRANCH  32  34
HETATM   34  C   UNL     1      -9.558   6.964  71.608  1.00  0.00    -0.161 C  
HETATM   35  C   UNL     1      -9.703   8.390  72.155  1.00  0.00    -0.370 C  
HETATM   36  C   UNL     1     -10.696   9.212  71.335  1.00  0.00    -0.414 C  
HETATM   37  C   UNL     1     -12.050   8.519  71.209  1.00  0.00    -0.323 C  
HETATM   38  C   UNL     1     -11.943   7.068  70.743  1.00  0.00    -0.392 C  
HETATM   39  C   UNL     1     -10.924   6.274  71.560  1.00  0.00    -0.322 C  
ENDBRANCH  32  34
ENDBRANCH  30  32
ENDBRANCH  28  30
ENDBRANCH  25  28
ENDBRANCH  22  25
ENDBRANCH  18  19
ENDBRANCH  17  18
ENDBRANCH  14  17
ENDBRANCH   2   3
TORSDOF 9
ENDMDL
MODEL       44
REMARK 921   NORMALIZED FREE ENERGY PREDICTED BY IDOCK:   -6.19 KCAL/MOL
REMARK 922        TOTAL FREE ENERGY PREDICTED BY IDOCK:  -11.59 KCAL/MOL
REMARK 923 INTER-LIGAND FREE ENERGY PREDICTED BY IDOCK:   -9.06 KCAL/MOL
REMARK 924 INTRA-LIGAND FREE ENERGY PREDICTED BY IDOCK:   -2.54 KCAL/MOL
REMARK 927      BINDING AFFINITY PREDICTED BY RF-SCORE:    0.00 PKD
ROOT
HETATM    1  C   UNL     1     -10.236  18.885  66.740  1.00  0.00    -0.394 C  
HETATM    2  O   UNL     1     -10.426  18.289  65.459  1.00  0.00    -0.616 OA 
ENDROOT
BRANCH   2   3
HETATM    3  C   UNL     1     -10.421  16.923  65.443  1.00  0.00    -0.154 A  
HETATM    4  C   UNL     1      -9.542  16.122  66.163  1.00  0.00    -0.359 A  
HETATM    5  C   UNL     1      -9.659  14.727  66.106  1.00  0.00    -0.338 A  
HETATM    6  C   UNL     1     -10.619  14.107  65.289  1.00  0.00    -0.387 A  
HETATM    7  C   UNL     1     -11.524  14.929  64.601  1.00  0.00    -0.380 A  
HETATM    8  C   UNL     1     -10.698  12.586  65.220  1.00  0.00    -0.318 C  
HETATM    9  C   UNL     1      -9.471  11.932  65.874  1.00  0.00    -0.214 C  
HETATM   10  C   UNL     1     -11.906  12.094  66.048  1.00  0.00    -0.328 C  
HETATM   11  C   UNL     1     -10.831  12.076  63.775  1.00  0.00    -0.481 C  
HETATM   12  C   UNL     1     -11.432  16.322  64.692  1.00  0.00    -0.168 A  
HETATM   13  O   UNL     1      -8.978  10.873  65.491  1.00  0.00    -0.191 OA 
HETATM   14  N   UNL     1      -9.081  12.566  67.039  1.00  0.00    -0.207 N  
HETATM   15  O   UNL     1      -8.056  14.474  67.813  1.00  0.00    -0.134 OA 
HETATM   16  C   UNL     1      -8.847  13.923  67.055  1.00  0.00    -0.218 C  
BRANCH  14  17
HETATM   17  C   UNL     1      -8.681  11.757  68.168  1.00  0.00    -0.168 C  
BRANCH  17  18
HETATM   18  C   UNL     1      -9.783  10.986  68.896  1.00  0.00    -0.184 C  
BRANCH  18  19
HETATM   19  C   UNL     1      -9.521   9.489  68.872  1.00  0.00    -0.155 A  
HETATM   20  C   UNL     1     -10.390   8.592  68.227  1.00  0.00    -0.246 A  
HETATM   21  C   UNL     1     -10.166   7.216  68.268  1.00  0.00    -0.210 A  
HETATM   22  C   UNL     1      -9.044   6.727  68.929  1.00  0.00    -0.133 A  
HETATM   23  C   UNL     1      -8.382   8.977  69.509  1.00  0.00    -0.117 A  
HETATM   24  C   UNL     1      -8.150   7.599  69.550  1.00  0.00    -0.127 A  
BRANCH  22  25
HETATM   25  S   UNL     1      -8.796   4.974  69.014  1.00  0.00    -0.094 S  
HETATM   26  O   UNL     1      -9.914   4.298  68.392  1.00  0.00    -0.083 OA 
HETATM   27  O   UNL     1      -7.441   4.708  68.574  1.00  0.00    -0.064 OA 
BRANCH  25  28
HETATM   28  N   UNL     1      -8.789   4.668  70.646  1.00  0.00    -0.102 N  
HETATM   29  H   UNL     1      -7.888   4.650  71.123  1.00  0.00     0.000 HD 
BRANCH  28  30
HETATM   30  C   UNL     1      -9.922   4.437  71.402  1.00  0.00    -0.178 C  
HETATM   31  O   UNL     1     -10.085   3.453  72.104  1.00  0.00    -0.164 OA 
BRANCH  30  32
HETATM   32  N   UNL     1     -10.839   5.433  71.267  1.00  0.00    -0.182 N  
HETATM   33  H   UNL     1     -11.037   5.806  70.338  1.00  0.00     0.000 HD 
BRANCH  32  34
HETATM   34  C   UNL     1     -11.547   5.979  72.419  1.00  0.00    -0.300 C  
HETATM   35  C   UNL     1     -10.620   6.837  73.290  1.00  0.00    -0.335 C  
HETATM   36  C   UNL     1     -10.176   8.105  72.563  1.00  0.00    -0.383 C  
HETATM   37  C   UNL     1     -11.361   8.914  72.040  1.00  0.00    -0.427 C  
HETATM   38  C   UNL     1     -12.352   8.075  71.235  1.00  0.00    -0.290 C  
HETATM   39  C   UNL     1     -12.760   6.799  71.971  1.00  0.00    -0.230 C  
ENDBRANCH  32  34
ENDBRANCH  30  32
ENDBRANCH  28  30
ENDBRANCH  25  28
ENDBRANCH  22  25
ENDBRANCH  18  19
ENDBRANCH  17  18
ENDBRANCH  14  17
ENDBRANCH   2   3
TORSDOF 9
ENDMDL
MODEL       45
REMARK 921   NORMALIZED FREE ENERGY PREDICTED BY IDOCK:   -6.18 KCAL/MOL
REMARK 922        TOTAL FREE ENERGY PREDICTED BY IDOCK:  -11.57 KCAL/MOL
REMARK 923 INTER-LIGAND FREE ENERGY PREDICTED BY IDOCK:  -10.28 KCAL/MOL
REMARK 924 INTRA-LIGAND FREE ENERGY PREDICTED BY IDOCK:   -1.29 KCAL/MOL
REMARK 927      BINDING AFFINITY PREDICTED BY RF-SCORE:    0.00 PKD
ROOT
HETATM    1  C   UNL     1      -9.502   1.534  64.548  1.00  0.00    -0.113 C  
HETATM    2  O   UNL     1      -9.696   2.946  64.536  1.00  0.00    -0.153 OA 
ENDROOT
BRANCH   2   3
HETATM    3  C   UNL     1      -9.441   3.582  65.719  1.00  0.00    -0.138 A  
HETATM    4  C   UNL     1      -9.524   4.955  65.918  1.00  0.00    -0.171 A  
HETATM    5  C   UNL     1      -9.284   5.495  67.189  1.00  0.00    -0.111 A  
HETATM    6  C   UNL     1      -8.904   4.680  68.268  1.00  0.00    -0.122 A  
HETATM    7  C   UNL     1      -8.863   3.293  68.060  1.00  0.00    -0.159 A  
HETATM    8  C   UNL     1      -8.613   5.300  69.630  1.00  0.00    -0.101 C  
HETATM    9  C   UNL     1      -8.505   6.830  69.537  1.00  0.00    -0.133 C  
HETATM   10  C   UNL     1      -9.802   5.038  70.581  1.00  0.00    -0.282 C  
HETATM   11  C   UNL     1      -7.325   4.742  70.260  1.00  0.00    -0.051 C  
HETATM   12  C   UNL     1      -9.145   2.753  66.801  1.00  0.00    -0.164 A  
HETATM   13  O   UNL     1      -7.760   7.505  70.243  1.00  0.00    -0.089 OA 
HETATM   14  N   UNL     1      -9.452   7.385  68.696  1.00  0.00    -0.139 N  
HETATM   15  O   UNL     1      -9.991   7.623  66.472  1.00  0.00    -0.219 OA 
HETATM   16  C   UNL     1      -9.597   6.930  67.404  1.00  0.00    -0.136 C  
BRANCH  14  17
HETATM   17  C   UNL     1     -10.111   8.605  69.103  1.00  0.00    -0.199 C  
BRANCH  17  18
HETATM   18  C   UNL     1      -9.394   9.920  68.796  1.00  0.00    -0.157 C  
BRANCH  18  19
HETATM   19  C   UNL     1     -10.155  10.739  67.766  1.00  0.00    -0.201 A  
HETATM   20  C   UNL     1      -9.819  10.715  66.401  1.00  0.00    -0.259 A  
HETATM   21  C   UNL     1     -10.490  11.521  65.481  1.00  0.00    -0.327 A  
HETATM   22  C   UNL     1     -11.530  12.335  65.916  1.00  0.00    -0.376 A  
HETATM   23  C   UNL     1     -11.224  11.546  68.180  1.00  0.00    -0.335 A  
HETATM   24  C   UNL     1     -11.902  12.352  67.261  1.00  0.00    -0.357 A  
BRANCH  22  25
HETATM   25  S   UNL     1     -12.342  13.389  64.745  1.00  0.00    -0.383 S  
HETATM   26  O   UNL     1     -12.785  12.601  63.615  1.00  0.00    -0.711 OA 
HETATM   27  O   UNL     1     -13.284  14.208  65.482  1.00  0.00    -0.688 OA 
BRANCH  25  28
HETATM   28  N   UNL     1     -11.140  14.431  64.271  1.00  0.00    -0.605 N  
HETATM   29  H   UNL     1     -10.515  14.128  63.525  1.00  0.00     0.000 HD 
BRANCH  28  30
HETATM   30  C   UNL     1     -10.930  15.681  64.818  1.00  0.00    -0.400 C  
HETATM   31  O   UNL     1     -11.250  16.727  64.276  1.00  0.00    -1.163 OA 
BRANCH  30  32
HETATM   32  N   UNL     1     -10.317  15.613  66.031  1.00  0.00    -0.315 N  
HETATM   33  H   UNL     1      -9.700  14.826  66.234  1.00  0.00     0.000 HD 
BRANCH  32  34
HETATM   34  C   UNL     1     -10.521  16.638  67.048  1.00  0.00    -0.283 C  
HETATM   35  C   UNL     1     -11.049  16.033  68.355  1.00  0.00    -0.351 C  
HETATM   36  C   UNL     1     -10.009  15.133  69.021  1.00  0.00    -0.239 C  
HETATM   37  C   UNL     1      -8.678  15.850  69.232  1.00  0.00    -0.250 C  
HETATM   38  C   UNL     1      -8.158  16.537  67.970  1.00  0.00    -0.168 C  
HETATM   39  C   UNL     1      -9.224  17.409  67.307  1.00  0.00    -0.234 C  
ENDBRANCH  32  34
ENDBRANCH  30  32
ENDBRANCH  28  30
ENDBRANCH  25  28
ENDBRANCH  22  25
ENDBRANCH  18  19
ENDBRANCH  17  18
ENDBRANCH  14  17
ENDBRANCH   2   3
TORSDOF 9
ENDMDL
MODEL       46
REMARK 921   NORMALIZED FREE ENERGY PREDICTED BY IDOCK:   -6.17 KCAL/MOL
REMARK 922        TOTAL FREE ENERGY PREDICTED BY IDOCK:  -11.57 KCAL/MOL
REMARK 923 INTER-LIGAND FREE ENERGY PREDICTED BY IDOCK:  -10.26 KCAL/MOL
REMARK 924 INTRA-LIGAND FREE ENERGY PREDICTED BY IDOCK:   -1.31 KCAL/MOL
REMARK 927      BINDING AFFINITY PREDICTED BY RF-SCORE:    0.00 PKD
ROOT
HETATM    1  C   UNL     1      -8.783   3.889  65.444  1.00  0.00    -0.116 C  
HETATM    2  O   UNL     1      -9.314   5.212  65.414  1.00  0.00    -0.150 OA 
ENDROOT
BRANCH   2   3
HETATM    3  C   UNL     1      -9.638   5.740  66.632  1.00  0.00    -0.152 A  
HETATM    4  C   UNL     1      -9.562   7.089  66.959  1.00  0.00    -0.199 A  
HETATM    5  C   UNL     1      -9.963   7.525  68.229  1.00  0.00    -0.193 A  
HETATM    6  C   UNL     1     -10.396   6.618  69.209  1.00  0.00    -0.228 A  
HETATM    7  C   UNL     1     -10.505   5.266  68.850  1.00  0.00    -0.190 A  
HETATM    8  C   UNL     1     -10.791   7.119  70.594  1.00  0.00    -0.268 C  
HETATM    9  C   UNL     1     -10.370   8.582  70.802  1.00  0.00    -0.198 C  
HETATM   10  C   UNL     1     -12.331   7.122  70.721  1.00  0.00    -0.273 C  
HETATM   11  C   UNL     1     -10.190   6.257  71.718  1.00  0.00    -0.224 C  
HETATM   12  C   UNL     1     -10.143   4.839  67.569  1.00  0.00    -0.161 A  
HETATM   13  O   UNL     1     -10.025   9.045  71.887  1.00  0.00    -0.332 OA 
HETATM   14  N   UNL     1     -10.578   9.365  69.681  1.00  0.00    -0.218 N  
HETATM   15  O   UNL     1      -9.754   9.778  67.574  1.00  0.00    -0.149 OA 
HETATM   16  C   UNL     1     -10.072   8.988  68.457  1.00  0.00    -0.190 C  
BRANCH  14  17
HETATM   17  C   UNL     1     -11.114  10.696  69.856  1.00  0.00    -0.298 C  
BRANCH  17  18
HETATM   18  C   UNL     1     -12.137  11.175  68.826  1.00  0.00    -0.232 C  
BRANCH  18  19
HETATM   19  C   UNL     1     -11.680  12.455  68.144  1.00  0.00    -0.408 A  
HETATM   20  C   UNL     1     -11.726  12.610  66.747  1.00  0.00    -0.460 A  
HETATM   21  C   UNL     1     -11.246  13.768  66.136  1.00  0.00    -0.301 A  
HETATM   22  C   UNL     1     -10.745  14.799  66.924  1.00  0.00    -0.308 A  
HETATM   23  C   UNL     1     -11.197  13.516  68.921  1.00  0.00    -0.316 A  
HETATM   24  C   UNL     1     -10.718  14.680  68.314  1.00  0.00    -0.240 A  
BRANCH  22  25
HETATM   25  S   UNL     1     -10.094  16.245  66.132  1.00  0.00    -0.362 S  
HETATM   26  O   UNL     1      -8.651  16.147  66.063  1.00  0.00    -0.330 OA 
HETATM   27  O   UNL     1     -10.871  16.466  64.930  1.00  0.00    -0.655 OA 
BRANCH  25  28
HETATM   28  N   UNL     1     -10.528  17.472  67.162  1.00  0.00    -0.332 N  
HETATM   29  H   UNL     1     -11.063  17.228  67.995  1.00  0.00     0.000 HD 
BRANCH  28  30
HETATM   30  C   UNL     1     -10.213  18.803  66.967  1.00  0.00    -0.381 C  
HETATM   31  O   UNL     1     -10.867  19.732  67.413  1.00  0.00    -0.424 OA 
BRANCH  30  32
HETATM   32  N   UNL     1      -9.091  18.959  66.214  1.00  0.00    -0.301 N  
HETATM   33  H   UNL     1      -8.954  18.367  65.394  1.00  0.00     0.000 HD 
BRANCH  32  34
HETATM   34  C   UNL     1      -8.078  19.954  66.550  1.00  0.00    -0.328 C  
HETATM   35  C   UNL     1      -7.416  19.644  67.899  1.00  0.00    -0.321 C  
HETATM   36  C   UNL     1      -6.590  18.361  67.841  1.00  0.00    -0.208 C  
HETATM   37  C   UNL     1      -5.568  18.385  66.708  1.00  0.00    -0.161 C  
HETATM   38  C   UNL     1      -6.174  18.770  65.359  1.00  0.00    -0.317 C  
HETATM   39  C   UNL     1      -7.019  20.041  65.449  1.00  0.00    -0.332 C  
ENDBRANCH  32  34
ENDBRANCH  30  32
ENDBRANCH  28  30
ENDBRANCH  25  28
ENDBRANCH  22  25
ENDBRANCH  18  19
ENDBRANCH  17  18
ENDBRANCH  14  17
ENDBRANCH   2   3
TORSDOF 9
ENDMDL
MODEL       47
REMARK 921   NORMALIZED FREE ENERGY PREDICTED BY IDOCK:   -6.15 KCAL/MOL
REMARK 922        TOTAL FREE ENERGY PREDICTED BY IDOCK:  -11.53 KCAL/MOL
REMARK 923 INTER-LIGAND FREE ENERGY PREDICTED BY IDOCK:  -10.87 KCAL/MOL
REMARK 924 INTRA-LIGAND FREE ENERGY PREDICTED BY IDOCK:   -0.66 KCAL/MOL
REMARK 927      BINDING AFFINITY PREDICTED BY RF-SCORE:    0.00 PKD
ROOT
HETATM    1  C   UNL     1      -6.437   5.887  73.758  1.00  0.00    -0.070 C  
HETATM    2  O   UNL     1      -7.438   6.535  74.539  1.00  0.00    -0.099 OA 
ENDROOT
BRANCH   2   3
HETATM    3  C   UNL     1      -8.456   7.106  73.828  1.00  0.00    -0.147 A  
HETATM    4  C   UNL     1      -8.292   8.066  72.835  1.00  0.00    -0.229 A  
HETATM    5  C   UNL     1      -9.406   8.550  72.138  1.00  0.00    -0.353 A  
HETATM    6  C   UNL     1     -10.707   8.126  72.456  1.00  0.00    -0.419 A  
HETATM    7  C   UNL     1     -10.852   7.128  73.432  1.00  0.00    -0.360 A  
HETATM    8  C   UNL     1     -11.903   8.699  71.704  1.00  0.00    -0.389 C  
HETATM    9  C   UNL     1     -11.504   9.919  70.862  1.00  0.00    -0.376 C  
HETATM   10  C   UNL     1     -12.419   7.658  70.686  1.00  0.00     0.093 C  
HETATM   11  C   UNL     1     -13.050   9.094  72.652  1.00  0.00    -0.345 C  
HETATM   12  C   UNL     1      -9.733   6.616  74.097  1.00  0.00    -0.309 A  
HETATM   13  O   UNL     1     -12.248  10.874  70.648  1.00  0.00    -0.314 OA 
HETATM   14  N   UNL     1     -10.284   9.760  70.230  1.00  0.00    -0.277 N  
HETATM   15  O   UNL     1      -8.020   9.718  70.635  1.00  0.00    -0.272 OA 
HETATM   16  C   UNL     1      -9.163   9.403  70.947  1.00  0.00    -0.173 C  
BRANCH  14  17
HETATM   17  C   UNL     1     -10.146  10.212  68.864  1.00  0.00    -0.200 C  
BRANCH  17  18
HETATM   18  C   UNL     1     -11.390  10.798  68.196  1.00  0.00    -0.377 C  
BRANCH  18  19
HETATM   19  C   UNL     1     -11.114  12.178  67.621  1.00  0.00    -0.320 A  
HETATM   20  C   UNL     1     -11.480  12.523  66.309  1.00  0.00    -0.421 A  
HETATM   21  C   UNL     1     -11.163  13.773  65.779  1.00  0.00    -0.300 A  
HETATM   22  C   UNL     1     -10.504  14.705  66.573  1.00  0.00    -0.290 A  
HETATM   23  C   UNL     1     -10.474  13.141  68.414  1.00  0.00    -0.261 A  
HETATM   24  C   UNL     1     -10.157  14.396  67.889  1.00  0.00    -0.228 A  
BRANCH  22  25
HETATM   25  S   UNL     1     -10.064  16.273  65.872  1.00  0.00    -0.352 S  
HETATM   26  O   UNL     1      -8.628  16.341  65.708  1.00  0.00    -0.348 OA 
HETATM   27  O   UNL     1     -10.943  16.503  64.744  1.00  0.00    -0.688 OA 
BRANCH  25  28
HETATM   28  N   UNL     1     -10.552  17.359  67.029  1.00  0.00    -0.285 N  
HETATM   29  H   UNL     1     -10.982  16.989  67.877  1.00  0.00     0.000 HD 
BRANCH  28  30
HETATM   30  C   UNL     1     -10.414  18.729  66.923  1.00  0.00    -0.414 C  
HETATM   31  O   UNL     1     -11.159  19.534  67.456  1.00  0.00    -0.398 OA 
BRANCH  30  32
HETATM   32  N   UNL     1      -9.351  19.077  66.147  1.00  0.00    -0.284 N  
HETATM   33  H   UNL     1      -9.233  18.634  65.235  1.00  0.00     0.000 HD 
BRANCH  32  34
HETATM   34  C   UNL     1      -8.378  20.070  66.588  1.00  0.00    -0.317 C  
HETATM   35  C   UNL     1      -7.885  19.776  68.010  1.00  0.00    -0.342 C  
HETATM   36  C   UNL     1      -7.068  18.487  68.071  1.00  0.00    -0.246 C  
HETATM   37  C   UNL     1      -5.918  18.487  67.067  1.00  0.00    -0.171 C  
HETATM   38  C   UNL     1      -6.355  18.856  65.651  1.00  0.00    -0.291 C  
HETATM   39  C   UNL     1      -7.193  20.133  65.620  1.00  0.00    -0.303 C  
ENDBRANCH  32  34
ENDBRANCH  30  32
ENDBRANCH  28  30
ENDBRANCH  25  28
ENDBRANCH  22  25
ENDBRANCH  18  19
ENDBRANCH  17  18
ENDBRANCH  14  17
ENDBRANCH   2   3
TORSDOF 9
ENDMDL
MODEL       48
REMARK 921   NORMALIZED FREE ENERGY PREDICTED BY IDOCK:   -6.14 KCAL/MOL
REMARK 922        TOTAL FREE ENERGY PREDICTED BY IDOCK:  -11.52 KCAL/MOL
REMARK 923 INTER-LIGAND FREE ENERGY PREDICTED BY IDOCK:   -9.53 KCAL/MOL
REMARK 924 INTRA-LIGAND FREE ENERGY PREDICTED BY IDOCK:   -1.99 KCAL/MOL
REMARK 927      BINDING AFFINITY PREDICTED BY RF-SCORE:    0.00 PKD
ROOT
HETATM    1  C   UNL     1     -12.824   9.206  71.388  1.00  0.00    -0.313 C  
HETATM    2  O   UNL     1     -11.496   9.548  71.776  1.00  0.00    -0.384 OA 
ENDROOT
BRANCH   2   3
HETATM    3  C   UNL     1     -10.506   9.053  70.975  1.00  0.00    -0.269 A  
HETATM    4  C   UNL     1     -10.655   8.738  69.629  1.00  0.00    -0.220 A  
HETATM    5  C   UNL     1      -9.556   8.278  68.891  1.00  0.00    -0.153 A  
HETATM    6  C   UNL     1      -8.305   8.074  69.496  1.00  0.00    -0.127 A  
HETATM    7  C   UNL     1      -8.161   8.435  70.844  1.00  0.00    -0.118 A  
HETATM    8  C   UNL     1      -7.138   7.538  68.675  1.00  0.00    -0.081 C  
HETATM    9  C   UNL     1      -7.607   7.015  67.309  1.00  0.00    -0.108 C  
HETATM   10  C   UNL     1      -6.162   8.691  68.351  1.00  0.00    -0.054 C  
HETATM   11  C   UNL     1      -6.376   6.420  69.409  1.00  0.00    -0.035 C  
HETATM   12  C   UNL     1      -9.249   8.933  71.568  1.00  0.00    -0.322 A  
HETATM   13  O   UNL     1      -7.084   6.068  66.725  1.00  0.00    -0.066 OA 
HETATM   14  N   UNL     1      -8.568   7.819  66.726  1.00  0.00    -0.128 N  
HETATM   15  O   UNL     1     -10.786   8.408  66.887  1.00  0.00    -0.279 OA 
HETATM   16  C   UNL     1      -9.708   8.165  67.419  1.00  0.00    -0.170 C  
BRANCH  14  17
HETATM   17  C   UNL     1      -8.482   8.086  65.308  1.00  0.00    -0.117 C  
BRANCH  17  18
HETATM   18  C   UNL     1      -7.756   9.362  64.883  1.00  0.00    -0.111 C  
BRANCH  18  19
HETATM   19  C   UNL     1      -8.709  10.543  64.802  1.00  0.00    -0.196 A  
HETATM   20  C   UNL     1      -8.931  11.396  65.897  1.00  0.00    -0.184 A  
HETATM   21  C   UNL     1      -9.855  12.437  65.822  1.00  0.00    -0.253 A  
HETATM   22  C   UNL     1     -10.543  12.656  64.634  1.00  0.00    -0.333 A  
HETATM   23  C   UNL     1      -9.392  10.798  63.604  1.00  0.00    -0.301 A  
HETATM   24  C   UNL     1     -10.317  11.843  63.523  1.00  0.00    -0.495 A  
BRANCH  22  25
HETATM   25  S   UNL     1     -11.749  13.953  64.567  1.00  0.00    -0.415 S  
HETATM   26  O   UNL     1     -12.667  13.701  63.476  1.00  0.00    -0.724 OA 
HETATM   27  O   UNL     1     -12.247  14.150  65.913  1.00  0.00    -0.412 OA 
BRANCH  25  28
HETATM   28  N   UNL     1     -10.841  15.304  64.239  1.00  0.00    -0.480 N  
HETATM   29  H   UNL     1     -10.421  15.381  63.312  1.00  0.00     0.000 HD 
BRANCH  28  30
HETATM   30  C   UNL     1     -10.615  16.329  65.135  1.00  0.00    -0.304 C  
HETATM   31  O   UNL     1     -11.062  17.458  65.009  1.00  0.00    -0.662 OA 
BRANCH  30  32
HETATM   32  N   UNL     1      -9.829  15.937  66.175  1.00  0.00    -0.292 N  
HETATM   33  H   UNL     1      -8.886  15.596  65.986  1.00  0.00     0.000 HD 
BRANCH  32  34
HETATM   34  C   UNL     1     -10.303  15.993  67.553  1.00  0.00    -0.287 C  
HETATM   35  C   UNL     1      -9.610  14.940  68.427  1.00  0.00    -0.209 C  
HETATM   36  C   UNL     1      -8.121  15.235  68.594  1.00  0.00    -0.156 C  
HETATM   37  C   UNL     1      -7.870  16.648  69.114  1.00  0.00    -0.170 C  
HETATM   38  C   UNL     1      -8.610  17.723  68.319  1.00  0.00    -0.277 C  
HETATM   39  C   UNL     1     -10.091  17.391  68.141  1.00  0.00    -0.328 C  
ENDBRANCH  32  34
ENDBRANCH  30  32
ENDBRANCH  28  30
ENDBRANCH  25  28
ENDBRANCH  22  25
ENDBRANCH  18  19
ENDBRANCH  17  18
ENDBRANCH  14  17
ENDBRANCH   2   3
TORSDOF 9
ENDMDL
MODEL       49
REMARK 921   NORMALIZED FREE ENERGY PREDICTED BY IDOCK:   -6.12 KCAL/MOL
REMARK 922        TOTAL FREE ENERGY PREDICTED BY IDOCK:  -11.49 KCAL/MOL
REMARK 923 INTER-LIGAND FREE ENERGY PREDICTED BY IDOCK:  -11.03 KCAL/MOL
REMARK 924 INTRA-LIGAND FREE ENERGY PREDICTED BY IDOCK:   -0.46 KCAL/MOL
REMARK 927      BINDING AFFINITY PREDICTED BY RF-SCORE:    0.00 PKD
ROOT
HETATM    1  C   UNL     1     -13.223   7.225  71.564  1.00  0.00    -0.379 C  
HETATM    2  O   UNL     1     -12.169   6.517  70.917  1.00  0.00    -0.329 OA 
ENDROOT
BRANCH   2   3
HETATM    3  C   UNL     1     -11.156   7.294  70.429  1.00  0.00    -0.268 A  
HETATM    4  C   UNL     1     -10.474   7.058  69.241  1.00  0.00    -0.223 A  
HETATM    5  C   UNL     1      -9.481   7.950  68.814  1.00  0.00    -0.147 A  
HETATM    6  C   UNL     1      -9.114   9.061  69.591  1.00  0.00    -0.155 A  
HETATM    7  C   UNL     1      -9.839   9.307  70.767  1.00  0.00    -0.350 A  
HETATM    8  C   UNL     1      -8.004   9.992  69.118  1.00  0.00    -0.116 C  
HETATM    9  C   UNL     1      -7.228   9.385  67.939  1.00  0.00    -0.082 C  
HETATM   10  C   UNL     1      -8.624  11.294  68.564  1.00  0.00    -0.156 C  
HETATM   11  C   UNL     1      -7.017  10.339  70.246  1.00  0.00    -0.136 C  
HETATM   12  C   UNL     1     -10.859   8.438  71.169  1.00  0.00    -0.286 A  
HETATM   13  O   UNL     1      -6.029   9.572  67.744  1.00  0.00    -0.051 OA 
HETATM   14  N   UNL     1      -8.048   8.746  67.029  1.00  0.00    -0.099 N  
HETATM   15  O   UNL     1      -9.309   6.843  66.742  1.00  0.00    -0.147 OA 
HETATM   16  C   UNL     1      -8.937   7.779  67.443  1.00  0.00    -0.123 C  
BRANCH  14  17
HETATM   17  C   UNL     1      -7.788   8.923  65.618  1.00  0.00    -0.096 C  
BRANCH  17  18
HETATM   18  C   UNL     1      -8.992   8.878  64.677  1.00  0.00    -0.042 C  
BRANCH  18  19
HETATM   19  C   UNL     1      -9.776  10.179  64.717  1.00  0.00    -0.389 A  
HETATM   20  C   UNL     1     -10.408  10.632  65.889  1.00  0.00    -0.291 A  
HETATM   21  C   UNL     1     -11.173  11.797  65.889  1.00  0.00    -0.345 A  
HETATM   22  C   UNL     1     -11.284  12.542  64.720  1.00  0.00    -0.306 A  
HETATM   23  C   UNL     1      -9.878  10.959  63.556  1.00  0.00    -0.407 A  
HETATM   24  C   UNL     1     -10.641  12.130  63.553  1.00  0.00    -0.501 A  
BRANCH  22  25
HETATM   25  S   UNL     1     -12.299  13.996  64.722  1.00  0.00    -0.388 S  
HETATM   26  O   UNL     1     -12.574  14.392  63.357  1.00  0.00    -0.729 OA 
HETATM   27  O   UNL     1     -13.386  13.763  65.651  1.00  0.00    -0.561 OA 
BRANCH  25  28
HETATM   28  N   UNL     1     -11.337  15.132  65.456  1.00  0.00    -0.314 N  
HETATM   29  H   UNL     1     -10.919  14.893  66.355  1.00  0.00     0.000 HD 
BRANCH  28  30
HETATM   30  C   UNL     1     -11.063  16.380  64.932  1.00  0.00    -0.239 C  
HETATM   31  O   UNL     1     -11.574  16.821  63.915  1.00  0.00    -1.122 OA 
BRANCH  30  32
HETATM   32  N   UNL     1     -10.150  17.060  65.678  1.00  0.00    -0.179 N  
HETATM   33  H   UNL     1      -9.177  16.754  65.675  1.00  0.00     0.000 HD 
BRANCH  32  34
HETATM   34  C   UNL     1     -10.531  18.216  66.481  1.00  0.00    -0.341 C  
HETATM   35  C   UNL     1     -10.413  17.919  67.982  1.00  0.00    -0.390 C  
HETATM   36  C   UNL     1      -8.960  17.708  68.403  1.00  0.00    -0.280 C  
HETATM   37  C   UNL     1      -8.066  18.875  67.990  1.00  0.00    -0.321 C  
HETATM   38  C   UNL     1      -8.216  19.256  66.518  1.00  0.00    -0.319 C  
HETATM   39  C   UNL     1      -9.679  19.434  66.114  1.00  0.00    -0.423 C  
ENDBRANCH  32  34
ENDBRANCH  30  32
ENDBRANCH  28  30
ENDBRANCH  25  28
ENDBRANCH  22  25
ENDBRANCH  18  19
ENDBRANCH  17  18
ENDBRANCH  14  17
ENDBRANCH   2   3
TORSDOF 9
ENDMDL
MODEL       50
REMARK 921   NORMALIZED FREE ENERGY PREDICTED BY IDOCK:   -6.07 KCAL/MOL
REMARK 922        TOTAL FREE ENERGY PREDICTED BY IDOCK:  -11.41 KCAL/MOL
REMARK 923 INTER-LIGAND FREE ENERGY PREDICTED BY IDOCK:   -9.69 KCAL/MOL
REMARK 924 INTRA-LIGAND FREE ENERGY PREDICTED BY IDOCK:   -1.72 KCAL/MOL
REMARK 927      BINDING AFFINITY PREDICTED BY RF-SCORE:    0.00 PKD
ROOT
HETATM    1  C   UNL     1     -11.341  15.694  64.697  1.00  0.00    -0.349 C  
HETATM    2  O   UNL     1     -10.961  14.503  65.381  1.00  0.00    -0.309 OA 
ENDROOT
BRANCH   2   3
HETATM    3  C   UNL     1     -11.363  14.423  66.685  1.00  0.00    -0.353 A  
HETATM    4  C   UNL     1     -11.669  13.243  67.352  1.00  0.00    -0.419 A  
HETATM    5  C   UNL     1     -12.029  13.277  68.707  1.00  0.00    -0.335 A  
HETATM    6  C   UNL     1     -12.141  14.492  69.402  1.00  0.00    -0.328 A  
HETATM    7  C   UNL     1     -11.791  15.670  68.725  1.00  0.00    -0.336 A  
HETATM    8  C   UNL     1     -12.570  14.499  70.865  1.00  0.00    -0.414 C  
HETATM    9  C   UNL     1     -13.109  13.127  71.297  1.00  0.00    -0.193 C  
HETATM   10  C   UNL     1     -11.338  14.749  71.763  1.00  0.00     0.005 C  
HETATM   11  C   UNL     1     -13.635  15.573  71.153  1.00  0.00    -0.459 C  
HETATM   12  C   UNL     1     -11.392  15.630  67.385  1.00  0.00    -0.163 A  
HETATM   13  O   UNL     1     -14.002  12.976  72.128  1.00  0.00    -0.406 OA 
HETATM   14  N   UNL     1     -12.375  12.075  70.783  1.00  0.00    -0.362 N  
HETATM   15  O   UNL     1     -11.968  10.926  68.832  1.00  0.00    -0.395 OA 
HETATM   16  C   UNL     1     -12.131  11.984  69.430  1.00  0.00    -0.202 C  
BRANCH  14  17
HETATM   17  C   UNL     1     -12.081  10.949  71.640  1.00  0.00     0.143 C  
BRANCH  17  18
HETATM   18  C   UNL     1     -12.955   9.705  71.479  1.00  0.00    -0.486 C  
BRANCH  18  19
HETATM   19  C   UNL     1     -12.192   8.441  71.840  1.00  0.00    -0.395 A  
HETATM   20  C   UNL     1     -12.763   7.164  71.703  1.00  0.00    -0.415 A  
HETATM   21  C   UNL     1     -12.069   6.020  72.097  1.00  0.00    -0.201 A  
HETATM   22  C   UNL     1     -10.779   6.143  72.601  1.00  0.00    -0.229 A  
HETATM   23  C   UNL     1     -10.880   8.541  72.325  1.00  0.00    -0.418 A  
HETATM   24  C   UNL     1     -10.179   7.397  72.717  1.00  0.00    -0.287 A  
BRANCH  22  25
HETATM   25  S   UNL     1      -9.926   4.686  73.142  1.00  0.00    -0.155 S  
HETATM   26  O   UNL     1      -9.069   5.017  74.261  1.00  0.00    -0.114 OA 
HETATM   27  O   UNL     1     -10.910   3.629  73.261  1.00  0.00    -0.186 OA 
BRANCH  25  28
HETATM   28  N   UNL     1      -9.003   4.273  71.826  1.00  0.00    -0.117 N  
HETATM   29  H   UNL     1      -8.017   4.535  71.836  1.00  0.00     0.000 HD 
BRANCH  28  30
HETATM   30  C   UNL     1      -9.478   3.597  70.719  1.00  0.00    -0.168 C  
HETATM   31  O   UNL     1      -9.485   2.382  70.612  1.00  0.00    -0.133 OA 
BRANCH  30  32
HETATM   32  N   UNL     1      -9.932   4.447  69.758  1.00  0.00    -0.215 N  
HETATM   33  H   UNL     1     -10.930   4.478  69.551  1.00  0.00     0.000 HD 
BRANCH  32  34
HETATM   34  C   UNL     1      -9.023   5.314  69.016  1.00  0.00    -0.106 C  
HETATM   35  C   UNL     1      -8.985   4.943  67.528  1.00  0.00    -0.114 C  
HETATM   36  C   UNL     1     -10.320   5.224  66.841  1.00  0.00    -0.303 C  
HETATM   37  C   UNL     1     -10.781   6.665  67.048  1.00  0.00    -0.437 C  
HETATM   38  C   UNL     1     -10.755   7.100  68.512  1.00  0.00    -0.191 C  
HETATM   39  C   UNL     1      -9.420   6.783  69.185  1.00  0.00    -0.141 C  
ENDBRANCH  32  34
ENDBRANCH  30  32
ENDBRANCH  28  30
ENDBRANCH  25  28
ENDBRANCH  22  25
ENDBRANCH  18  19
ENDBRANCH  17  18
ENDBRANCH  14  17
ENDBRANCH   2   3
TORSDOF 9
ENDMDL
MODEL       51
REMARK 921   NORMALIZED FREE ENERGY PREDICTED BY IDOCK:   -6.06 KCAL/MOL
REMARK 922        TOTAL FREE ENERGY PREDICTED BY IDOCK:  -11.40 KCAL/MOL
REMARK 923 INTER-LIGAND FREE ENERGY PREDICTED BY IDOCK:   -9.89 KCAL/MOL
REMARK 924 INTRA-LIGAND FREE ENERGY PREDICTED BY IDOCK:   -1.51 KCAL/MOL
REMARK 927      BINDING AFFINITY PREDICTED BY RF-SCORE:    0.00 PKD
ROOT
HETATM    1  C   UNL     1     -12.641  14.054  65.651  1.00  0.00    -0.512 C  
HETATM    2  O   UNL     1     -12.822  12.948  64.770  1.00  0.00    -0.706 OA 
ENDROOT
BRANCH   2   3
HETATM    3  C   UNL     1     -11.731  12.140  64.615  1.00  0.00    -0.332 A  
HETATM    4  C   UNL     1     -11.253  11.255  65.575  1.00  0.00    -0.069 A  
HETATM    5  C   UNL     1     -10.150  10.440  65.289  1.00  0.00    -0.370 A  
HETATM    6  C   UNL     1      -9.472  10.533  64.062  1.00  0.00    -0.337 A  
HETATM    7  C   UNL     1      -9.990  11.401  63.090  1.00  0.00    -0.402 A  
HETATM    8  C   UNL     1      -8.252   9.659  63.795  1.00  0.00    -0.162 C  
HETATM    9  C   UNL     1      -7.760   8.975  65.079  1.00  0.00    -0.109 C  
HETATM   10  C   UNL     1      -8.643   8.502  62.848  1.00  0.00    -0.026 C  
HETATM   11  C   UNL     1      -7.092  10.455  63.171  1.00  0.00    -0.061 C  
HETATM   12  C   UNL     1     -11.118  12.184  63.363  1.00  0.00    -0.495 A  
HETATM   13  O   UNL     1      -6.579   8.725  65.310  1.00  0.00    -0.066 OA 
HETATM   14  N   UNL     1      -8.794   8.518  65.875  1.00  0.00    -0.173 N  
HETATM   15  O   UNL     1     -10.451   9.245  67.296  1.00  0.00    -0.252 OA 
HETATM   16  C   UNL     1      -9.814   9.363  66.254  1.00  0.00    -0.281 C  
BRANCH  14  17
HETATM   17  C   UNL     1      -8.665   7.224  66.505  1.00  0.00    -0.133 C  
BRANCH  17  18
HETATM   18  C   UNL     1      -7.632   7.094  67.624  1.00  0.00    -0.110 C  
BRANCH  18  19
HETATM   19  C   UNL     1      -8.231   6.446  68.861  1.00  0.00    -0.118 A  
HETATM   20  C   UNL     1      -9.446   5.739  68.815  1.00  0.00    -0.147 A  
HETATM   21  C   UNL     1     -10.011   5.204  69.972  1.00  0.00    -0.326 A  
HETATM   22  C   UNL     1      -9.344   5.341  71.185  1.00  0.00    -0.151 A  
HETATM   23  C   UNL     1      -7.562   6.549  70.088  1.00  0.00    -0.096 A  
HETATM   24  C   UNL     1      -8.121   6.011  71.250  1.00  0.00    -0.118 A  
BRANCH  22  25
HETATM   25  S   UNL     1     -10.095   4.698  72.656  1.00  0.00    -0.178 S  
HETATM   26  O   UNL     1     -10.766   3.452  72.348  1.00  0.00    -0.010 OA 
HETATM   27  O   UNL     1      -9.101   4.754  73.708  1.00  0.00    -0.116 OA 
BRANCH  25  28
HETATM   28  N   UNL     1     -11.214   5.858  73.052  1.00  0.00    -0.415 N  
HETATM   29  H   UNL     1     -12.192   5.574  73.115  1.00  0.00     0.000 HD 
BRANCH  28  30
HETATM   30  C   UNL     1     -10.911   7.182  73.304  1.00  0.00    -0.338 C  
HETATM   31  O   UNL     1      -9.858   7.561  73.791  1.00  0.00    -0.296 OA 
BRANCH  30  32
HETATM   32  N   UNL     1     -11.927   8.015  72.950  1.00  0.00    -0.600 N  
HETATM   33  H   UNL     1     -12.332   8.633  73.653  1.00  0.00     0.000 HD 
BRANCH  32  34
HETATM   34  C   UNL     1     -12.450   8.045  71.589  1.00  0.00    -0.320 C  
HETATM   35  C   UNL     1     -13.616   9.033  71.459  1.00  0.00    -0.395 C  
HETATM   36  C   UNL     1     -13.158  10.477  71.653  1.00  0.00    -0.551 C  
HETATM   37  C   UNL     1     -12.006  10.845  70.721  1.00  0.00    -0.449 C  
HETATM   38  C   UNL     1     -10.856   9.840  70.761  1.00  0.00    -0.403 C  
HETATM   39  C   UNL     1     -11.343   8.400  70.592  1.00  0.00    -0.262 C  
ENDBRANCH  32  34
ENDBRANCH  30  32
ENDBRANCH  28  30
ENDBRANCH  25  28
ENDBRANCH  22  25
ENDBRANCH  18  19
ENDBRANCH  17  18
ENDBRANCH  14  17
ENDBRANCH   2   3
TORSDOF 9
ENDMDL
MODEL       52
REMARK 921   NORMALIZED FREE ENERGY PREDICTED BY IDOCK:   -6.05 KCAL/MOL
REMARK 922        TOTAL FREE ENERGY PREDICTED BY IDOCK:  -11.38 KCAL/MOL
REMARK 923 INTER-LIGAND FREE ENERGY PREDICTED BY IDOCK:   -8.91 KCAL/MOL
REMARK 924 INTRA-LIGAND FREE ENERGY PREDICTED BY IDOCK:   -2.47 KCAL/MOL
REMARK 927      BINDING AFFINITY PREDICTED BY RF-SCORE:    0.00 PKD
ROOT
HETATM    1  C   UNL     1     -14.046   8.838  71.591  1.00  0.00    -0.370 C  
HETATM    2  O   UNL     1     -13.761  10.032  72.315  1.00  0.00    -0.326 OA 
ENDROOT
BRANCH   2   3
HETATM    3  C   UNL     1     -13.190  11.036  71.585  1.00  0.00    -0.357 A  
HETATM    4  C   UNL     1     -12.647  10.886  70.315  1.00  0.00    -0.342 A  
HETATM    5  C   UNL     1     -12.126  11.998  69.639  1.00  0.00    -0.295 A  
HETATM    6  C   UNL     1     -12.090  13.266  70.241  1.00  0.00    -0.405 A  
HETATM    7  C   UNL     1     -12.678  13.409  71.507  1.00  0.00    -0.386 A  
HETATM    8  C   UNL     1     -11.484  14.449  69.495  1.00  0.00    -0.333 C  
HETATM    9  C   UNL     1     -10.716  13.991  68.246  1.00  0.00    -0.254 C  
HETATM   10  C   UNL     1     -12.614  15.357  68.961  1.00  0.00     0.281 C  
HETATM   11  C   UNL     1     -10.545  15.280  70.387  1.00  0.00    -0.225 C  
HETATM   12  C   UNL     1     -13.234  12.305  72.162  1.00  0.00    -0.466 A  
HETATM   13  O   UNL     1      -9.712  14.556  67.817  1.00  0.00    -0.211 OA 
HETATM   14  N   UNL     1     -11.362  12.980  67.559  1.00  0.00    -0.287 N  
HETATM   15  O   UNL     1     -11.855  10.736  67.669  1.00  0.00    -0.505 OA 
HETATM   16  C   UNL     1     -11.760  11.833  68.210  1.00  0.00    -0.310 C  
BRANCH  14  17
HETATM   17  C   UNL     1     -11.391  13.031  66.115  1.00  0.00    -0.314 C  
BRANCH  17  18
HETATM   18  C   UNL     1     -10.068  12.802  65.384  1.00  0.00    -0.274 C  
BRANCH  18  19
HETATM   19  C   UNL     1      -9.486  11.435  65.707  1.00  0.00    -0.256 A  
HETATM   20  C   UNL     1      -8.481  11.265  66.675  1.00  0.00    -0.168 A  
HETATM   21  C   UNL     1      -7.916  10.013  66.913  1.00  0.00    -0.113 A  
HETATM   22  C   UNL     1      -8.379   8.909  66.206  1.00  0.00    -0.117 A  
HETATM   23  C   UNL     1      -9.957  10.305  65.024  1.00  0.00    -0.393 A  
HETATM   24  C   UNL     1      -9.397   9.047  65.262  1.00  0.00    -0.158 A  
BRANCH  22  25
HETATM   25  S   UNL     1      -7.620   7.331  66.484  1.00  0.00    -0.094 S  
HETATM   26  O   UNL     1      -7.468   6.640  65.221  1.00  0.00    -0.073 OA 
HETATM   27  O   UNL     1      -6.473   7.549  67.342  1.00  0.00    -0.054 OA 
BRANCH  25  28
HETATM   28  N   UNL     1      -8.727   6.536  67.432  1.00  0.00    -0.117 N  
HETATM   29  H   UNL     1      -9.624   6.291  67.012  1.00  0.00     0.000 HD 
BRANCH  28  30
HETATM   30  C   UNL     1      -8.516   6.185  68.751  1.00  0.00    -0.118 C  
HETATM   31  O   UNL     1      -8.365   5.037  69.136  1.00  0.00    -0.085 OA 
BRANCH  30  32
HETATM   32  N   UNL     1      -8.504   7.269  69.574  1.00  0.00    -0.133 N  
HETATM   33  H   UNL     1      -7.677   7.456  70.140  1.00  0.00     0.000 HD 
BRANCH  32  34
HETATM   34  C   UNL     1      -9.648   8.170  69.664  1.00  0.00    -0.168 C  
HETATM   35  C   UNL     1     -10.921   7.419  70.073  1.00  0.00    -0.264 C  
HETATM   36  C   UNL     1     -10.828   6.884  71.501  1.00  0.00    -0.257 C  
HETATM   37  C   UNL     1     -10.477   7.980  72.504  1.00  0.00    -0.383 C  
HETATM   38  C   UNL     1      -9.259   8.806  72.091  1.00  0.00    -0.248 C  
HETATM   39  C   UNL     1      -9.364   9.306  70.650  1.00  0.00    -0.329 C  
ENDBRANCH  32  34
ENDBRANCH  30  32
ENDBRANCH  28  30
ENDBRANCH  25  28
ENDBRANCH  22  25
ENDBRANCH  18  19
ENDBRANCH  17  18
ENDBRANCH  14  17
ENDBRANCH   2   3
TORSDOF 9
ENDMDL
MODEL       53
REMARK 921   NORMALIZED FREE ENERGY PREDICTED BY IDOCK:   -6.04 KCAL/MOL
REMARK 922        TOTAL FREE ENERGY PREDICTED BY IDOCK:  -11.37 KCAL/MOL
REMARK 923 INTER-LIGAND FREE ENERGY PREDICTED BY IDOCK:   -9.35 KCAL/MOL
REMARK 924 INTRA-LIGAND FREE ENERGY PREDICTED BY IDOCK:   -2.02 KCAL/MOL
REMARK 927      BINDING AFFINITY PREDICTED BY RF-SCORE:    0.00 PKD
ROOT
HETATM    1  C   UNL     1     -10.782  19.841  65.965  1.00  0.00    -0.388 C  
HETATM    2  O   UNL     1     -10.560  19.829  67.373  1.00  0.00    -0.438 OA 
ENDROOT
BRANCH   2   3
HETATM    3  C   UNL     1      -9.596  18.962  67.806  1.00  0.00    -0.312 A  
HETATM    4  C   UNL     1      -9.813  17.630  68.134  1.00  0.00    -0.318 A  
HETATM    5  C   UNL     1      -8.739  16.819  68.524  1.00  0.00    -0.245 A  
HETATM    6  C   UNL     1      -7.440  17.339  68.646  1.00  0.00    -0.251 A  
HETATM    7  C   UNL     1      -7.230  18.675  68.274  1.00  0.00    -0.279 A  
HETATM    8  C   UNL     1      -6.297  16.442  69.109  1.00  0.00    -0.177 C  
HETATM    9  C   UNL     1      -6.821  15.109  69.665  1.00  0.00    -0.188 C  
HETATM   10  C   UNL     1      -5.421  16.055  67.896  1.00  0.00    -0.145 C  
HETATM   11  C   UNL     1      -5.419  17.122  70.174  1.00  0.00    -0.232 C  
HETATM   12  C   UNL     1      -8.297  19.471  67.844  1.00  0.00    -0.350 A  
HETATM   13  O   UNL     1      -6.278  14.491  70.578  1.00  0.00    -0.178 OA 
HETATM   14  N   UNL     1      -7.869  14.593  68.925  1.00  0.00    -0.145 N  
HETATM   15  O   UNL     1     -10.104  14.901  68.479  1.00  0.00    -0.220 OA 
HETATM   16  C   UNL     1      -8.980  15.360  68.651  1.00  0.00    -0.191 C  
BRANCH  14  17
HETATM   17  C   UNL     1      -7.895  13.173  68.658  1.00  0.00    -0.056 C  
BRANCH  17  18
HETATM   18  C   UNL     1      -8.181  12.741  67.219  1.00  0.00    -0.181 C  
BRANCH  18  19
HETATM   19  C   UNL     1      -8.586  11.277  67.150  1.00  0.00    -0.147 A  
HETATM   20  C   UNL     1      -9.822  10.871  66.617  1.00  0.00    -0.237 A  
HETATM   21  C   UNL     1     -10.200   9.529  66.618  1.00  0.00    -0.310 A  
HETATM   22  C   UNL     1      -9.325   8.573  67.122  1.00  0.00    -0.152 A  
HETATM   23  C   UNL     1      -7.707  10.295  67.629  1.00  0.00    -0.090 A  
HETATM   24  C   UNL     1      -8.080   8.948  67.628  1.00  0.00    -0.106 A  
BRANCH  22  25
HETATM   25  S   UNL     1      -9.838   6.877  67.161  1.00  0.00    -0.179 S  
HETATM   26  O   UNL     1     -11.231   6.786  66.778  1.00  0.00    -0.312 OA 
HETATM   27  O   UNL     1      -8.832   6.106  66.458  1.00  0.00    -0.124 OA 
BRANCH  25  28
HETATM   28  N   UNL     1      -9.663   6.461  68.759  1.00  0.00    -0.128 N  
HETATM   29  H   UNL     1      -8.737   6.178  69.078  1.00  0.00     0.000 HD 
BRANCH  28  30
HETATM   30  C   UNL     1     -10.687   6.474  69.685  1.00  0.00    -0.269 C  
HETATM   31  O   UNL     1     -11.112   5.477  70.247  1.00  0.00    -0.231 OA 
BRANCH  30  32
HETATM   32  N   UNL     1     -11.173   7.727  69.894  1.00  0.00    -0.441 N  
HETATM   33  H   UNL     1     -11.906   8.087  69.282  1.00  0.00     0.000 HD 
BRANCH  32  34
HETATM   34  C   UNL     1     -10.671   8.569  70.975  1.00  0.00    -0.228 C  
HETATM   35  C   UNL     1     -10.197   9.930  70.449  1.00  0.00    -0.299 C  
HETATM   36  C   UNL     1     -11.359  10.765  69.914  1.00  0.00    -0.385 C  
HETATM   37  C   UNL     1     -12.478  10.919  70.941  1.00  0.00    -0.507 C  
HETATM   38  C   UNL     1     -12.923   9.590  71.549  1.00  0.00    -0.471 C  
HETATM   39  C   UNL     1     -11.741   8.762  72.052  1.00  0.00    -0.442 C  
ENDBRANCH  32  34
ENDBRANCH  30  32
ENDBRANCH  28  30
ENDBRANCH  25  28
ENDBRANCH  22  25
ENDBRANCH  18  19
ENDBRANCH  17  18
ENDBRANCH  14  17
ENDBRANCH   2   3
TORSDOF 9
ENDMDL
MODEL       54
REMARK 921   NORMALIZED FREE ENERGY PREDICTED BY IDOCK:   -6.04 KCAL/MOL
REMARK 922        TOTAL FREE ENERGY PREDICTED BY IDOCK:  -11.37 KCAL/MOL
REMARK 923 INTER-LIGAND FREE ENERGY PREDICTED BY IDOCK:  -10.98 KCAL/MOL
REMARK 924 INTRA-LIGAND FREE ENERGY PREDICTED BY IDOCK:   -0.39 KCAL/MOL
REMARK 927      BINDING AFFINITY PREDICTED BY RF-SCORE:    0.00 PKD
ROOT
HETATM    1  C   UNL     1     -11.279   5.228  73.045  1.00  0.00    -0.324 C  
HETATM    2  O   UNL     1     -11.705   6.022  71.940  1.00  0.00    -0.295 OA 
ENDROOT
BRANCH   2   3
HETATM    3  C   UNL     1     -10.924   5.934  70.821  1.00  0.00    -0.273 A  
HETATM    4  C   UNL     1     -10.737   6.958  69.901  1.00  0.00    -0.278 A  
HETATM    5  C   UNL     1      -9.876   6.772  68.811  1.00  0.00    -0.143 A  
HETATM    6  C   UNL     1      -9.230   5.544  68.593  1.00  0.00    -0.140 A  
HETATM    7  C   UNL     1      -9.398   4.535  69.553  1.00  0.00    -0.221 A  
HETATM    8  C   UNL     1      -8.327   5.360  67.378  1.00  0.00    -0.103 C  
HETATM    9  C   UNL     1      -8.491   6.515  66.378  1.00  0.00    -0.124 C  
HETATM   10  C   UNL     1      -6.848   5.417  67.820  1.00  0.00    -0.060 C  
HETATM   11  C   UNL     1      -8.590   4.027  66.656  1.00  0.00    -0.109 C  
HETATM   12  C   UNL     1     -10.225   4.738  70.662  1.00  0.00    -0.250 A  
HETATM   13  O   UNL     1      -8.387   6.383  65.161  1.00  0.00    -0.142 OA 
HETATM   14  N   UNL     1      -8.601   7.748  66.995  1.00  0.00    -0.126 N  
HETATM   15  O   UNL     1     -10.056   9.044  68.217  1.00  0.00    -0.177 OA 
HETATM   16  C   UNL     1      -9.539   7.957  67.982  1.00  0.00    -0.151 C  
BRANCH  14  17
HETATM   17  C   UNL     1      -7.899   8.874  66.423  1.00  0.00    -0.103 C  
BRANCH  17  18
HETATM   18  C   UNL     1      -8.421   9.417  65.093  1.00  0.00    -0.166 C  
BRANCH  18  19
HETATM   19  C   UNL     1      -9.357  10.596  65.304  1.00  0.00    -0.256 A  
HETATM   20  C   UNL     1     -10.439  10.850  64.443  1.00  0.00    -0.403 A  
HETATM   21  C   UNL     1     -11.250  11.971  64.617  1.00  0.00    -0.380 A  
HETATM   22  C   UNL     1     -11.006  12.832  65.682  1.00  0.00    -0.273 A  
HETATM   23  C   UNL     1      -9.145  11.461  66.387  1.00  0.00    -0.201 A  
HETATM   24  C   UNL     1      -9.958  12.583  66.569  1.00  0.00    -0.252 A  
BRANCH  22  25
HETATM   25  S   UNL     1     -12.014  14.278  65.865  1.00  0.00    -0.378 S  
HETATM   26  O   UNL     1     -11.237  15.452  65.531  1.00  0.00    -0.310 OA 
HETATM   27  O   UNL     1     -13.271  14.016  65.193  1.00  0.00    -0.768 OA 
BRANCH  25  28
HETATM   28  N   UNL     1     -12.381  14.286  67.484  1.00  0.00    -0.587 N  
HETATM   29  H   UNL     1     -13.000  13.556  67.835  1.00  0.00     0.000 HD 
BRANCH  28  30
HETATM   30  C   UNL     1     -11.903  15.214  68.388  1.00  0.00    -0.267 C  
HETATM   31  O   UNL     1     -10.976  15.974  68.162  1.00  0.00    -0.314 OA 
BRANCH  30  32
HETATM   32  N   UNL     1     -12.585  15.178  69.566  1.00  0.00    -0.601 N  
HETATM   33  H   UNL     1     -13.442  15.722  69.662  1.00  0.00     0.000 HD 
BRANCH  32  34
HETATM   34  C   UNL     1     -12.117  14.380  70.693  1.00  0.00    -0.334 C  
HETATM   35  C   UNL     1     -11.129  15.166  71.564  1.00  0.00    -0.218 C  
HETATM   36  C   UNL     1     -11.807  16.340  72.269  1.00  0.00    -0.601 C  
HETATM   37  C   UNL     1     -13.032  15.901  73.067  1.00  0.00    -0.630 C  
HETATM   38  C   UNL     1     -14.004  15.045  72.256  1.00  0.00    -0.611 C  
HETATM   39  C   UNL     1     -13.298  13.895  71.539  1.00  0.00    -0.406 C  
ENDBRANCH  32  34
ENDBRANCH  30  32
ENDBRANCH  28  30
ENDBRANCH  25  28
ENDBRANCH  22  25
ENDBRANCH  18  19
ENDBRANCH  17  18
ENDBRANCH  14  17
ENDBRANCH   2   3
TORSDOF 9
ENDMDL
MODEL       55
REMARK 921   NORMALIZED FREE ENERGY PREDICTED BY IDOCK:   -6.04 KCAL/MOL
REMARK 922        TOTAL FREE ENERGY PREDICTED BY IDOCK:  -11.36 KCAL/MOL
REMARK 923 INTER-LIGAND FREE ENERGY PREDICTED BY IDOCK:  -10.07 KCAL/MOL
REMARK 924 INTRA-LIGAND FREE ENERGY PREDICTED BY IDOCK:   -1.30 KCAL/MOL
REMARK 927      BINDING AFFINITY PREDICTED BY RF-SCORE:    0.00 PKD
ROOT
HETATM    1  C   UNL     1      -5.361   9.869  67.189  1.00  0.00    -0.042 C  
HETATM    2  O   UNL     1      -6.181   8.891  66.555  1.00  0.00    -0.059 OA 
ENDROOT
BRANCH   2   3
HETATM    3  C   UNL     1      -7.060   8.242  67.377  1.00  0.00    -0.080 A  
HETATM    4  C   UNL     1      -7.549   8.748  68.575  1.00  0.00    -0.098 A  
HETATM    5  C   UNL     1      -8.484   8.013  69.316  1.00  0.00    -0.136 A  
HETATM    6  C   UNL     1      -8.905   6.739  68.901  1.00  0.00    -0.128 A  
HETATM    7  C   UNL     1      -8.432   6.260  67.670  1.00  0.00    -0.116 A  
HETATM    8  C   UNL     1      -9.895   5.947  69.748  1.00  0.00    -0.217 C  
HETATM    9  C   UNL     1     -10.078   6.581  71.136  1.00  0.00    -0.183 C  
HETATM   10  C   UNL     1     -11.294   6.002  69.093  1.00  0.00    -0.196 C  
HETATM   11  C   UNL     1      -9.471   4.478  69.917  1.00  0.00    -0.245 C  
HETATM   12  C   UNL     1      -7.531   7.015  66.912  1.00  0.00    -0.086 A  
HETATM   13  O   UNL     1     -10.301   5.934  72.157  1.00  0.00    -0.192 OA 
HETATM   14  N   UNL     1     -10.132   7.961  71.093  1.00  0.00    -0.184 N  
HETATM   15  O   UNL     1      -8.816   9.823  70.786  1.00  0.00    -0.155 OA 
HETATM   16  C   UNL     1      -9.140   8.684  70.467  1.00  0.00    -0.165 C  
BRANCH  14  17
HETATM   17  C   UNL     1     -11.101   8.643  71.921  1.00  0.00    -0.346 C  
BRANCH  17  18
HETATM   18  C   UNL     1     -12.391   9.106  71.244  1.00  0.00    -0.382 C  
BRANCH  18  19
HETATM   19  C   UNL     1     -12.466  10.622  71.170  1.00  0.00    -0.523 A  
HETATM   20  C   UNL     1     -11.746  11.357  70.212  1.00  0.00    -0.397 A  
HETATM   21  C   UNL     1     -11.780  12.750  70.199  1.00  0.00    -0.239 A  
HETATM   22  C   UNL     1     -12.567  13.423  71.127  1.00  0.00    -0.345 A  
HETATM   23  C   UNL     1     -13.275  11.318  72.079  1.00  0.00    -0.437 A  
HETATM   24  C   UNL     1     -13.316  12.715  72.068  1.00  0.00    -0.555 A  
BRANCH  22  25
HETATM   25  S   UNL     1     -12.565  15.196  71.131  1.00  0.00    -0.407 S  
HETATM   26  O   UNL     1     -13.813  15.680  70.581  1.00  0.00    -0.346 OA 
HETATM   27  O   UNL     1     -12.127  15.625  72.443  1.00  0.00    -0.370 OA 
BRANCH  25  28
HETATM   28  N   UNL     1     -11.313  15.578  70.110  1.00  0.00    -0.295 N  
HETATM   29  H   UNL     1     -10.363  15.518  70.478  1.00  0.00     0.000 HD 
BRANCH  28  30
HETATM   30  C   UNL     1     -11.469  15.972  68.795  1.00  0.00    -0.375 C  
HETATM   31  O   UNL     1     -11.894  15.246  67.911  1.00  0.00    -0.303 OA 
BRANCH  30  32
HETATM   32  N   UNL     1     -11.089  17.263  68.599  1.00  0.00    -0.211 N  
HETATM   33  H   UNL     1     -11.290  17.957  69.319  1.00  0.00     0.000 HD 
BRANCH  32  34
HETATM   34  C   UNL     1     -10.399  17.678  67.382  1.00  0.00    -0.360 C  
HETATM   35  C   UNL     1     -10.723  19.134  67.024  1.00  0.00    -0.542 C  
HETATM   36  C   UNL     1     -10.158  20.109  68.055  1.00  0.00    -0.519 C  
HETATM   37  C   UNL     1      -8.661  19.907  68.278  1.00  0.00    -0.263 C  
HETATM   38  C   UNL     1      -8.286  18.453  68.558  1.00  0.00    -0.344 C  
HETATM   39  C   UNL     1      -8.886  17.494  67.530  1.00  0.00    -0.229 C  
ENDBRANCH  32  34
ENDBRANCH  30  32
ENDBRANCH  28  30
ENDBRANCH  25  28
ENDBRANCH  22  25
ENDBRANCH  18  19
ENDBRANCH  17  18
ENDBRANCH  14  17
ENDBRANCH   2   3
TORSDOF 9
ENDMDL
MODEL       56
REMARK 921   NORMALIZED FREE ENERGY PREDICTED BY IDOCK:   -6.04 KCAL/MOL
REMARK 922        TOTAL FREE ENERGY PREDICTED BY IDOCK:  -11.36 KCAL/MOL
REMARK 923 INTER-LIGAND FREE ENERGY PREDICTED BY IDOCK:   -9.62 KCAL/MOL
REMARK 924 INTRA-LIGAND FREE ENERGY PREDICTED BY IDOCK:   -1.74 KCAL/MOL
REMARK 927      BINDING AFFINITY PREDICTED BY RF-SCORE:    0.00 PKD
ROOT
HETATM    1  C   UNL     1     -14.121   8.795  72.214  1.00  0.00    -0.441 C  
HETATM    2  O   UNL     1     -12.739   8.984  72.505  1.00  0.00    -0.379 OA 
ENDROOT
BRANCH   2   3
HETATM    3  C   UNL     1     -11.901   8.023  72.014  1.00  0.00    -0.326 A  
HETATM    4  C   UNL     1     -11.867   7.598  70.691  1.00  0.00    -0.169 A  
HETATM    5  C   UNL     1     -10.932   6.635  70.288  1.00  0.00    -0.355 A  
HETATM    6  C   UNL     1     -10.052   6.042  71.208  1.00  0.00    -0.237 A  
HETATM    7  C   UNL     1     -10.072   6.511  72.530  1.00  0.00    -0.189 A  
HETATM    8  C   UNL     1      -9.071   4.970  70.746  1.00  0.00    -0.174 C  
HETATM    9  C   UNL     1      -9.402   4.480  69.328  1.00  0.00    -0.149 C  
HETATM   10  C   UNL     1      -7.655   5.578  70.641  1.00  0.00    -0.089 C  
HETATM   11  C   UNL     1      -9.036   3.764  71.701  1.00  0.00    -0.169 C  
HETATM   12  C   UNL     1     -10.978   7.502  72.921  1.00  0.00    -0.434 A  
HETATM   13  O   UNL     1      -9.213   3.329  68.943  1.00  0.00    -0.137 OA 
HETATM   14  N   UNL     1      -9.779   5.505  68.480  1.00  0.00    -0.127 N  
HETATM   15  O   UNL     1     -11.515   6.944  68.027  1.00  0.00     0.038 OA 
HETATM   16  C   UNL     1     -10.787   6.374  68.833  1.00  0.00    -0.325 C  
BRANCH  14  17
HETATM   17  C   UNL     1      -9.277   5.502  67.124  1.00  0.00    -0.111 C  
BRANCH  17  18
HETATM   18  C   UNL     1      -8.170   6.501  66.790  1.00  0.00    -0.110 C  
BRANCH  18  19
HETATM   19  C   UNL     1      -8.622   7.933  67.030  1.00  0.00    -0.128 A  
HETATM   20  C   UNL     1      -8.220   8.660  68.164  1.00  0.00    -0.115 A  
HETATM   21  C   UNL     1      -8.695   9.950  68.397  1.00  0.00    -0.120 A  
HETATM   22  C   UNL     1      -9.553  10.539  67.475  1.00  0.00    -0.160 A  
HETATM   23  C   UNL     1      -9.466   8.555  66.099  1.00  0.00    -0.286 A  
HETATM   24  C   UNL     1      -9.941   9.849  66.326  1.00  0.00    -0.322 A  
BRANCH  22  25
HETATM   25  S   UNL     1     -10.187  12.161  67.807  1.00  0.00    -0.205 S  
HETATM   26  O   UNL     1      -9.143  13.140  67.587  1.00  0.00    -0.182 OA 
HETATM   27  O   UNL     1     -11.457  12.277  67.120  1.00  0.00    -0.311 OA 
BRANCH  25  28
HETATM   28  N   UNL     1     -10.571  12.098  69.421  1.00  0.00    -0.434 N  
HETATM   29  H   UNL     1      -9.805  12.140  70.094  1.00  0.00     0.000 HD 
BRANCH  28  30
HETATM   30  C   UNL     1     -11.856  11.994  69.914  1.00  0.00    -0.331 C  
HETATM   31  O   UNL     1     -12.670  11.169  69.532  1.00  0.00    -0.208 OA 
BRANCH  30  32
HETATM   32  N   UNL     1     -12.113  12.924  70.874  1.00  0.00    -0.457 N  
HETATM   33  H   UNL     1     -12.123  12.640  71.853  1.00  0.00     0.000 HD 
BRANCH  32  34
HETATM   34  C   UNL     1     -12.374  14.318  70.534  1.00  0.00    -0.360 C  
HETATM   35  C   UNL     1     -13.766  14.758  71.005  1.00  0.00    -0.322 C  
HETATM   36  C   UNL     1     -13.866  14.781  72.529  1.00  0.00    -0.561 C  
HETATM   37  C   UNL     1     -12.765  15.628  73.164  1.00  0.00    -0.599 C  
HETATM   38  C   UNL     1     -11.367  15.275  72.658  1.00  0.00    -0.236 C  
HETATM   39  C   UNL     1     -11.300  15.231  71.132  1.00  0.00    -0.402 C  
ENDBRANCH  32  34
ENDBRANCH  30  32
ENDBRANCH  28  30
ENDBRANCH  25  28
ENDBRANCH  22  25
ENDBRANCH  18  19
ENDBRANCH  17  18
ENDBRANCH  14  17
ENDBRANCH   2   3
TORSDOF 9
ENDMDL
MODEL       57
REMARK 921   NORMALIZED FREE ENERGY PREDICTED BY IDOCK:   -6.03 KCAL/MOL
REMARK 922        TOTAL FREE ENERGY PREDICTED BY IDOCK:  -11.36 KCAL/MOL
REMARK 923 INTER-LIGAND FREE ENERGY PREDICTED BY IDOCK:   -8.99 KCAL/MOL
REMARK 924 INTRA-LIGAND FREE ENERGY PREDICTED BY IDOCK:   -2.37 KCAL/MOL
REMARK 927      BINDING AFFINITY PREDICTED BY RF-SCORE:    0.00 PKD
ROOT
HETATM    1  C   UNL     1      -9.508   4.258  66.116  1.00  0.00    -0.178 C  
HETATM    2  O   UNL     1     -10.731   4.865  66.528  1.00  0.00    -0.253 OA 
ENDROOT
BRANCH   2   3
HETATM    3  C   UNL     1     -10.599   6.046  67.202  1.00  0.00    -0.302 A  
HETATM    4  C   UNL     1     -10.411   7.287  66.604  1.00  0.00    -0.229 A  
HETATM    5  C   UNL     1     -10.334   8.442  67.394  1.00  0.00    -0.355 A  
HETATM    6  C   UNL     1     -10.390   8.372  68.795  1.00  0.00    -0.225 A  
HETATM    7  C   UNL     1     -10.620   7.118  69.382  1.00  0.00    -0.246 A  
HETATM    8  C   UNL     1     -10.266   9.642  69.630  1.00  0.00    -0.239 C  
HETATM    9  C   UNL     1      -9.798  10.830  68.776  1.00  0.00    -0.194 C  
HETATM   10  C   UNL     1     -11.659  10.050  70.158  1.00  0.00    -0.320 C  
HETATM   11  C   UNL     1      -9.304   9.465  70.818  1.00  0.00    -0.292 C  
HETATM   12  C   UNL     1     -10.738   5.972  68.588  1.00  0.00    -0.363 A  
HETATM   13  O   UNL     1      -9.089  11.739  69.202  1.00  0.00     0.162 OA 
HETATM   14  N   UNL     1     -10.391  10.861  67.527  1.00  0.00    -0.193 N  
HETATM   15  O   UNL     1     -10.371   9.813  65.480  1.00  0.00    -0.178 OA 
HETATM   16  C   UNL     1     -10.353   9.756  66.705  1.00  0.00    -0.206 C  
BRANCH  14  17
HETATM   17  C   UNL     1     -10.829  12.133  66.999  1.00  0.00    -0.247 C  
BRANCH  17  18
HETATM   18  C   UNL     1      -9.804  12.949  66.211  1.00  0.00    -0.273 C  
BRANCH  18  19
HETATM   19  C   UNL     1      -9.929  14.434  66.510  1.00  0.00    -0.291 A  
HETATM   20  C   UNL     1      -9.748  15.411  65.516  1.00  0.00    -0.318 A  
HETATM   21  C   UNL     1      -9.805  16.770  65.824  1.00  0.00    -0.209 A  
HETATM   22  C   UNL     1     -10.081  17.164  67.128  1.00  0.00    -0.295 A  
HETATM   23  C   UNL     1     -10.232  14.852  67.814  1.00  0.00    -0.236 A  
HETATM   24  C   UNL     1     -10.295  16.213  68.126  1.00  0.00    -0.269 A  
BRANCH  22  25
HETATM   25  S   UNL     1     -10.104  18.894  67.516  1.00  0.00    -0.388 S  
HETATM   26  O   UNL     1     -11.040  19.570  66.642  1.00  0.00    -0.346 OA 
HETATM   27  O   UNL     1     -10.227  19.012  68.954  1.00  0.00    -0.370 OA 
BRANCH  25  28
HETATM   28  N   UNL     1      -8.556  19.383  67.171  1.00  0.00    -0.286 N  
HETATM   29  H   UNL     1      -8.321  19.566  66.196  1.00  0.00     0.000 HD 
BRANCH  28  30
HETATM   30  C   UNL     1      -7.564  19.561  68.116  1.00  0.00    -0.303 C  
HETATM   31  O   UNL     1      -6.920  20.589  68.245  1.00  0.00    -0.265 OA 
BRANCH  30  32
HETATM   32  N   UNL     1      -7.384  18.452  68.883  1.00  0.00    -0.275 N  
HETATM   33  H   UNL     1      -8.179  18.060  69.388  1.00  0.00     0.000 HD 
BRANCH  32  34
HETATM   34  C   UNL     1      -6.080  17.809  69.000  1.00  0.00    -0.211 C  
HETATM   35  C   UNL     1      -6.111  16.660  70.015  1.00  0.00    -0.148 C  
HETATM   36  C   UNL     1      -6.989  15.505  69.535  1.00  0.00    -0.190 C  
HETATM   37  C   UNL     1      -6.586  15.016  68.146  1.00  0.00    -0.134 C  
HETATM   38  C   UNL     1      -6.464  16.144  67.123  1.00  0.00    -0.184 C  
HETATM   39  C   UNL     1      -5.604  17.299  67.637  1.00  0.00    -0.137 C  
ENDBRANCH  32  34
ENDBRANCH  30  32
ENDBRANCH  28  30
ENDBRANCH  25  28
ENDBRANCH  22  25
ENDBRANCH  18  19
ENDBRANCH  17  18
ENDBRANCH  14  17
ENDBRANCH   2   3
TORSDOF 9
ENDMDL
MODEL       58
REMARK 921   NORMALIZED FREE ENERGY PREDICTED BY IDOCK:   -6.02 KCAL/MOL
REMARK 922        TOTAL FREE ENERGY PREDICTED BY IDOCK:  -11.34 KCAL/MOL
REMARK 923 INTER-LIGAND FREE ENERGY PREDICTED BY IDOCK:  -10.18 KCAL/MOL
REMARK 924 INTRA-LIGAND FREE ENERGY PREDICTED BY IDOCK:   -1.16 KCAL/MOL
REMARK 927      BINDING AFFINITY PREDICTED BY RF-SCORE:    0.00 PKD
ROOT
HETATM    1  C   UNL     1      -5.164  18.709  70.712  1.00  0.00    -0.263 C  
HETATM    2  O   UNL     1      -5.207  19.032  69.325  1.00  0.00    -0.189 OA 
ENDROOT
BRANCH   2   3
HETATM    3  C   UNL     1      -6.367  18.700  68.683  1.00  0.00    -0.222 A  
HETATM    4  C   UNL     1      -6.612  17.481  68.063  1.00  0.00    -0.173 A  
HETATM    5  C   UNL     1      -7.858  17.233  67.473  1.00  0.00    -0.194 A  
HETATM    6  C   UNL     1      -8.861  18.216  67.443  1.00  0.00    -0.256 A  
HETATM    7  C   UNL     1      -8.612  19.427  68.107  1.00  0.00    -0.374 A  
HETATM    8  C   UNL     1     -10.193  17.930  66.761  1.00  0.00    -0.360 C  
HETATM    9  C   UNL     1     -10.130  16.642  65.926  1.00  0.00    -0.320 C  
HETATM   10  C   UNL     1     -11.275  17.663  67.832  1.00  0.00     0.228 C  
HETATM   11  C   UNL     1     -10.647  19.092  65.860  1.00  0.00    -0.495 C  
HETATM   12  C   UNL     1      -7.381  19.656  68.732  1.00  0.00    -0.371 A  
HETATM   13  O   UNL     1     -10.759  16.473  64.883  1.00  0.00    -0.702 OA 
HETATM   14  N   UNL     1      -9.426  15.630  66.552  1.00  0.00    -0.252 N  
HETATM   15  O   UNL     1      -7.292  14.976  67.108  1.00  0.00    -0.190 OA 
HETATM   16  C   UNL     1      -8.149  15.849  67.020  1.00  0.00    -0.230 C  
BRANCH  14  17
HETATM   17  C   UNL     1      -9.944  14.282  66.487  1.00  0.00    -0.281 C  
BRANCH  17  18
HETATM   18  C   UNL     1     -11.345  14.048  67.052  1.00  0.00    -0.346 C  
BRANCH  18  19
HETATM   19  C   UNL     1     -11.363  12.879  68.025  1.00  0.00    -0.333 A  
HETATM   20  C   UNL     1     -11.008  11.578  67.630  1.00  0.00    -0.296 A  
HETATM   21  C   UNL     1     -11.089  10.508  68.521  1.00  0.00    -0.329 A  
HETATM   22  C   UNL     1     -11.496  10.739  69.830  1.00  0.00    -0.321 A  
HETATM   23  C   UNL     1     -11.744  13.095  69.356  1.00  0.00    -0.386 A  
HETATM   24  C   UNL     1     -11.824  12.027  70.254  1.00  0.00    -0.356 A  
BRANCH  22  25
HETATM   25  S   UNL     1     -11.641   9.364  70.939  1.00  0.00    -0.332 S  
HETATM   26  O   UNL     1     -10.473   9.309  71.794  1.00  0.00    -0.337 OA 
HETATM   27  O   UNL     1     -12.969   9.412  71.516  1.00  0.00    -0.334 OA 
BRANCH  25  28
HETATM   28  N   UNL     1     -11.657   8.053  69.922  1.00  0.00    -0.440 N  
HETATM   29  H   UNL     1     -12.341   8.046  69.165  1.00  0.00     0.000 HD 
BRANCH  28  30
HETATM   30  C   UNL     1     -10.807   6.969  70.030  1.00  0.00    -0.261 C  
HETATM   31  O   UNL     1     -10.224   6.462  69.086  1.00  0.00    -0.163 OA 
BRANCH  30  32
HETATM   32  N   UNL     1     -10.701   6.528  71.313  1.00  0.00    -0.231 N  
HETATM   33  H   UNL     1     -10.400   7.177  72.040  1.00  0.00     0.000 HD 
BRANCH  32  34
HETATM   34  C   UNL     1     -11.008   5.148  71.672  1.00  0.00     0.020 C  
HETATM   35  C   UNL     1      -9.776   4.245  71.527  1.00  0.00    -0.244 C  
HETATM   36  C   UNL     1      -8.692   4.601  72.542  1.00  0.00    -0.119 C  
HETATM   37  C   UNL     1      -9.221   4.601  73.974  1.00  0.00    -0.114 C  
HETATM   38  C   UNL     1     -10.496   5.425  74.143  1.00  0.00    -0.310 C  
HETATM   39  C   UNL     1     -11.555   5.071  73.100  1.00  0.00    -0.299 C  
ENDBRANCH  32  34
ENDBRANCH  30  32
ENDBRANCH  28  30
ENDBRANCH  25  28
ENDBRANCH  22  25
ENDBRANCH  18  19
ENDBRANCH  17  18
ENDBRANCH  14  17
ENDBRANCH   2   3
TORSDOF 9
ENDMDL
MODEL       59
REMARK 921   NORMALIZED FREE ENERGY PREDICTED BY IDOCK:   -6.01 KCAL/MOL
REMARK 922        TOTAL FREE ENERGY PREDICTED BY IDOCK:  -11.33 KCAL/MOL
REMARK 923 INTER-LIGAND FREE ENERGY PREDICTED BY IDOCK:  -10.27 KCAL/MOL
REMARK 924 INTRA-LIGAND FREE ENERGY PREDICTED BY IDOCK:   -1.06 KCAL/MOL
REMARK 927      BINDING AFFINITY PREDICTED BY RF-SCORE:    0.00 PKD
ROOT
HETATM    1  C   UNL     1      -8.096   1.468  72.037  1.00  0.00    -0.045 C  
HETATM    2  O   UNL     1      -9.344   1.855  72.607  1.00  0.00    -0.072 OA 
ENDROOT
BRANCH   2   3
HETATM    3  C   UNL     1      -9.754   3.124  72.309  1.00  0.00    -0.154 A  
HETATM    4  C   UNL     1      -9.435   3.810  71.143  1.00  0.00    -0.236 A  
HETATM    5  C   UNL     1      -9.950   5.094  70.922  1.00  0.00    -0.280 A  
HETATM    6  C   UNL     1     -10.748   5.736  71.883  1.00  0.00    -0.297 A  
HETATM    7  C   UNL     1     -11.094   5.015  73.036  1.00  0.00    -0.378 A  
HETATM    8  C   UNL     1     -11.264   7.148  71.630  1.00  0.00    -0.275 C  
HETATM    9  C   UNL     1     -10.567   7.791  70.421  1.00  0.00    -0.227 C  
HETATM   10  C   UNL     1     -12.760   7.090  71.248  1.00  0.00    -0.400 C  
HETATM   11  C   UNL     1     -11.088   8.059  72.857  1.00  0.00    -0.399 C  
HETATM   12  C   UNL     1     -10.612   3.717  73.235  1.00  0.00    -0.276 A  
HETATM   13  O   UNL     1     -10.329   8.993  70.332  1.00  0.00    -0.191 OA 
HETATM   14  N   UNL     1     -10.386   6.907  69.373  1.00  0.00    -0.197 N  
HETATM   15  O   UNL     1      -9.121   5.101  68.718  1.00  0.00    -0.108 OA 
HETATM   16  C   UNL     1      -9.764   5.695  69.577  1.00  0.00    -0.154 C  
BRANCH  14  17
HETATM   17  C   UNL     1     -10.628   7.371  68.026  1.00  0.00    -0.175 C  
BRANCH  17  18
HETATM   18  C   UNL     1      -9.452   8.011  67.288  1.00  0.00    -0.196 C  
BRANCH  18  19
HETATM   19  C   UNL     1      -9.586   9.525  67.240  1.00  0.00    -0.192 A  
HETATM   20  C   UNL     1      -8.467  10.373  67.317  1.00  0.00    -0.122 A  
HETATM   21  C   UNL     1      -8.615  11.759  67.333  1.00  0.00    -0.160 A  
HETATM   22  C   UNL     1      -9.888  12.312  67.235  1.00  0.00    -0.205 A  
HETATM   23  C   UNL     1     -10.857  10.102  67.115  1.00  0.00    -0.257 A  
HETATM   24  C   UNL     1     -11.011  11.491  67.125  1.00  0.00    -0.338 A  
BRANCH  22  25
HETATM   25  S   UNL     1     -10.066  14.074  67.303  1.00  0.00    -0.251 S  
HETATM   26  O   UNL     1      -9.112  14.690  66.406  1.00  0.00    -0.264 OA 
HETATM   27  O   UNL     1     -11.479  14.370  67.185  1.00  0.00    -0.330 OA 
BRANCH  25  28
HETATM   28  N   UNL     1      -9.677  14.437  68.876  1.00  0.00    -0.342 N  
HETATM   29  H   UNL     1      -9.103  13.769  69.390  1.00  0.00     0.000 HD 
BRANCH  28  30
HETATM   30  C   UNL     1     -10.078  15.582  69.535  1.00  0.00    -0.278 C  
HETATM   31  O   UNL     1      -9.879  16.713  69.122  1.00  0.00    -0.263 OA 
BRANCH  30  32
HETATM   32  N   UNL     1     -10.715  15.302  70.705  1.00  0.00    -0.503 N  
HETATM   33  H   UNL     1     -10.365  14.548  71.295  1.00  0.00     0.000 HD 
BRANCH  32  34
HETATM   34  C   UNL     1     -11.887  16.057  71.134  1.00  0.00    -0.420 C  
HETATM   35  C   UNL     1     -13.184  15.292  70.841  1.00  0.00    -0.506 C  
HETATM   36  C   UNL     1     -13.297  14.026  71.689  1.00  0.00    -0.442 C  
HETATM   37  C   UNL     1     -13.142  14.317  73.179  1.00  0.00    -0.411 C  
HETATM   38  C   UNL     1     -11.902  15.149  73.504  1.00  0.00    -0.384 C  
HETATM   39  C   UNL     1     -11.797  16.394  72.625  1.00  0.00    -0.544 C  
ENDBRANCH  32  34
ENDBRANCH  30  32
ENDBRANCH  28  30
ENDBRANCH  25  28
ENDBRANCH  22  25
ENDBRANCH  18  19
ENDBRANCH  17  18
ENDBRANCH  14  17
ENDBRANCH   2   3
TORSDOF 9
ENDMDL
MODEL       60
REMARK 921   NORMALIZED FREE ENERGY PREDICTED BY IDOCK:   -5.99 KCAL/MOL
REMARK 922        TOTAL FREE ENERGY PREDICTED BY IDOCK:  -11.30 KCAL/MOL
REMARK 923 INTER-LIGAND FREE ENERGY PREDICTED BY IDOCK:   -8.01 KCAL/MOL
REMARK 924 INTRA-LIGAND FREE ENERGY PREDICTED BY IDOCK:   -3.28 KCAL/MOL
REMARK 927      BINDING AFFINITY PREDICTED BY RF-SCORE:    0.00 PKD
ROOT
HETATM    1  C   UNL     1     -11.379  14.027  66.201  1.00  0.00    -0.321 C  
HETATM    2  O   UNL     1      -9.970  13.832  66.293  1.00  0.00    -0.289 OA 
ENDROOT
BRANCH   2   3
HETATM    3  C   UNL     1      -9.570  12.850  67.155  1.00  0.00    -0.225 A  
HETATM    4  C   UNL     1     -10.417  12.135  67.994  1.00  0.00    -0.227 A  
HETATM    5  C   UNL     1      -9.903  11.116  68.806  1.00  0.00    -0.201 A  
HETATM    6  C   UNL     1      -8.528  10.830  68.835  1.00  0.00    -0.149 A  
HETATM    7  C   UNL     1      -7.693  11.533  67.954  1.00  0.00    -0.120 A  
HETATM    8  C   UNL     1      -7.993   9.740  69.757  1.00  0.00    -0.169 C  
HETATM    9  C   UNL     1      -9.058   9.288  70.767  1.00  0.00    -0.244 C  
HETATM   10  C   UNL     1      -7.663   8.479  68.927  1.00  0.00    -0.100 C  
HETATM   11  C   UNL     1      -6.734  10.190  70.518  1.00  0.00    -0.100 C  
HETATM   12  C   UNL     1      -8.216  12.522  67.113  1.00  0.00    -0.168 A  
HETATM   13  O   UNL     1      -8.799   8.915  71.909  1.00  0.00    -0.342 OA 
HETATM   14  N   UNL     1     -10.318   9.184  70.209  1.00  0.00    -0.200 N  
HETATM   15  O   UNL     1     -12.073  10.453  69.435  1.00  0.00    -0.163 OA 
HETATM   16  C   UNL     1     -10.868  10.239  69.515  1.00  0.00    -0.256 C  
BRANCH  14  17
HETATM   17  C   UNL     1     -11.146   8.055  70.571  1.00  0.00    -0.251 C  
BRANCH  17  18
HETATM   18  C   UNL     1     -10.464   6.689  70.650  1.00  0.00    -0.253 C  
BRANCH  18  19
HETATM   19  C   UNL     1     -10.280   6.080  69.269  1.00  0.00    -0.263 A  
HETATM   20  C   UNL     1     -10.903   6.619  68.130  1.00  0.00    -0.334 A  
HETATM   21  C   UNL     1     -10.772   6.010  66.882  1.00  0.00    -0.407 A  
HETATM   22  C   UNL     1      -9.983   4.872  66.757  1.00  0.00    -0.224 A  
HETATM   23  C   UNL     1      -9.468   4.948  69.117  1.00  0.00    -0.205 A  
HETATM   24  C   UNL     1      -9.329   4.336  67.868  1.00  0.00    -0.200 A  
BRANCH  22  25
HETATM   25  S   UNL     1      -9.863   4.080  65.176  1.00  0.00    -0.192 S  
HETATM   26  O   UNL     1      -9.059   2.882  65.297  1.00  0.00    -0.142 OA 
HETATM   27  O   UNL     1     -11.200   4.012  64.624  1.00  0.00    -0.318 OA 
BRANCH  25  28
HETATM   28  N   UNL     1      -9.066   5.202  64.247  1.00  0.00    -0.355 N  
HETATM   29  H   UNL     1      -9.261   5.215  63.245  1.00  0.00     0.000 HD 
BRANCH  28  30
HETATM   30  C   UNL     1      -8.159   6.120  64.737  1.00  0.00    -0.132 C  
HETATM   31  O   UNL     1      -7.138   5.819  65.335  1.00  0.00    -0.065 OA 
BRANCH  30  32
HETATM   32  N   UNL     1      -8.538   7.402  64.482  1.00  0.00    -0.353 N  
HETATM   33  H   UNL     1      -9.077   7.604  63.640  1.00  0.00     0.000 HD 
BRANCH  32  34
HETATM   34  C   UNL     1      -8.191   8.494  65.385  1.00  0.00    -0.145 C  
HETATM   35  C   UNL     1      -7.140   9.422  64.764  1.00  0.00    -0.102 C  
HETATM   36  C   UNL     1      -7.694  10.175  63.556  1.00  0.00    -0.144 C  
HETATM   37  C   UNL     1      -8.980  10.928  63.889  1.00  0.00    -0.117 C  
HETATM   38  C   UNL     1     -10.024  10.057  64.585  1.00  0.00    -0.206 C  
HETATM   39  C   UNL     1      -9.439   9.292  65.772  1.00  0.00    -0.329 C  
ENDBRANCH  32  34
ENDBRANCH  30  32
ENDBRANCH  28  30
ENDBRANCH  25  28
ENDBRANCH  22  25
ENDBRANCH  18  19
ENDBRANCH  17  18
ENDBRANCH  14  17
ENDBRANCH   2   3
TORSDOF 9
ENDMDL
MODEL       61
REMARK 921   NORMALIZED FREE ENERGY PREDICTED BY IDOCK:   -5.93 KCAL/MOL
REMARK 922        TOTAL FREE ENERGY PREDICTED BY IDOCK:  -11.19 KCAL/MOL
REMARK 923 INTER-LIGAND FREE ENERGY PREDICTED BY IDOCK:  -10.13 KCAL/MOL
REMARK 924 INTRA-LIGAND FREE ENERGY PREDICTED BY IDOCK:   -1.06 KCAL/MOL
REMARK 927      BINDING AFFINITY PREDICTED BY RF-SCORE:    0.00 PKD
ROOT
HETATM    1  C   UNL     1     -11.227   6.192  72.764  1.00  0.00    -0.243 C  
HETATM    2  O   UNL     1     -11.854   6.214  71.484  1.00  0.00    -0.276 OA 
ENDROOT
BRANCH   2   3
HETATM    3  C   UNL     1     -11.008   6.103  70.417  1.00  0.00    -0.337 A  
HETATM    4  C   UNL     1     -10.966   6.982  69.341  1.00  0.00    -0.232 A  
HETATM    5  C   UNL     1     -10.024   6.796  68.320  1.00  0.00    -0.153 A  
HETATM    6  C   UNL     1      -9.144   5.701  68.330  1.00  0.00    -0.112 A  
HETATM    7  C   UNL     1      -9.173   4.846  69.442  1.00  0.00    -0.160 A  
HETATM    8  C   UNL     1      -8.155   5.505  67.186  1.00  0.00    -0.101 C  
HETATM    9  C   UNL     1      -8.477   6.429  66.002  1.00  0.00    -0.144 C  
HETATM   10  C   UNL     1      -6.742   5.922  67.650  1.00  0.00    -0.058 C  
HETATM   11  C   UNL     1      -8.118   4.047  66.693  1.00  0.00    -0.097 C  
HETATM   12  C   UNL     1     -10.086   5.058  70.479  1.00  0.00    -0.323 A  
HETATM   13  O   UNL     1      -8.280   6.125  64.827  1.00  0.00    -0.137 OA 
HETATM   14  N   UNL     1      -8.855   7.698  66.398  1.00  0.00    -0.149 N  
HETATM   15  O   UNL     1     -10.597   8.862  67.347  1.00  0.00    -0.277 OA 
HETATM   16  C   UNL     1      -9.870   7.875  67.312  1.00  0.00    -0.195 C  
BRANCH  14  17
HETATM   17  C   UNL     1      -8.347   8.834  65.662  1.00  0.00    -0.138 C  
BRANCH  17  18
HETATM   18  C   UNL     1      -9.104   9.237  64.397  1.00  0.00    -0.111 C  
BRANCH  18  19
HETATM   19  C   UNL     1      -9.743  10.609  64.545  1.00  0.00    -0.367 A  
HETATM   20  C   UNL     1     -10.601  11.140  63.566  1.00  0.00    -0.393 A  
HETATM   21  C   UNL     1     -11.128  12.424  63.692  1.00  0.00    -0.535 A  
HETATM   22  C   UNL     1     -10.828  13.179  64.821  1.00  0.00    -0.352 A  
HETATM   23  C   UNL     1      -9.474  11.375  65.688  1.00  0.00    -0.253 A  
HETATM   24  C   UNL     1     -10.004  12.661  65.821  1.00  0.00    -0.266 A  
BRANCH  22  25
HETATM   25  S   UNL     1     -11.466  14.828  64.946  1.00  0.00    -0.412 S  
HETATM   26  O   UNL     1     -10.396  15.776  64.719  1.00  0.00    -0.461 OA 
HETATM   27  O   UNL     1     -12.676  14.884  64.152  1.00  0.00    -0.750 OA 
BRANCH  25  28
HETATM   28  N   UNL     1     -11.977  14.921  66.523  1.00  0.00    -0.164 N  
HETATM   29  H   UNL     1     -12.933  14.632  66.731  1.00  0.00     0.000 HD 
BRANCH  28  30
HETATM   30  C   UNL     1     -11.195  15.363  67.572  1.00  0.00    -0.302 C  
HETATM   31  O   UNL     1     -10.865  14.667  68.519  1.00  0.00    -0.237 OA 
BRANCH  30  32
HETATM   32  N   UNL     1     -10.841  16.670  67.432  1.00  0.00    -0.244 N  
HETATM   33  H   UNL     1     -11.348  17.255  66.768  1.00  0.00     0.000 HD 
BRANCH  32  34
HETATM   34  C   UNL     1      -9.753  17.252  68.209  1.00  0.00    -0.294 C  
HETATM   35  C   UNL     1      -8.472  17.374  67.374  1.00  0.00    -0.215 C  
HETATM   36  C   UNL     1      -8.629  18.388  66.243  1.00  0.00    -0.215 C  
HETATM   37  C   UNL     1      -9.098  19.749  66.751  1.00  0.00    -0.442 C  
HETATM   38  C   UNL     1     -10.327  19.662  67.655  1.00  0.00    -0.583 C  
HETATM   39  C   UNL     1     -10.157  18.622  68.762  1.00  0.00    -0.398 C  
ENDBRANCH  32  34
ENDBRANCH  30  32
ENDBRANCH  28  30
ENDBRANCH  25  28
ENDBRANCH  22  25
ENDBRANCH  18  19
ENDBRANCH  17  18
ENDBRANCH  14  17
ENDBRANCH   2   3
TORSDOF 9
ENDMDL
MODEL       62
REMARK 921   NORMALIZED FREE ENERGY PREDICTED BY IDOCK:   -5.91 KCAL/MOL
REMARK 922        TOTAL FREE ENERGY PREDICTED BY IDOCK:  -11.17 KCAL/MOL
REMARK 923 INTER-LIGAND FREE ENERGY PREDICTED BY IDOCK:   -8.80 KCAL/MOL
REMARK 924 INTRA-LIGAND FREE ENERGY PREDICTED BY IDOCK:   -2.36 KCAL/MOL
REMARK 927      BINDING AFFINITY PREDICTED BY RF-SCORE:    0.00 PKD
ROOT
HETATM    1  C   UNL     1      -9.824  19.578  68.744  1.00  0.00    -0.451 C  
HETATM    2  O   UNL     1      -8.861  18.544  68.564  1.00  0.00    -0.320 OA 
ENDROOT
BRANCH   2   3
HETATM    3  C   UNL     1      -9.363  17.342  68.150  1.00  0.00    -0.274 A  
HETATM    4  C   UNL     1      -8.595  16.246  67.773  1.00  0.00    -0.175 A  
HETATM    5  C   UNL     1      -9.219  15.045  67.409  1.00  0.00    -0.200 A  
HETATM    6  C   UNL     1     -10.619  14.935  67.363  1.00  0.00    -0.263 A  
HETATM    7  C   UNL     1     -11.378  16.037  67.784  1.00  0.00    -0.167 A  
HETATM    8  C   UNL     1     -11.269  13.626  66.927  1.00  0.00    -0.326 C  
HETATM    9  C   UNL     1     -10.239  12.669  66.308  1.00  0.00    -0.251 C  
HETATM   10  C   UNL     1     -11.815  12.883  68.167  1.00  0.00    -0.380 C  
HETATM   11  C   UNL     1     -12.414  13.852  65.925  1.00  0.00    -0.519 C  
HETATM   12  C   UNL     1     -10.752  17.221  68.187  1.00  0.00    -0.363 A  
HETATM   13  O   UNL     1     -10.501  11.879  65.403  1.00  0.00    -0.250 OA 
HETATM   14  N   UNL     1      -9.033  12.667  66.983  1.00  0.00    -0.211 N  
HETATM   15  O   UNL     1      -7.145  13.933  67.334  1.00  0.00    -0.174 OA 
HETATM   16  C   UNL     1      -8.364  13.846  67.228  1.00  0.00    -0.185 C  
BRANCH  14  17
HETATM   17  C   UNL     1      -8.366  11.404  67.207  1.00  0.00    -0.149 C  
BRANCH  17  18
HETATM   18  C   UNL     1      -7.774  11.167  68.596  1.00  0.00    -0.135 C  
BRANCH  18  19
HETATM   19  C   UNL     1      -8.633  10.213  69.409  1.00  0.00    -0.183 A  
HETATM   20  C   UNL     1      -8.143   9.562  70.555  1.00  0.00    -0.199 A  
HETATM   21  C   UNL     1      -8.926   8.644  71.252  1.00  0.00    -0.268 A  
HETATM   22  C   UNL     1     -10.227   8.394  70.828  1.00  0.00    -0.194 A  
HETATM   23  C   UNL     1      -9.956   9.967  69.014  1.00  0.00    -0.203 A  
HETATM   24  C   UNL     1     -10.747   9.051  69.712  1.00  0.00    -0.233 A  
BRANCH  22  25
HETATM   25  S   UNL     1     -11.197   7.190  71.695  1.00  0.00    -0.252 S  
HETATM   26  O   UNL     1     -11.489   7.675  73.027  1.00  0.00    -0.342 OA 
HETATM   27  O   UNL     1     -12.270   6.783  70.811  1.00  0.00    -0.390 OA 
BRANCH  25  28
HETATM   28  N   UNL     1     -10.185   5.876  71.782  1.00  0.00    -0.198 N  
HETATM   29  H   UNL     1      -9.546   5.820  72.575  1.00  0.00     0.000 HD 
BRANCH  28  30
HETATM   30  C   UNL     1     -10.151   4.854  70.855  1.00  0.00    -0.222 C  
HETATM   31  O   UNL     1     -10.067   3.671  71.144  1.00  0.00    -0.112 OA 
BRANCH  30  32
HETATM   32  N   UNL     1     -10.214   5.320  69.577  1.00  0.00    -0.254 N  
HETATM   33  H   UNL     1     -10.838   6.096  69.360  1.00  0.00     0.000 HD 
BRANCH  32  34
HETATM   34  C   UNL     1      -9.410   4.733  68.511  1.00  0.00    -0.133 C  
HETATM   35  C   UNL     1     -10.097   4.877  67.147  1.00  0.00    -0.228 C  
HETATM   36  C   UNL     1     -10.184   6.338  66.710  1.00  0.00    -0.262 C  
HETATM   37  C   UNL     1      -8.820   7.024  66.725  1.00  0.00    -0.130 C  
HETATM   38  C   UNL     1      -8.067   6.835  68.041  1.00  0.00    -0.114 C  
HETATM   39  C   UNL     1      -8.018   5.369  68.472  1.00  0.00    -0.091 C  
ENDBRANCH  32  34
ENDBRANCH  30  32
ENDBRANCH  28  30
ENDBRANCH  25  28
ENDBRANCH  22  25
ENDBRANCH  18  19
ENDBRANCH  17  18
ENDBRANCH  14  17
ENDBRANCH   2   3
TORSDOF 9
ENDMDL
MODEL       63
REMARK 921   NORMALIZED FREE ENERGY PREDICTED BY IDOCK:   -5.88 KCAL/MOL
REMARK 922        TOTAL FREE ENERGY PREDICTED BY IDOCK:  -11.12 KCAL/MOL
REMARK 923 INTER-LIGAND FREE ENERGY PREDICTED BY IDOCK:  -10.26 KCAL/MOL
REMARK 924 INTRA-LIGAND FREE ENERGY PREDICTED BY IDOCK:   -0.86 KCAL/MOL
REMARK 927      BINDING AFFINITY PREDICTED BY RF-SCORE:    0.00 PKD
ROOT
HETATM    1  C   UNL     1     -11.029   1.506  72.819  1.00  0.00    -0.132 C  
HETATM    2  O   UNL     1      -9.646   1.752  72.581  1.00  0.00    -0.078 OA 
ENDROOT
BRANCH   2   3
HETATM    3  C   UNL     1      -9.316   3.059  72.350  1.00  0.00    -0.104 A  
HETATM    4  C   UNL     1      -9.710   3.794  71.239  1.00  0.00    -0.245 A  
HETATM    5  C   UNL     1      -9.350   5.144  71.128  1.00  0.00    -0.194 A  
HETATM    6  C   UNL     1      -8.545   5.766  72.097  1.00  0.00    -0.129 A  
HETATM    7  C   UNL     1      -8.189   5.022  73.232  1.00  0.00    -0.107 A  
HETATM    8  C   UNL     1      -8.139   7.226  71.931  1.00  0.00    -0.100 C  
HETATM    9  C   UNL     1      -8.458   7.739  70.518  1.00  0.00    -0.127 C  
HETATM   10  C   UNL     1      -8.982   8.108  72.879  1.00  0.00    -0.328 C  
HETATM   11  C   UNL     1      -6.645   7.451  72.223  1.00  0.00    -0.051 C  
HETATM   12  C   UNL     1      -8.586   3.686  73.360  1.00  0.00    -0.083 A  
HETATM   13  O   UNL     1      -7.780   8.577  69.928  1.00  0.00    -0.086 OA 
HETATM   14  N   UNL     1      -9.676   7.287  70.045  1.00  0.00    -0.175 N  
HETATM   15  O   UNL     1     -10.727   5.408  69.237  1.00  0.00    -0.248 OA 
HETATM   16  C   UNL     1      -9.973   5.942  70.043  1.00  0.00    -0.183 C  
BRANCH  14  17
HETATM   17  C   UNL     1     -10.527   8.210  69.328  1.00  0.00    -0.214 C  
BRANCH  17  18
HETATM   18  C   UNL     1     -10.084   8.615  67.922  1.00  0.00    -0.254 C  
BRANCH  18  19
HETATM   19  C   UNL     1     -10.672   9.958  67.520  1.00  0.00    -0.333 A  
HETATM   20  C   UNL     1     -10.502  10.489  66.229  1.00  0.00    -0.250 A  
HETATM   21  C   UNL     1     -10.997  11.750  65.899  1.00  0.00    -0.354 A  
HETATM   22  C   UNL     1     -11.700  12.479  66.851  1.00  0.00    -0.377 A  
HETATM   23  C   UNL     1     -11.407  10.698  68.457  1.00  0.00    -0.348 A  
HETATM   24  C   UNL     1     -11.908  11.960  68.130  1.00  0.00    -0.338 A  
BRANCH  22  25
HETATM   25  S   UNL     1     -12.282  14.100  66.433  1.00  0.00    -0.386 S  
HETATM   26  O   UNL     1     -13.487  13.989  65.638  1.00  0.00    -0.604 OA 
HETATM   27  O   UNL     1     -12.277  14.888  67.649  1.00  0.00    -0.159 OA 
BRANCH  25  28
HETATM   28  N   UNL     1     -11.052  14.722  65.509  1.00  0.00    -0.333 N  
HETATM   29  H   UNL     1     -10.373  14.068  65.118  1.00  0.00     0.000 HD 
BRANCH  28  30
HETATM   30  C   UNL     1     -10.884  16.064  65.233  1.00  0.00    -0.362 C  
HETATM   31  O   UNL     1     -11.239  16.597  64.194  1.00  0.00    -1.103 OA 
BRANCH  30  32
HETATM   32  N   UNL     1     -10.269  16.724  66.252  1.00  0.00    -0.322 N  
HETATM   33  H   UNL     1     -10.396  16.393  67.208  1.00  0.00     0.000 HD 
BRANCH  32  34
HETATM   34  C   UNL     1      -9.432  17.894  66.008  1.00  0.00    -0.051 C  
HETATM   35  C   UNL     1     -10.229  19.195  66.169  1.00  0.00    -0.535 C  
HETATM   36  C   UNL     1     -10.665  19.415  67.616  1.00  0.00    -0.536 C  
HETATM   37  C   UNL     1      -9.488  19.355  68.587  1.00  0.00    -0.466 C  
HETATM   38  C   UNL     1      -8.621  18.111  68.404  1.00  0.00    -0.310 C  
HETATM   39  C   UNL     1      -8.221  17.896  66.944  1.00  0.00    -0.256 C  
ENDBRANCH  32  34
ENDBRANCH  30  32
ENDBRANCH  28  30
ENDBRANCH  25  28
ENDBRANCH  22  25
ENDBRANCH  18  19
ENDBRANCH  17  18
ENDBRANCH  14  17
ENDBRANCH   2   3
TORSDOF 9
ENDMDL
MODEL       64
REMARK 921   NORMALIZED FREE ENERGY PREDICTED BY IDOCK:   -5.87 KCAL/MOL
REMARK 922        TOTAL FREE ENERGY PREDICTED BY IDOCK:  -11.11 KCAL/MOL
REMARK 923 INTER-LIGAND FREE ENERGY PREDICTED BY IDOCK:   -9.33 KCAL/MOL
REMARK 924 INTRA-LIGAND FREE ENERGY PREDICTED BY IDOCK:   -1.77 KCAL/MOL
REMARK 927      BINDING AFFINITY PREDICTED BY RF-SCORE:    0.00 PKD
ROOT
HETATM    1  C   UNL     1      -7.009  18.101  68.587  1.00  0.00    -0.257 C  
HETATM    2  O   UNL     1      -7.503  16.823  68.980  1.00  0.00    -0.229 OA 
ENDROOT
BRANCH   2   3
HETATM    3  C   UNL     1      -8.373  16.237  68.104  1.00  0.00    -0.172 A  
HETATM    4  C   UNL     1      -8.317  14.910  67.696  1.00  0.00    -0.178 A  
HETATM    5  C   UNL     1      -9.292  14.403  66.825  1.00  0.00    -0.285 A  
HETATM    6  C   UNL     1     -10.305  15.225  66.306  1.00  0.00    -0.303 A  
HETATM    7  C   UNL     1     -10.370  16.552  66.758  1.00  0.00    -0.296 A  
HETATM    8  C   UNL     1     -11.329  14.654  65.331  1.00  0.00    -0.344 C  
HETATM    9  C   UNL     1     -10.909  13.265  64.827  1.00  0.00    -0.360 C  
HETATM   10  C   UNL     1     -12.669  14.427  66.066  1.00  0.00    -0.131 C  
HETATM   11  C   UNL     1     -11.562  15.579  64.124  1.00  0.00    -0.085 C  
HETATM   12  C   UNL     1      -9.420  17.044  67.659  1.00  0.00    -0.236 A  
HETATM   13  O   UNL     1     -11.162  12.843  63.701  1.00  0.00    -0.430 OA 
HETATM   14  N   UNL     1     -10.364  12.475  65.822  1.00  0.00    -0.260 N  
HETATM   15  O   UNL     1      -8.471  12.213  67.103  1.00  0.00    -0.170 OA 
HETATM   16  C   UNL     1      -9.320  12.937  66.593  1.00  0.00    -0.240 C  
BRANCH  14  17
HETATM   17  C   UNL     1     -10.732  11.078  65.878  1.00  0.00    -0.160 C  
BRANCH  17  18
HETATM   18  C   UNL     1      -9.708  10.068  65.358  1.00  0.00    -0.368 C  
BRANCH  18  19
HETATM   19  C   UNL     1      -9.448   8.969  66.376  1.00  0.00    -0.288 A  
HETATM   20  C   UNL     1      -8.153   8.674  66.837  1.00  0.00    -0.098 A  
HETATM   21  C   UNL     1      -7.927   7.622  67.724  1.00  0.00    -0.121 A  
HETATM   22  C   UNL     1      -9.005   6.875  68.186  1.00  0.00    -0.123 A  
HETATM   23  C   UNL     1     -10.523   8.221  66.875  1.00  0.00    -0.365 A  
HETATM   24  C   UNL     1     -10.303   7.169  67.768  1.00  0.00    -0.257 A  
BRANCH  22  25
HETATM   25  S   UNL     1      -8.699   5.511  69.276  1.00  0.00    -0.107 S  
HETATM   26  O   UNL     1      -8.210   4.384  68.511  1.00  0.00    -0.084 OA 
HETATM   27  O   UNL     1      -7.939   6.019  70.401  1.00  0.00    -0.103 OA 
BRANCH  25  28
HETATM   28  N   UNL     1     -10.202   5.167  69.889  1.00  0.00    -0.278 N  
HETATM   29  H   UNL     1     -10.835   4.611  69.314  1.00  0.00     0.000 HD 
BRANCH  28  30
HETATM   30  C   UNL     1     -10.656   5.583  71.126  1.00  0.00    -0.233 C  
HETATM   31  O   UNL     1     -10.597   4.905  72.139  1.00  0.00    -0.208 OA 
BRANCH  30  32
HETATM   32  N   UNL     1     -11.182   6.838  71.082  1.00  0.00    -0.269 N  
HETATM   33  H   UNL     1     -11.817   7.086  70.323  1.00  0.00     0.000 HD 
BRANCH  32  34
HETATM   34  C   UNL     1     -10.861   7.835  72.097  1.00  0.00    -0.257 C  
HETATM   35  C   UNL     1      -9.832   8.848  71.580  1.00  0.00    -0.384 C  
HETATM   36  C   UNL     1     -10.405   9.713  70.458  1.00  0.00    -0.359 C  
HETATM   37  C   UNL     1     -11.707  10.396  70.867  1.00  0.00    -0.455 C  
HETATM   38  C   UNL     1     -12.730   9.431  71.465  1.00  0.00    -0.444 C  
HETATM   39  C   UNL     1     -12.127   8.558  72.564  1.00  0.00    -0.395 C  
ENDBRANCH  32  34
ENDBRANCH  30  32
ENDBRANCH  28  30
ENDBRANCH  25  28
ENDBRANCH  22  25
ENDBRANCH  18  19
ENDBRANCH  17  18
ENDBRANCH  14  17
ENDBRANCH   2   3
TORSDOF 9
ENDMDL
MODEL       65
REMARK 921   NORMALIZED FREE ENERGY PREDICTED BY IDOCK:   -5.85 KCAL/MOL
REMARK 922        TOTAL FREE ENERGY PREDICTED BY IDOCK:  -11.07 KCAL/MOL
REMARK 923 INTER-LIGAND FREE ENERGY PREDICTED BY IDOCK:  -10.36 KCAL/MOL
REMARK 924 INTRA-LIGAND FREE ENERGY PREDICTED BY IDOCK:   -0.71 KCAL/MOL
REMARK 927      BINDING AFFINITY PREDICTED BY RF-SCORE:    0.00 PKD
ROOT
HETATM    1  C   UNL     1     -14.212  13.683  72.452  1.00  0.00    -0.383 C  
HETATM    2  O   UNL     1     -12.998  14.383  72.711  1.00  0.00    -0.438 OA 
ENDROOT
BRANCH   2   3
HETATM    3  C   UNL     1     -12.279  14.736  71.604  1.00  0.00    -0.349 A  
HETATM    4  C   UNL     1     -12.171  13.972  70.449  1.00  0.00    -0.433 A  
HETATM    5  C   UNL     1     -11.440  14.455  69.355  1.00  0.00    -0.330 A  
HETATM    6  C   UNL     1     -10.762  15.683  69.415  1.00  0.00    -0.252 A  
HETATM    7  C   UNL     1     -10.914  16.460  70.573  1.00  0.00    -0.164 A  
HETATM    8  C   UNL     1      -9.945  16.165  68.221  1.00  0.00    -0.226 C  
HETATM    9  C   UNL     1      -9.754  15.047  67.185  1.00  0.00    -0.226 C  
HETATM   10  C   UNL     1     -10.723  17.274  67.478  1.00  0.00    -0.278 C  
HETATM   11  C   UNL     1      -8.567  16.706  68.640  1.00  0.00    -0.253 C  
HETATM   12  C   UNL     1     -11.678  15.994  71.648  1.00  0.00    -0.583 A  
HETATM   13  O   UNL     1      -8.749  14.930  66.487  1.00  0.00    -0.254 OA 
HETATM   14  N   UNL     1     -10.892  14.285  67.000  1.00  0.00    -0.293 N  
HETATM   15  O   UNL     1     -12.183  12.671  68.009  1.00  0.00    -0.268 OA 
HETATM   16  C   UNL     1     -11.535  13.710  68.074  1.00  0.00    -0.310 C  
BRANCH  14  17
HETATM   17  C   UNL     1     -11.255  13.897  65.656  1.00  0.00    -0.306 C  
BRANCH  17  18
HETATM   18  C   UNL     1     -11.912  12.528  65.481  1.00  0.00    -0.500 C  
BRANCH  18  19
HETATM   19  C   UNL     1     -10.896  11.472  65.076  1.00  0.00    -0.336 A  
HETATM   20  C   UNL     1     -10.315  10.600  66.013  1.00  0.00    -0.290 A  
HETATM   21  C   UNL     1      -9.340   9.680  65.632  1.00  0.00    -0.296 A  
HETATM   22  C   UNL     1      -8.961   9.600  64.296  1.00  0.00    -0.229 A  
HETATM   23  C   UNL     1     -10.520  11.357  63.730  1.00  0.00    -0.456 A  
HETATM   24  C   UNL     1      -9.546  10.433  63.342  1.00  0.00    -0.361 A  
BRANCH  22  25
HETATM   25  S   UNL     1      -7.686   8.458  63.832  1.00  0.00    -0.150 S  
HETATM   26  O   UNL     1      -7.141   8.842  62.548  1.00  0.00    -0.097 OA 
HETATM   27  O   UNL     1      -6.816   8.294  64.979  1.00  0.00    -0.065 OA 
BRANCH  25  28
HETATM   28  N   UNL     1      -8.497   7.016  63.693  1.00  0.00    -0.333 N  
HETATM   29  H   UNL     1      -9.131   6.902  62.902  1.00  0.00     0.000 HD 
BRANCH  28  30
HETATM   30  C   UNL     1      -8.371   5.961  64.574  1.00  0.00    -0.069 C  
HETATM   31  O   UNL     1      -7.824   4.905  64.301  1.00  0.00    -0.080 OA 
BRANCH  30  32
HETATM   32  N   UNL     1      -8.934   6.233  65.783  1.00  0.00    -0.297 N  
HETATM   33  H   UNL     1      -8.514   6.947  66.379  1.00  0.00     0.000 HD 
BRANCH  32  34
HETATM   34  C   UNL     1     -10.125   5.529  66.245  1.00  0.00    -0.145 C  
HETATM   35  C   UNL     1      -9.756   4.286  67.065  1.00  0.00    -0.237 C  
HETATM   36  C   UNL     1      -9.079   4.658  68.383  1.00  0.00    -0.154 C  
HETATM   37  C   UNL     1      -9.913   5.642  69.200  1.00  0.00    -0.244 C  
HETATM   38  C   UNL     1     -10.369   6.857  68.395  1.00  0.00    -0.213 C  
HETATM   39  C   UNL     1     -11.018   6.460  67.069  1.00  0.00    -0.463 C  
ENDBRANCH  32  34
ENDBRANCH  30  32
ENDBRANCH  28  30
ENDBRANCH  25  28
ENDBRANCH  22  25
ENDBRANCH  18  19
ENDBRANCH  17  18
ENDBRANCH  14  17
ENDBRANCH   2   3
TORSDOF 9
ENDMDL
MODEL       66
REMARK 921   NORMALIZED FREE ENERGY PREDICTED BY IDOCK:   -5.84 KCAL/MOL
REMARK 922        TOTAL FREE ENERGY PREDICTED BY IDOCK:  -11.06 KCAL/MOL
REMARK 923 INTER-LIGAND FREE ENERGY PREDICTED BY IDOCK:   -9.07 KCAL/MOL
REMARK 924 INTRA-LIGAND FREE ENERGY PREDICTED BY IDOCK:   -1.98 KCAL/MOL
REMARK 927      BINDING AFFINITY PREDICTED BY RF-SCORE:    0.00 PKD
ROOT
HETATM    1  C   UNL     1     -14.143   7.718  71.623  1.00  0.00    -0.429 C  
HETATM    2  O   UNL     1     -13.068   6.789  71.737  1.00  0.00    -0.336 OA 
ENDROOT
BRANCH   2   3
HETATM    3  C   UNL     1     -11.852   7.247  71.315  1.00  0.00    -0.307 A  
HETATM    4  C   UNL     1     -11.190   6.809  70.174  1.00  0.00    -0.387 A  
HETATM    5  C   UNL     1      -9.964   7.382  69.811  1.00  0.00    -0.188 A  
HETATM    6  C   UNL     1      -9.352   8.363  70.610  1.00  0.00    -0.182 A  
HETATM    7  C   UNL     1     -10.052   8.822  71.736  1.00  0.00    -0.403 A  
HETATM    8  C   UNL     1      -8.000   8.942  70.209  1.00  0.00    -0.116 C  
HETATM    9  C   UNL     1      -7.352   8.122  69.083  1.00  0.00    -0.082 C  
HETATM   10  C   UNL     1      -8.199  10.354  69.615  1.00  0.00    -0.099 C  
HETATM   11  C   UNL     1      -7.027   9.023  71.398  1.00  0.00    -0.073 C  
HETATM   12  C   UNL     1     -11.295   8.277  72.073  1.00  0.00    -0.390 A  
HETATM   13  O   UNL     1      -6.138   7.966  68.965  1.00  0.00    -0.037 OA 
HETATM   14  N   UNL     1      -8.259   7.718  68.122  1.00  0.00    -0.123 N  
HETATM   15  O   UNL     1      -9.978   6.234  67.756  1.00  0.00    -0.117 OA 
HETATM   16  C   UNL     1      -9.406   7.042  68.478  1.00  0.00    -0.135 C  
BRANCH  14  17
HETATM   17  C   UNL     1      -7.874   7.790  66.730  1.00  0.00    -0.106 C  
BRANCH  17  18
HETATM   18  C   UNL     1      -8.898   8.367  65.754  1.00  0.00    -0.204 C  
BRANCH  18  19
HETATM   19  C   UNL     1      -9.520   9.645  66.293  1.00  0.00    -0.255 A  
HETATM   20  C   UNL     1     -10.730   9.638  67.010  1.00  0.00    -0.225 A  
HETATM   21  C   UNL     1     -11.316  10.827  67.444  1.00  0.00    -0.239 A  
HETATM   22  C   UNL     1     -10.675  12.035  67.193  1.00  0.00    -0.239 A  
HETATM   23  C   UNL     1      -8.877  10.871  66.075  1.00  0.00    -0.198 A  
HETATM   24  C   UNL     1      -9.458  12.065  66.512  1.00  0.00    -0.234 A  
BRANCH  22  25
HETATM   25  S   UNL     1     -11.453  13.543  67.708  1.00  0.00    -0.335 S  
HETATM   26  O   UNL     1     -12.203  14.099  66.602  1.00  0.00    -0.448 OA 
HETATM   27  O   UNL     1     -12.103  13.282  68.976  1.00  0.00    -0.307 OA 
BRANCH  25  28
HETATM   28  N   UNL     1     -10.170  14.530  68.074  1.00  0.00    -0.230 N  
HETATM   29  H   UNL     1      -9.231  14.179  67.886  1.00  0.00     0.000 HD 
BRANCH  28  30
HETATM   30  C   UNL     1     -10.287  15.795  68.614  1.00  0.00    -0.225 C  
HETATM   31  O   UNL     1     -10.084  16.058  69.789  1.00  0.00    -0.266 OA 
BRANCH  30  32
HETATM   32  N   UNL     1     -10.663  16.716  67.685  1.00  0.00    -0.328 N  
HETATM   33  H   UNL     1     -11.459  17.323  67.879  1.00  0.00     0.000 HD 
BRANCH  32  34
HETATM   34  C   UNL     1      -9.952  16.855  66.419  1.00  0.00    -0.309 C  
HETATM   35  C   UNL     1     -10.684  17.812  65.469  1.00  0.00    -0.009 C  
HETATM   36  C   UNL     1     -10.675  19.246  65.994  1.00  0.00    -0.477 C  
HETATM   37  C   UNL     1      -9.263  19.736  66.305  1.00  0.00    -0.461 C  
HETATM   38  C   UNL     1      -8.471  18.769  67.184  1.00  0.00    -0.283 C  
HETATM   39  C   UNL     1      -8.518  17.336  66.654  1.00  0.00    -0.292 C  
ENDBRANCH  32  34
ENDBRANCH  30  32
ENDBRANCH  28  30
ENDBRANCH  25  28
ENDBRANCH  22  25
ENDBRANCH  18  19
ENDBRANCH  17  18
ENDBRANCH  14  17
ENDBRANCH   2   3
TORSDOF 9
ENDMDL
MODEL       67
REMARK 921   NORMALIZED FREE ENERGY PREDICTED BY IDOCK:   -5.78 KCAL/MOL
REMARK 922        TOTAL FREE ENERGY PREDICTED BY IDOCK:  -10.97 KCAL/MOL
REMARK 923 INTER-LIGAND FREE ENERGY PREDICTED BY IDOCK:  -10.15 KCAL/MOL
REMARK 924 INTRA-LIGAND FREE ENERGY PREDICTED BY IDOCK:   -0.82 KCAL/MOL
REMARK 927      BINDING AFFINITY PREDICTED BY RF-SCORE:    0.00 PKD
ROOT
HETATM    1  C   UNL     1      -6.985  20.396  66.575  1.00  0.00    -0.253 C  
HETATM    2  O   UNL     1      -8.368  20.360  66.919  1.00  0.00    -0.304 OA 
ENDROOT
BRANCH   2   3
HETATM    3  C   UNL     1      -8.891  19.112  67.110  1.00  0.00    -0.288 A  
HETATM    4  C   UNL     1      -9.728  18.455  66.215  1.00  0.00    -0.298 A  
HETATM    5  C   UNL     1     -10.170  17.155  66.495  1.00  0.00    -0.322 A  
HETATM    6  C   UNL     1      -9.828  16.510  67.695  1.00  0.00    -0.247 A  
HETATM    7  C   UNL     1      -8.952  17.171  68.569  1.00  0.00    -0.265 A  
HETATM    8  C   UNL     1     -10.355  15.110  67.988  1.00  0.00    -0.240 C  
HETATM    9  C   UNL     1     -11.459  14.708  66.998  1.00  0.00    -0.368 C  
HETATM   10  C   UNL     1      -9.226  14.078  67.770  1.00  0.00    -0.195 C  
HETATM   11  C   UNL     1     -10.893  14.979  69.424  1.00  0.00    -0.265 C  
HETATM   12  C   UNL     1      -8.479  18.453  68.268  1.00  0.00    -0.321 A  
HETATM   13  O   UNL     1     -12.409  13.986  67.293  1.00  0.00    -0.351 OA 
HETATM   14  N   UNL     1     -11.189  15.104  65.701  1.00  0.00    -0.324 N  
HETATM   15  O   UNL     1     -11.114  16.961  64.346  1.00  0.00    -1.128 OA 
HETATM   16  C   UNL     1     -10.876  16.415  65.418  1.00  0.00    -0.239 C  
BRANCH  14  17
HETATM   17  C   UNL     1     -11.480  14.188  64.622  1.00  0.00    -0.387 C  
BRANCH  17  18
HETATM   18  C   UNL     1     -12.199  12.889  64.987  1.00  0.00    -0.515 C  
BRANCH  18  19
HETATM   19  C   UNL     1     -11.220  11.733  65.125  1.00  0.00    -0.311 A  
HETATM   20  C   UNL     1     -11.020  11.070  66.348  1.00  0.00    -0.202 A  
HETATM   21  C   UNL     1     -10.074  10.053  66.469  1.00  0.00    -0.296 A  
HETATM   22  C   UNL     1      -9.342   9.665  65.352  1.00  0.00    -0.259 A  
HETATM   23  C   UNL     1     -10.492  11.309  64.005  1.00  0.00    -0.440 A  
HETATM   24  C   UNL     1      -9.545  10.287  64.120  1.00  0.00    -0.376 A  
BRANCH  22  25
HETATM   25  S   UNL     1      -8.109   8.404  65.530  1.00  0.00    -0.137 S  
HETATM   26  O   UNL     1      -8.730   7.188  66.011  1.00  0.00    -0.147 OA 
HETATM   27  O   UNL     1      -7.323   8.394  64.313  1.00  0.00    -0.088 OA 
BRANCH  25  28
HETATM   28  N   UNL     1      -7.098   9.020  66.694  1.00  0.00    -0.081 N  
HETATM   29  H   UNL     1      -6.176   9.345  66.400  1.00  0.00     0.000 HD 
BRANCH  28  30
HETATM   30  C   UNL     1      -7.419   9.122  68.033  1.00  0.00    -0.084 C  
HETATM   31  O   UNL     1      -7.305  10.146  68.687  1.00  0.00    -0.078 OA 
BRANCH  30  32
HETATM   32  N   UNL     1      -7.872   7.944  68.542  1.00  0.00    -0.117 N  
HETATM   33  H   UNL     1      -7.675   7.077  68.044  1.00  0.00     0.000 HD 
BRANCH  32  34
HETATM   34  C   UNL     1      -8.635   7.894  69.785  1.00  0.00    -0.133 C  
HETATM   35  C   UNL     1     -10.136   8.074  69.528  1.00  0.00    -0.196 C  
HETATM   36  C   UNL     1     -10.722   6.897  68.752  1.00  0.00    -0.255 C  
HETATM   37  C   UNL     1     -10.425   5.559  69.425  1.00  0.00    -0.360 C  
HETATM   38  C   UNL     1      -8.948   5.375  69.772  1.00  0.00    -0.146 C  
HETATM   39  C   UNL     1      -8.378   6.577  70.523  1.00  0.00    -0.133 C  
ENDBRANCH  32  34
ENDBRANCH  30  32
ENDBRANCH  28  30
ENDBRANCH  25  28
ENDBRANCH  22  25
ENDBRANCH  18  19
ENDBRANCH  17  18
ENDBRANCH  14  17
ENDBRANCH   2   3
TORSDOF 9
ENDMDL
MODEL       68
REMARK 921   NORMALIZED FREE ENERGY PREDICTED BY IDOCK:   -5.77 KCAL/MOL
REMARK 922        TOTAL FREE ENERGY PREDICTED BY IDOCK:  -10.96 KCAL/MOL
REMARK 923 INTER-LIGAND FREE ENERGY PREDICTED BY IDOCK:   -9.78 KCAL/MOL
REMARK 924 INTRA-LIGAND FREE ENERGY PREDICTED BY IDOCK:   -1.18 KCAL/MOL
REMARK 927      BINDING AFFINITY PREDICTED BY RF-SCORE:    0.00 PKD
ROOT
HETATM    1  C   UNL     1      -6.164   1.725  71.688  1.00  0.00    -0.014 C  
HETATM    2  O   UNL     1      -5.914   2.646  70.629  1.00  0.00    -0.017 OA 
ENDROOT
BRANCH   2   3
HETATM    3  C   UNL     1      -6.490   3.876  70.776  1.00  0.00    -0.030 A  
HETATM    4  C   UNL     1      -6.401   4.911  69.852  1.00  0.00    -0.030 A  
HETATM    5  C   UNL     1      -7.071   6.119  70.086  1.00  0.00    -0.074 A  
HETATM    6  C   UNL     1      -7.797   6.334  71.269  1.00  0.00    -0.108 A  
HETATM    7  C   UNL     1      -7.910   5.266  72.173  1.00  0.00    -0.105 A  
HETATM    8  C   UNL     1      -8.485   7.672  71.512  1.00  0.00    -0.124 C  
HETATM    9  C   UNL     1      -8.026   8.731  70.499  1.00  0.00    -0.113 C  
HETATM   10  C   UNL     1     -10.005   7.521  71.275  1.00  0.00    -0.196 C  
HETATM   11  C   UNL     1      -8.244   8.200  72.937  1.00  0.00    -0.234 C  
HETATM   12  C   UNL     1      -7.274   4.047  71.917  1.00  0.00    -0.058 A  
HETATM   13  O   UNL     1      -7.927   9.928  70.760  1.00  0.00    -0.243 OA 
HETATM   14  N   UNL     1      -7.894   8.227  69.218  1.00  0.00    -0.106 N  
HETATM   15  O   UNL     1      -6.547   6.887  67.922  1.00  0.00    -0.054 OA 
HETATM   16  C   UNL     1      -7.128   7.107  68.979  1.00  0.00    -0.084 C  
BRANCH  14  17
HETATM   17  C   UNL     1      -8.360   9.027  68.107  1.00  0.00    -0.121 C  
BRANCH  17  18
HETATM   18  C   UNL     1      -9.744   8.699  67.548  1.00  0.00    -0.212 C  
BRANCH  18  19
HETATM   19  C   UNL     1     -10.315   9.868  66.761  1.00  0.00    -0.285 A  
HETATM   20  C   UNL     1     -10.028  10.059  65.399  1.00  0.00    -0.364 A  
HETATM   21  C   UNL     1     -10.511  11.171  64.710  1.00  0.00    -0.388 A  
HETATM   22  C   UNL     1     -11.320  12.087  65.374  1.00  0.00    -0.321 A  
HETATM   23  C   UNL     1     -11.154  10.789  67.405  1.00  0.00    -0.363 A  
HETATM   24  C   UNL     1     -11.645  11.903  66.718  1.00  0.00    -0.341 A  
BRANCH  22  25
HETATM   25  S   UNL     1     -11.889  13.521  64.500  1.00  0.00    -0.425 S  
HETATM   26  O   UNL     1     -11.918  13.240  63.081  1.00  0.00    -0.476 OA 
HETATM   27  O   UNL     1     -13.079  13.995  65.178  1.00  0.00    -0.776 OA 
BRANCH  25  28
HETATM   28  N   UNL     1     -10.723  14.656  64.827  1.00  0.00    -0.558 N  
HETATM   29  H   UNL     1      -9.797  14.323  65.096  1.00  0.00     0.000 HD 
BRANCH  28  30
HETATM   30  C   UNL     1     -10.920  16.021  64.760  1.00  0.00    -0.356 C  
HETATM   31  O   UNL     1     -11.570  16.575  63.888  1.00  0.00    -1.175 OA 
BRANCH  30  32
HETATM   32  N   UNL     1     -10.298  16.679  65.776  1.00  0.00    -0.347 N  
HETATM   33  H   UNL     1     -10.632  17.603  66.050  1.00  0.00     0.000 HD 
BRANCH  32  34
HETATM   34  C   UNL     1      -9.165  16.092  66.484  1.00  0.00    -0.272 C  
HETATM   35  C   UNL     1      -7.877  16.885  66.231  1.00  0.00    -0.346 C  
HETATM   36  C   UNL     1      -7.943  18.282  66.846  1.00  0.00    -0.251 C  
HETATM   37  C   UNL     1      -8.294  18.241  68.331  1.00  0.00    -0.323 C  
HETATM   38  C   UNL     1      -9.528  17.392  68.634  1.00  0.00    -0.280 C  
HETATM   39  C   UNL     1      -9.450  16.010  67.986  1.00  0.00    -0.207 C  
ENDBRANCH  32  34
ENDBRANCH  30  32
ENDBRANCH  28  30
ENDBRANCH  25  28
ENDBRANCH  22  25
ENDBRANCH  18  19
ENDBRANCH  17  18
ENDBRANCH  14  17
ENDBRANCH   2   3
TORSDOF 9
ENDMDL
MODEL       69
REMARK 921   NORMALIZED FREE ENERGY PREDICTED BY IDOCK:   -5.76 KCAL/MOL
REMARK 922        TOTAL FREE ENERGY PREDICTED BY IDOCK:  -10.93 KCAL/MOL
REMARK 923 INTER-LIGAND FREE ENERGY PREDICTED BY IDOCK:   -9.23 KCAL/MOL
REMARK 924 INTRA-LIGAND FREE ENERGY PREDICTED BY IDOCK:   -1.71 KCAL/MOL
REMARK 927      BINDING AFFINITY PREDICTED BY RF-SCORE:    0.00 PKD
ROOT
HETATM    1  C   UNL     1      -6.114  20.710  63.946  1.00  0.00    -0.287 C  
HETATM    2  O   UNL     1      -6.968  20.833  65.080  1.00  0.00    -0.144 OA 
ENDROOT
BRANCH   2   3
HETATM    3  C   UNL     1      -7.163  19.683  65.793  1.00  0.00    -0.310 A  
HETATM    4  C   UNL     1      -8.369  19.300  66.368  1.00  0.00    -0.330 A  
HETATM    5  C   UNL     1      -8.465  18.074  67.041  1.00  0.00    -0.247 A  
HETATM    6  C   UNL     1      -7.348  17.237  67.196  1.00  0.00    -0.200 A  
HETATM    7  C   UNL     1      -6.150  17.619  66.575  1.00  0.00    -0.236 A  
HETATM    8  C   UNL     1      -7.476  15.926  67.964  1.00  0.00    -0.135 C  
HETATM    9  C   UNL     1      -8.807  15.851  68.727  1.00  0.00    -0.213 C  
HETATM   10  C   UNL     1      -7.516  14.746  66.968  1.00  0.00     0.095 C  
HETATM   11  C   UNL     1      -6.316  15.717  68.953  1.00  0.00    -0.114 C  
HETATM   12  C   UNL     1      -6.067  18.824  65.869  1.00  0.00    -0.230 A  
HETATM   13  O   UNL     1      -8.944  15.277  69.806  1.00  0.00    -0.201 OA 
HETATM   14  N   UNL     1      -9.872  16.349  67.999  1.00  0.00    -0.235 N  
HETATM   15  O   UNL     1     -10.799  18.316  67.249  1.00  0.00    -0.373 OA 
HETATM   16  C   UNL     1      -9.816  17.609  67.445  1.00  0.00    -0.305 C  
BRANCH  14  17
HETATM   17  C   UNL     1     -11.130  15.638  68.037  1.00  0.00    -0.335 C  
BRANCH  17  18
HETATM   18  C   UNL     1     -11.807  15.493  69.401  1.00  0.00    -0.392 C  
BRANCH  18  19
HETATM   19  C   UNL     1     -11.961  14.032  69.791  1.00  0.00    -0.393 A  
HETATM   20  C   UNL     1     -12.570  13.645  70.998  1.00  0.00    -0.441 A  
HETATM   21  C   UNL     1     -12.647  12.303  71.366  1.00  0.00    -0.303 A  
HETATM   22  C   UNL     1     -12.145  11.329  70.510  1.00  0.00    -0.387 A  
HETATM   23  C   UNL     1     -11.485  13.034  68.929  1.00  0.00    -0.345 A  
HETATM   24  C   UNL     1     -11.564  11.686  69.292  1.00  0.00    -0.385 A  
BRANCH  22  25
HETATM   25  S   UNL     1     -12.206   9.630  71.011  1.00  0.00    -0.317 S  
HETATM   26  O   UNL     1     -11.227   9.399  72.053  1.00  0.00    -0.287 OA 
HETATM   27  O   UNL     1     -13.599   9.294  71.227  1.00  0.00    -0.341 OA 
BRANCH  25  28
HETATM   28  N   UNL     1     -11.770   8.809  69.636  1.00  0.00    -0.140 N  
HETATM   29  H   UNL     1     -12.401   8.855  68.835  1.00  0.00     0.000 HD 
BRANCH  28  30
HETATM   30  C   UNL     1     -10.612   8.069  69.502  1.00  0.00    -0.214 C  
HETATM   31  O   UNL     1     -10.549   6.863  69.671  1.00  0.00    -0.212 OA 
BRANCH  30  32
HETATM   32  N   UNL     1      -9.546   8.845  69.164  1.00  0.00    -0.160 N  
HETATM   33  H   UNL     1      -9.283   9.622  69.770  1.00  0.00     0.000 HD 
BRANCH  32  34
HETATM   34  C   UNL     1      -8.770   8.589  67.955  1.00  0.00    -0.138 C  
HETATM   35  C   UNL     1      -9.674   8.500  66.719  1.00  0.00    -0.303 C  
HETATM   36  C   UNL     1     -10.326   9.843  66.397  1.00  0.00    -0.246 C  
HETATM   37  C   UNL     1      -9.298  10.963  66.259  1.00  0.00    -0.203 C  
HETATM   38  C   UNL     1      -8.325  11.034  67.435  1.00  0.00    -0.126 C  
HETATM   39  C   UNL     1      -7.707   9.673  67.756  1.00  0.00    -0.094 C  
ENDBRANCH  32  34
ENDBRANCH  30  32
ENDBRANCH  28  30
ENDBRANCH  25  28
ENDBRANCH  22  25
ENDBRANCH  18  19
ENDBRANCH  17  18
ENDBRANCH  14  17
ENDBRANCH   2   3
TORSDOF 9
ENDMDL
MODEL       70
REMARK 921   NORMALIZED FREE ENERGY PREDICTED BY IDOCK:   -5.71 KCAL/MOL
REMARK 922        TOTAL FREE ENERGY PREDICTED BY IDOCK:  -10.87 KCAL/MOL
REMARK 923 INTER-LIGAND FREE ENERGY PREDICTED BY IDOCK:   -9.37 KCAL/MOL
REMARK 924 INTRA-LIGAND FREE ENERGY PREDICTED BY IDOCK:   -1.50 KCAL/MOL
REMARK 927      BINDING AFFINITY PREDICTED BY RF-SCORE:    0.00 PKD
ROOT
HETATM    1  C   UNL     1      -8.560  19.283  66.082  1.00  0.00    -0.257 C  
HETATM    2  O   UNL     1      -8.514  18.149  66.945  1.00  0.00    -0.239 OA 
ENDROOT
BRANCH   2   3
HETATM    3  C   UNL     1      -9.214  17.057  66.513  1.00  0.00    -0.271 A  
HETATM    4  C   UNL     1      -8.927  15.742  66.858  1.00  0.00    -0.266 A  
HETATM    5  C   UNL     1      -9.742  14.701  66.392  1.00  0.00    -0.315 A  
HETATM    6  C   UNL     1     -10.823  14.951  65.531  1.00  0.00    -0.365 A  
HETATM    7  C   UNL     1     -11.123  16.287  65.225  1.00  0.00    -0.156 A  
HETATM    8  C   UNL     1     -11.669  13.794  65.011  1.00  0.00    -0.356 C  
HETATM    9  C   UNL     1     -11.006  12.440  65.301  1.00  0.00    -0.298 C  
HETATM   10  C   UNL     1     -13.014  13.755  65.772  1.00  0.00    -0.310 C  
HETATM   11  C   UNL     1     -11.943  13.908  63.501  1.00  0.00    -0.082 C  
HETATM   12  C   UNL     1     -10.333  17.327  65.726  1.00  0.00    -0.245 A  
HETATM   13  O   UNL     1     -11.103  11.461  64.564  1.00  0.00    -0.309 OA 
HETATM   14  N   UNL     1     -10.428  12.382  66.556  1.00  0.00    -0.228 N  
HETATM   15  O   UNL     1      -8.624  13.145  67.762  1.00  0.00    -0.163 OA 
HETATM   16  C   UNL     1      -9.530  13.346  66.960  1.00  0.00    -0.247 C  
BRANCH  14  17
HETATM   17  C   UNL     1     -10.584  11.176  67.337  1.00  0.00    -0.234 C  
BRANCH  17  18
HETATM   18  C   UNL     1     -11.510  11.248  68.551  1.00  0.00    -0.372 C  
BRANCH  18  19
HETATM   19  C   UNL     1     -11.048  10.314  69.657  1.00  0.00    -0.323 A  
HETATM   20  C   UNL     1     -11.942   9.783  70.604  1.00  0.00    -0.340 A  
HETATM   21  C   UNL     1     -11.489   8.977  71.648  1.00  0.00    -0.431 A  
HETATM   22  C   UNL     1     -10.136   8.666  71.733  1.00  0.00    -0.310 A  
HETATM   23  C   UNL     1      -9.693   9.966  69.746  1.00  0.00    -0.266 A  
HETATM   24  C   UNL     1      -9.235   9.155  70.788  1.00  0.00    -0.321 A  
BRANCH  22  25
HETATM   25  S   UNL     1      -9.567   7.680  73.092  1.00  0.00    -0.282 S  
HETATM   26  O   UNL     1      -8.435   8.330  73.718  1.00  0.00    -0.248 OA 
HETATM   27  O   UNL     1     -10.728   7.314  73.877  1.00  0.00    -0.318 OA 
BRANCH  25  28
HETATM   28  N   UNL     1      -9.076   6.272  72.363  1.00  0.00    -0.139 N  
HETATM   29  H   UNL     1      -8.089   6.181  72.120  1.00  0.00     0.000 HD 
BRANCH  28  30
HETATM   30  C   UNL     1      -9.912   5.214  72.063  1.00  0.00    -0.187 C  
HETATM   31  O   UNL     1     -10.465   4.522  72.902  1.00  0.00    -0.175 OA 
BRANCH  30  32
HETATM   32  N   UNL     1     -10.042   5.029  70.721  1.00  0.00    -0.229 N  
HETATM   33  H   UNL     1     -10.855   4.527  70.364  1.00  0.00     0.000 HD 
BRANCH  32  34
HETATM   34  C   UNL     1      -9.046   5.533  69.782  1.00  0.00    -0.132 C  
HETATM   35  C   UNL     1      -8.337   4.387  69.050  1.00  0.00    -0.087 C  
HETATM   36  C   UNL     1      -9.289   3.632  68.124  1.00  0.00    -0.236 C  
HETATM   37  C   UNL     1     -10.001   4.565  67.148  1.00  0.00    -0.201 C  
HETATM   38  C   UNL     1     -10.654   5.766  67.831  1.00  0.00    -0.304 C  
HETATM   39  C   UNL     1      -9.690   6.488  68.772  1.00  0.00    -0.131 C  
ENDBRANCH  32  34
ENDBRANCH  30  32
ENDBRANCH  28  30
ENDBRANCH  25  28
ENDBRANCH  22  25
ENDBRANCH  18  19
ENDBRANCH  17  18
ENDBRANCH  14  17
ENDBRANCH   2   3
TORSDOF 9
ENDMDL
MODEL       71
REMARK 921   NORMALIZED FREE ENERGY PREDICTED BY IDOCK:   -5.69 KCAL/MOL
REMARK 922        TOTAL FREE ENERGY PREDICTED BY IDOCK:  -10.83 KCAL/MOL
REMARK 923 INTER-LIGAND FREE ENERGY PREDICTED BY IDOCK:   -8.81 KCAL/MOL
REMARK 924 INTRA-LIGAND FREE ENERGY PREDICTED BY IDOCK:   -2.02 KCAL/MOL
REMARK 927      BINDING AFFINITY PREDICTED BY RF-SCORE:    0.00 PKD
ROOT
HETATM    1  C   UNL     1      -8.172  19.880  66.223  1.00  0.00    -0.329 C  
HETATM    2  O   UNL     1      -9.434  19.360  65.812  1.00  0.00    -0.391 OA 
ENDROOT
BRANCH   2   3
HETATM    3  C   UNL     1      -9.719  18.099  66.254  1.00  0.00    -0.276 A  
HETATM    4  C   UNL     1     -10.553  17.198  65.602  1.00  0.00    -0.187 A  
HETATM    5  C   UNL     1     -10.738  15.911  66.125  1.00  0.00    -0.273 A  
HETATM    6  C   UNL     1     -10.138  15.520  67.333  1.00  0.00    -0.246 A  
HETATM    7  C   UNL     1      -9.268  16.427  67.957  1.00  0.00    -0.204 A  
HETATM    8  C   UNL     1     -10.388  14.125  67.895  1.00  0.00    -0.234 C  
HETATM    9  C   UNL     1     -11.538  13.422  67.158  1.00  0.00    -0.358 C  
HETATM   10  C   UNL     1      -9.148  13.238  67.646  1.00  0.00    -0.204 C  
HETATM   11  C   UNL     1     -10.698  14.153  69.402  1.00  0.00    -0.119 C  
HETATM   12  C   UNL     1      -9.052  17.696  67.411  1.00  0.00    -0.239 A  
HETATM   13  O   UNL     1     -12.311  12.632  67.696  1.00  0.00    -0.279 OA 
HETATM   14  N   UNL     1     -11.513  13.638  65.793  1.00  0.00    -0.310 N  
HETATM   15  O   UNL     1     -11.922  15.247  64.200  1.00  0.00    -0.485 OA 
HETATM   16  C   UNL     1     -11.456  14.918  65.286  1.00  0.00    -0.336 C  
BRANCH  14  17
HETATM   17  C   UNL     1     -11.797  12.530  64.910  1.00  0.00    -0.386 C  
BRANCH  17  18
HETATM   18  C   UNL     1     -10.607  11.874  64.211  1.00  0.00    -0.381 C  
BRANCH  18  19
HETATM   19  C   UNL     1      -9.971  10.804  65.083  1.00  0.00    -0.351 A  
HETATM   20  C   UNL     1      -8.644  10.380  64.892  1.00  0.00    -0.190 A  
HETATM   21  C   UNL     1      -8.098   9.355  65.663  1.00  0.00    -0.112 A  
HETATM   22  C   UNL     1      -8.868   8.766  66.661  1.00  0.00    -0.131 A  
HETATM   23  C   UNL     1     -10.721  10.217  66.112  1.00  0.00    -0.042 A  
HETATM   24  C   UNL     1     -10.177   9.192  66.890  1.00  0.00    -0.336 A  
BRANCH  22  25
HETATM   25  S   UNL     1      -8.179   7.431  67.602  1.00  0.00    -0.118 S  
HETATM   26  O   UNL     1      -9.248   6.595  68.106  1.00  0.00    -0.120 OA 
HETATM   27  O   UNL     1      -7.107   6.856  66.815  1.00  0.00    -0.071 OA 
BRANCH  25  28
HETATM   28  N   UNL     1      -7.425   8.203  68.863  1.00  0.00    -0.087 N  
HETATM   29  H   UNL     1      -6.618   8.789  68.648  1.00  0.00     0.000 HD 
BRANCH  28  30
HETATM   30  C   UNL     1      -7.815   8.106  70.184  1.00  0.00    -0.098 C  
HETATM   31  O   UNL     1      -7.043   7.939  71.114  1.00  0.00    -0.051 OA 
BRANCH  30  32
HETATM   32  N   UNL     1      -9.164   8.212  70.328  1.00  0.00    -0.151 N  
HETATM   33  H   UNL     1      -9.759   8.166  69.501  1.00  0.00     0.000 HD 
BRANCH  32  34
HETATM   34  C   UNL     1      -9.779   8.391  71.639  1.00  0.00    -0.219 C  
HETATM   35  C   UNL     1     -10.991   9.328  71.566  1.00  0.00    -0.446 C  
HETATM   36  C   UNL     1     -12.135   8.711  70.762  1.00  0.00    -0.087 C  
HETATM   37  C   UNL     1     -12.525   7.331  71.284  1.00  0.00    -0.402 C  
HETATM   38  C   UNL     1     -11.331   6.391  71.449  1.00  0.00    -0.354 C  
HETATM   39  C   UNL     1     -10.190   7.040  72.232  1.00  0.00    -0.207 C  
ENDBRANCH  32  34
ENDBRANCH  30  32
ENDBRANCH  28  30
ENDBRANCH  25  28
ENDBRANCH  22  25
ENDBRANCH  18  19
ENDBRANCH  17  18
ENDBRANCH  14  17
ENDBRANCH   2   3
TORSDOF 9
ENDMDL
MODEL       72
REMARK 921   NORMALIZED FREE ENERGY PREDICTED BY IDOCK:   -5.69 KCAL/MOL
REMARK 922        TOTAL FREE ENERGY PREDICTED BY IDOCK:  -10.82 KCAL/MOL
REMARK 923 INTER-LIGAND FREE ENERGY PREDICTED BY IDOCK:   -9.42 KCAL/MOL
REMARK 924 INTRA-LIGAND FREE ENERGY PREDICTED BY IDOCK:   -1.41 KCAL/MOL
REMARK 927      BINDING AFFINITY PREDICTED BY RF-SCORE:    0.00 PKD
ROOT
HETATM    1  C   UNL     1     -14.395  15.041  71.907  1.00  0.00    -0.584 C  
HETATM    2  O   UNL     1     -14.194  13.749  72.474  1.00  0.00    -0.706 OA 
ENDROOT
BRANCH   2   3
HETATM    3  C   UNL     1     -13.350  12.930  71.777  1.00  0.00    -0.359 A  
HETATM    4  C   UNL     1     -13.116  11.592  72.074  1.00  0.00    -0.433 A  
HETATM    5  C   UNL     1     -12.263  10.833  71.261  1.00  0.00    -0.426 A  
HETATM    6  C   UNL     1     -11.588  11.410  70.173  1.00  0.00    -0.368 A  
HETATM    7  C   UNL     1     -11.866  12.750  69.863  1.00  0.00    -0.371 A  
HETATM    8  C   UNL     1     -10.637  10.568  69.329  1.00  0.00    -0.265 C  
HETATM    9  C   UNL     1     -10.336   9.220  70.002  1.00  0.00    -0.217 C  
HETATM   10  C   UNL     1     -11.318  10.206  67.990  1.00  0.00    -0.152 C  
HETATM   11  C   UNL     1      -9.312  11.297  69.045  1.00  0.00    -0.016 C  
HETATM   12  C   UNL     1     -12.750  13.494  70.651  1.00  0.00    -0.275 A  
HETATM   13  O   UNL     1      -9.259   8.635  69.905  1.00  0.00    -0.150 OA 
HETATM   14  N   UNL     1     -11.451   8.651  70.589  1.00  0.00    -0.258 N  
HETATM   15  O   UNL     1     -12.858   8.858  72.396  1.00  0.00    -0.392 OA 
HETATM   16  C   UNL     1     -12.215   9.366  71.484  1.00  0.00    -0.369 C  
BRANCH  14  17
HETATM   17  C   UNL     1     -11.660   7.228  70.444  1.00  0.00    -0.219 C  
BRANCH  17  18
HETATM   18  C   UNL     1     -10.414   6.346  70.366  1.00  0.00    -0.269 C  
BRANCH  18  19
HETATM   19  C   UNL     1     -10.227   5.773  68.971  1.00  0.00    -0.282 A  
HETATM   20  C   UNL     1     -11.006   6.198  67.881  1.00  0.00    -0.399 A  
HETATM   21  C   UNL     1     -10.861   5.617  66.622  1.00  0.00    -0.280 A  
HETATM   22  C   UNL     1      -9.906   4.624  66.434  1.00  0.00    -0.225 A  
HETATM   23  C   UNL     1      -9.251   4.789  68.754  1.00  0.00    -0.170 A  
HETATM   24  C   UNL     1      -9.099   4.206  67.493  1.00  0.00    -0.161 A  
BRANCH  22  25
HETATM   25  S   UNL     1      -9.764   3.859  64.841  1.00  0.00    -0.194 S  
HETATM   26  O   UNL     1      -8.908   2.696  64.940  1.00  0.00    -0.110 OA 
HETATM   27  O   UNL     1     -11.102   3.741  64.298  1.00  0.00    -0.322 OA 
BRANCH  25  28
HETATM   28  N   UNL     1      -9.024   5.027  63.921  1.00  0.00    -0.331 N  
HETATM   29  H   UNL     1      -9.526   5.378  63.106  1.00  0.00     0.000 HD 
BRANCH  28  30
HETATM   30  C   UNL     1      -7.776   5.555  64.186  1.00  0.00    -0.089 C  
HETATM   31  O   UNL     1      -6.778   4.883  64.385  1.00  0.00    -0.042 OA 
BRANCH  30  32
HETATM   32  N   UNL     1      -7.791   6.916  64.206  1.00  0.00    -0.109 N  
HETATM   33  H   UNL     1      -8.108   7.424  63.380  1.00  0.00     0.000 HD 
BRANCH  32  34
HETATM   34  C   UNL     1      -7.363   7.666  65.382  1.00  0.00    -0.071 C  
HETATM   35  C   UNL     1      -6.404   8.801  65.004  1.00  0.00    -0.064 C  
HETATM   36  C   UNL     1      -7.103   9.881  64.180  1.00  0.00    -0.128 C  
HETATM   37  C   UNL     1      -8.355  10.412  64.872  1.00  0.00    -0.165 C  
HETATM   38  C   UNL     1      -9.300   9.306  65.339  1.00  0.00    -0.292 C  
HETATM   39  C   UNL     1      -8.572   8.224  66.137  1.00  0.00    -0.156 C  
ENDBRANCH  32  34
ENDBRANCH  30  32
ENDBRANCH  28  30
ENDBRANCH  25  28
ENDBRANCH  22  25
ENDBRANCH  18  19
ENDBRANCH  17  18
ENDBRANCH  14  17
ENDBRANCH   2   3
TORSDOF 9
ENDMDL
MODEL       73
REMARK 921   NORMALIZED FREE ENERGY PREDICTED BY IDOCK:   -5.68 KCAL/MOL
REMARK 922        TOTAL FREE ENERGY PREDICTED BY IDOCK:  -10.82 KCAL/MOL
REMARK 923 INTER-LIGAND FREE ENERGY PREDICTED BY IDOCK:   -9.98 KCAL/MOL
REMARK 924 INTRA-LIGAND FREE ENERGY PREDICTED BY IDOCK:   -0.84 KCAL/MOL
REMARK 927      BINDING AFFINITY PREDICTED BY RF-SCORE:    0.00 PKD
ROOT
HETATM    1  C   UNL     1     -10.444   3.509  74.533  1.00  0.00    -0.183 C  
HETATM    2  O   UNL     1     -11.401   3.948  73.572  1.00  0.00    -0.251 OA 
ENDROOT
BRANCH   2   3
HETATM    3  C   UNL     1     -10.963   4.915  72.710  1.00  0.00    -0.225 A  
HETATM    4  C   UNL     1     -11.727   5.985  72.262  1.00  0.00    -0.338 A  
HETATM    5  C   UNL     1     -11.159   6.945  71.412  1.00  0.00    -0.284 A  
HETATM    6  C   UNL     1      -9.837   6.822  70.954  1.00  0.00    -0.197 A  
HETATM    7  C   UNL     1      -9.067   5.758  71.448  1.00  0.00    -0.150 A  
HETATM    8  C   UNL     1      -9.258   7.862  70.001  1.00  0.00    -0.153 C  
HETATM    9  C   UNL     1     -10.355   8.780  69.441  1.00  0.00    -0.214 C  
HETATM   10  C   UNL     1      -8.305   8.799  70.777  1.00  0.00    -0.185 C  
HETATM   11  C   UNL     1      -8.495   7.217  68.831  1.00  0.00    -0.126 C  
HETATM   12  C   UNL     1      -9.624   4.825  72.329  1.00  0.00    -0.195 A  
HETATM   13  O   UNL     1     -10.327   9.267  68.313  1.00  0.00    -0.200 OA 
HETATM   14  N   UNL     1     -11.293   9.139  70.392  1.00  0.00    -0.248 N  
HETATM   15  O   UNL     1     -13.069   8.310  71.595  1.00  0.00    -0.329 OA 
HETATM   16  C   UNL     1     -11.939   8.178  71.138  1.00  0.00    -0.273 C  
BRANCH  14  17
HETATM   17  C   UNL     1     -11.765  10.505  70.419  1.00  0.00    -0.344 C  
BRANCH  17  18
HETATM   18  C   UNL     1     -12.030  11.176  69.072  1.00  0.00    -0.389 C  
BRANCH  18  19
HETATM   19  C   UNL     1     -11.415  12.565  69.014  1.00  0.00    -0.355 A  
HETATM   20  C   UNL     1     -11.918  13.634  69.776  1.00  0.00    -0.404 A  
HETATM   21  C   UNL     1     -11.379  14.915  69.664  1.00  0.00    -0.311 A  
HETATM   22  C   UNL     1     -10.304  15.131  68.809  1.00  0.00    -0.236 A  
HETATM   23  C   UNL     1     -10.313  12.798  68.179  1.00  0.00    -0.243 A  
HETATM   24  C   UNL     1      -9.767  14.080  68.065  1.00  0.00    -0.221 A  
BRANCH  22  25
HETATM   25  S   UNL     1      -9.659  16.773  68.639  1.00  0.00    -0.262 S  
HETATM   26  O   UNL     1     -10.473  17.692  69.406  1.00  0.00    -0.242 OA 
HETATM   27  O   UNL     1      -8.229  16.701  68.860  1.00  0.00    -0.235 OA 
BRANCH  25  28
HETATM   28  N   UNL     1      -9.832  17.086  67.018  1.00  0.00    -0.261 N  
HETATM   29  H   UNL     1      -9.934  16.290  66.388  1.00  0.00     0.000 HD 
BRANCH  28  30
HETATM   30  C   UNL     1      -9.847  18.351  66.463  1.00  0.00    -0.359 C  
HETATM   31  O   UNL     1     -10.538  18.670  65.509  1.00  0.00    -0.608 OA 
BRANCH  30  32
HETATM   32  N   UNL     1      -8.996  19.199  67.102  1.00  0.00    -0.283 N  
HETATM   33  H   UNL     1      -9.048  19.287  68.116  1.00  0.00     0.000 HD 
BRANCH  32  34
HETATM   34  C   UNL     1      -8.011  19.987  66.368  1.00  0.00    -0.297 C  
HETATM   35  C   UNL     1      -7.273  20.962  67.293  1.00  0.00    -0.408 C  
HETATM   36  C   UNL     1      -6.397  20.228  68.306  1.00  0.00    -0.333 C  
HETATM   37  C   UNL     1      -5.433  19.254  67.633  1.00  0.00    -0.171 C  
HETATM   38  C   UNL     1      -6.119  18.317  66.640  1.00  0.00    -0.189 C  
HETATM   39  C   UNL     1      -7.011  19.072  65.656  1.00  0.00    -0.281 C  
ENDBRANCH  32  34
ENDBRANCH  30  32
ENDBRANCH  28  30
ENDBRANCH  25  28
ENDBRANCH  22  25
ENDBRANCH  18  19
ENDBRANCH  17  18
ENDBRANCH  14  17
ENDBRANCH   2   3
TORSDOF 9
ENDMDL
MODEL       74
REMARK 921   NORMALIZED FREE ENERGY PREDICTED BY IDOCK:   -5.66 KCAL/MOL
REMARK 922        TOTAL FREE ENERGY PREDICTED BY IDOCK:  -10.79 KCAL/MOL
REMARK 923 INTER-LIGAND FREE ENERGY PREDICTED BY IDOCK:   -8.54 KCAL/MOL
REMARK 924 INTRA-LIGAND FREE ENERGY PREDICTED BY IDOCK:   -2.25 KCAL/MOL
REMARK 927      BINDING AFFINITY PREDICTED BY RF-SCORE:    0.00 PKD
ROOT
HETATM    1  C   UNL     1      -7.551  20.453  66.707  1.00  0.00    -0.272 C  
HETATM    2  O   UNL     1      -8.971  20.340  66.667  1.00  0.00    -0.312 OA 
ENDROOT
BRANCH   2   3
HETATM    3  C   UNL     1      -9.467  19.099  66.953  1.00  0.00    -0.320 A  
HETATM    4  C   UNL     1     -10.136  18.283  66.048  1.00  0.00    -0.278 A  
HETATM    5  C   UNL     1     -10.563  17.007  66.439  1.00  0.00    -0.172 A  
HETATM    6  C   UNL     1     -10.377  16.545  67.753  1.00  0.00    -0.291 A  
HETATM    7  C   UNL     1      -9.666  17.365  68.641  1.00  0.00    -0.308 A  
HETATM    8  C   UNL     1     -10.886  15.166  68.158  1.00  0.00    -0.266 C  
HETATM    9  C   UNL     1     -11.816  14.575  67.088  1.00  0.00    -0.387 C  
HETATM   10  C   UNL     1      -9.697  14.183  68.246  1.00  0.00    -0.227 C  
HETATM   11  C   UNL     1     -11.623  15.193  69.508  1.00  0.00    -0.340 C  
HETATM   12  C   UNL     1      -9.204  18.622  68.236  1.00  0.00    -0.350 A  
HETATM   13  O   UNL     1     -12.770  13.843  67.342  1.00  0.00     0.118 OA 
HETATM   14  N   UNL     1     -11.373  14.813  65.800  1.00  0.00    -0.342 N  
HETATM   15  O   UNL     1     -11.172  16.479  64.226  1.00  0.00    -0.992 OA 
HETATM   16  C   UNL     1     -11.073  16.093  65.386  1.00  0.00    -0.122 C  
BRANCH  14  17
HETATM   17  C   UNL     1     -11.466  13.749  64.827  1.00  0.00    -0.356 C  
BRANCH  17  18
HETATM   18  C   UNL     1     -10.170  13.022  64.465  1.00  0.00    -0.331 C  
BRANCH  18  19
HETATM   19  C   UNL     1      -9.974  11.779  65.319  1.00  0.00    -0.284 A  
HETATM   20  C   UNL     1      -8.785  11.032  65.282  1.00  0.00    -0.099 A  
HETATM   21  C   UNL     1      -8.647   9.861  66.026  1.00  0.00    -0.147 A  
HETATM   22  C   UNL     1      -9.692   9.445  66.845  1.00  0.00    -0.186 A  
HETATM   23  C   UNL     1     -11.005  11.358  66.171  1.00  0.00    -0.294 A  
HETATM   24  C   UNL     1     -10.871  10.188  66.923  1.00  0.00    -0.176 A  
BRANCH  22  25
HETATM   25  S   UNL     1      -9.523   7.930  67.750  1.00  0.00    -0.147 S  
HETATM   26  O   UNL     1     -10.820   7.515  68.240  1.00  0.00    -0.120 OA 
HETATM   27  O   UNL     1      -8.723   7.032  66.942  1.00  0.00    -0.117 OA 
BRANCH  25  28
HETATM   28  N   UNL     1      -8.547   8.353  69.024  1.00  0.00    -0.130 N  
HETATM   29  H   UNL     1      -7.693   7.814  69.169  1.00  0.00     0.000 HD 
BRANCH  28  30
HETATM   30  C   UNL     1      -8.813   9.385  69.903  1.00  0.00    -0.199 C  
HETATM   31  O   UNL     1      -9.596   9.304  70.835  1.00  0.00    -0.257 OA 
BRANCH  30  32
HETATM   32  N   UNL     1      -8.103  10.507  69.604  1.00  0.00    -0.352 N  
HETATM   33  H   UNL     1      -8.498  11.421  69.825  1.00  0.00     0.000 HD 
BRANCH  32  34
HETATM   34  C   UNL     1      -6.789  10.433  68.975  1.00  0.00    -0.064 C  
HETATM   35  C   UNL     1      -6.482  11.701  68.168  1.00  0.00    -0.054 C  
HETATM   36  C   UNL     1      -6.330  12.923  69.073  1.00  0.00    -0.100 C  
HETATM   37  C   UNL     1      -5.299  12.696  70.176  1.00  0.00    -0.112 C  
HETATM   38  C   UNL     1      -5.522  11.399  70.951  1.00  0.00    -0.106 C  
HETATM   39  C   UNL     1      -5.700  10.197  70.024  1.00  0.00    -0.049 C  
ENDBRANCH  32  34
ENDBRANCH  30  32
ENDBRANCH  28  30
ENDBRANCH  25  28
ENDBRANCH  22  25
ENDBRANCH  18  19
ENDBRANCH  17  18
ENDBRANCH  14  17
ENDBRANCH   2   3
TORSDOF 9
ENDMDL
MODEL       75
REMARK 921   NORMALIZED FREE ENERGY PREDICTED BY IDOCK:   -5.66 KCAL/MOL
REMARK 922        TOTAL FREE ENERGY PREDICTED BY IDOCK:  -10.79 KCAL/MOL
REMARK 923 INTER-LIGAND FREE ENERGY PREDICTED BY IDOCK:   -8.77 KCAL/MOL
REMARK 924 INTRA-LIGAND FREE ENERGY PREDICTED BY IDOCK:   -2.02 KCAL/MOL
REMARK 927      BINDING AFFINITY PREDICTED BY RF-SCORE:    0.00 PKD
ROOT
HETATM    1  C   UNL     1     -13.378  15.966  73.247  1.00  0.00    -0.564 C  
HETATM    2  O   UNL     1     -14.047  15.384  72.131  1.00  0.00    -0.495 OA 
ENDROOT
BRANCH   2   3
HETATM    3  C   UNL     1     -13.315  14.474  71.420  1.00  0.00    -0.357 A  
HETATM    4  C   UNL     1     -13.114  13.150  71.793  1.00  0.00    -0.478 A  
HETATM    5  C   UNL     1     -12.382  12.292  70.962  1.00  0.00    -0.320 A  
HETATM    6  C   UNL     1     -11.794  12.753  69.773  1.00  0.00    -0.380 A  
HETATM    7  C   UNL     1     -12.040  14.081  69.391  1.00  0.00    -0.386 A  
HETATM    8  C   UNL     1     -10.972  11.804  68.908  1.00  0.00    -0.288 C  
HETATM    9  C   UNL     1     -10.667  10.493  69.649  1.00  0.00    -0.259 C  
HETATM   10  C   UNL     1     -11.799  11.385  67.672  1.00  0.00    -0.157 C  
HETATM   11  C   UNL     1      -9.650  12.440  68.443  1.00  0.00    -0.180 C  
HETATM   12  C   UNL     1     -12.806  14.924  70.202  1.00  0.00    -0.195 A  
HETATM   13  O   UNL     1      -9.633   9.847  69.493  1.00  0.00    -0.199 OA 
HETATM   14  N   UNL     1     -11.742  10.027  70.381  1.00  0.00    -0.279 N  
HETATM   15  O   UNL     1     -12.951  10.436  72.296  1.00  0.00    -0.382 OA 
HETATM   16  C   UNL     1     -12.380  10.843  71.290  1.00  0.00    -0.343 C  
BRANCH  14  17
HETATM   17  C   UNL     1     -12.030   8.611  70.366  1.00  0.00     0.157 C  
BRANCH  17  18
HETATM   18  C   UNL     1     -11.012   7.687  71.034  1.00  0.00    -0.262 C  
BRANCH  18  19
HETATM   19  C   UNL     1     -10.418   6.703  70.039  1.00  0.00    -0.250 A  
HETATM   20  C   UNL     1     -11.089   6.345  68.857  1.00  0.00    -0.420 A  
HETATM   21  C   UNL     1     -10.555   5.395  67.986  1.00  0.00    -0.157 A  
HETATM   22  C   UNL     1      -9.323   4.820  68.275  1.00  0.00    -0.135 A  
HETATM   23  C   UNL     1      -9.164   6.132  70.298  1.00  0.00    -0.165 A  
HETATM   24  C   UNL     1      -8.623   5.183  69.427  1.00  0.00    -0.102 A  
BRANCH  22  25
HETATM   25  S   UNL     1      -8.678   3.579  67.185  1.00  0.00    -0.129 S  
HETATM   26  O   UNL     1      -7.240   3.503  67.340  1.00  0.00    -0.058 OA 
HETATM   27  O   UNL     1      -9.496   2.395  67.347  1.00  0.00    -0.130 OA 
BRANCH  25  28
HETATM   28  N   UNL     1      -9.053   4.163  65.678  1.00  0.00    -0.129 N  
HETATM   29  H   UNL     1      -9.935   3.868  65.259  1.00  0.00     0.000 HD 
BRANCH  28  30
HETATM   30  C   UNL     1      -8.252   5.022  64.951  1.00  0.00    -0.132 C  
HETATM   31  O   UNL     1      -7.247   4.676  64.351  1.00  0.00    -0.053 OA 
BRANCH  30  32
HETATM   32  N   UNL     1      -8.711   6.303  64.987  1.00  0.00    -0.354 N  
HETATM   33  H   UNL     1      -9.634   6.513  64.607  1.00  0.00     0.000 HD 
BRANCH  32  34
HETATM   34  C   UNL     1      -7.913   7.383  65.557  1.00  0.00    -0.122 C  
HETATM   35  C   UNL     1      -7.507   8.404  64.487  1.00  0.00    -0.099 C  
HETATM   36  C   UNL     1      -8.716   9.160  63.940  1.00  0.00    -0.154 C  
HETATM   37  C   UNL     1      -9.538   9.809  65.050  1.00  0.00    -0.333 C  
HETATM   38  C   UNL     1      -9.895   8.842  66.178  1.00  0.00    -0.326 C  
HETATM   39  C   UNL     1      -8.674   8.077  66.689  1.00  0.00    -0.153 C  
ENDBRANCH  32  34
ENDBRANCH  30  32
ENDBRANCH  28  30
ENDBRANCH  25  28
ENDBRANCH  22  25
ENDBRANCH  18  19
ENDBRANCH  17  18
ENDBRANCH  14  17
ENDBRANCH   2   3
TORSDOF 9
ENDMDL
MODEL       76
REMARK 921   NORMALIZED FREE ENERGY PREDICTED BY IDOCK:   -5.66 KCAL/MOL
REMARK 922        TOTAL FREE ENERGY PREDICTED BY IDOCK:  -10.79 KCAL/MOL
REMARK 923 INTER-LIGAND FREE ENERGY PREDICTED BY IDOCK:   -8.44 KCAL/MOL
REMARK 924 INTRA-LIGAND FREE ENERGY PREDICTED BY IDOCK:   -2.34 KCAL/MOL
REMARK 927      BINDING AFFINITY PREDICTED BY RF-SCORE:    0.00 PKD
ROOT
HETATM    1  C   UNL     1     -12.392  16.156  74.100  1.00  0.00    -0.558 C  
HETATM    2  O   UNL     1     -13.327  16.006  73.035  1.00  0.00    -0.532 OA 
ENDROOT
BRANCH   2   3
HETATM    3  C   UNL     1     -12.988  15.086  72.083  1.00  0.00    -0.342 A  
HETATM    4  C   UNL     1     -12.647  15.389  70.770  1.00  0.00    -0.497 A  
HETATM    5  C   UNL     1     -12.271  14.365  69.890  1.00  0.00    -0.394 A  
HETATM    6  C   UNL     1     -12.281  13.018  70.289  1.00  0.00    -0.368 A  
HETATM    7  C   UNL     1     -12.589  12.734  71.628  1.00  0.00    -0.195 A  
HETATM    8  C   UNL     1     -11.902  11.924  69.298  1.00  0.00    -0.379 C  
HETATM    9  C   UNL     1     -11.832  12.467  67.863  1.00  0.00    -0.323 C  
HETATM   10  C   UNL     1     -10.475  11.419  69.608  1.00  0.00     0.162 C  
HETATM   11  C   UNL     1     -12.881  10.737  69.341  1.00  0.00     0.594 C  
HETATM   12  C   UNL     1     -12.923  13.762  72.516  1.00  0.00    -0.431 A  
HETATM   13  O   UNL     1     -12.125  11.807  66.869  1.00  0.00    -0.566 OA 
HETATM   14  N   UNL     1     -11.247  13.718  67.790  1.00  0.00    -0.278 N  
HETATM   15  O   UNL     1     -11.640  15.936  68.253  1.00  0.00    -0.355 OA 
HETATM   16  C   UNL     1     -11.707  14.754  68.572  1.00  0.00    -0.317 C  
BRANCH  14  17
HETATM   17  C   UNL     1     -10.322  13.989  66.713  1.00  0.00    -0.271 C  
BRANCH  17  18
HETATM   18  C   UNL     1      -8.845  14.124  67.084  1.00  0.00    -0.241 C  
BRANCH  18  19
HETATM   19  C   UNL     1      -8.197  12.764  67.288  1.00  0.00    -0.181 A  
HETATM   20  C   UNL     1      -8.678  11.608  66.649  1.00  0.00    -0.187 A  
HETATM   21  C   UNL     1      -8.108  10.359  66.896  1.00  0.00    -0.118 A  
HETATM   22  C   UNL     1      -7.025  10.262  67.763  1.00  0.00    -0.083 A  
HETATM   23  C   UNL     1      -7.088  12.648  68.137  1.00  0.00    -0.102 A  
HETATM   24  C   UNL     1      -6.511  11.400  68.386  1.00  0.00    -0.050 A  
BRANCH  22  25
HETATM   25  S   UNL     1      -6.341   8.663  68.106  1.00  0.00    -0.053 S  
HETATM   26  O   UNL     1      -5.541   8.230  66.981  1.00  0.00    -0.036 OA 
HETATM   27  O   UNL     1      -5.769   8.715  69.436  1.00  0.00    -0.034 OA 
BRANCH  25  28
HETATM   28  N   UNL     1      -7.683   7.696  68.249  1.00  0.00    -0.117 N  
HETATM   29  H   UNL     1      -8.336   7.669  67.466  1.00  0.00     0.000 HD 
BRANCH  28  30
HETATM   30  C   UNL     1      -7.976   6.925  69.356  1.00  0.00    -0.115 C  
HETATM   31  O   UNL     1      -7.412   5.877  69.627  1.00  0.00    -0.073 OA 
BRANCH  30  32
HETATM   32  N   UNL     1      -8.972   7.467  70.109  1.00  0.00    -0.148 N  
HETATM   33  H   UNL     1      -9.618   8.128  69.679  1.00  0.00     0.000 HD 
BRANCH  32  34
HETATM   34  C   UNL     1      -9.137   7.122  71.517  1.00  0.00    -0.142 C  
HETATM   35  C   UNL     1      -9.639   8.321  72.331  1.00  0.00    -0.364 C  
HETATM   36  C   UNL     1     -11.060   8.718  71.935  1.00  0.00    -0.434 C  
HETATM   37  C   UNL     1     -12.029   7.542  72.014  1.00  0.00    -0.330 C  
HETATM   38  C   UNL     1     -11.527   6.298  71.282  1.00  0.00    -0.352 C  
HETATM   39  C   UNL     1     -10.094   5.938  71.675  1.00  0.00    -0.233 C  
ENDBRANCH  32  34
ENDBRANCH  30  32
ENDBRANCH  28  30
ENDBRANCH  25  28
ENDBRANCH  22  25
ENDBRANCH  18  19
ENDBRANCH  17  18
ENDBRANCH  14  17
ENDBRANCH   2   3
TORSDOF 9
ENDMDL
MODEL       77
REMARK 921   NORMALIZED FREE ENERGY PREDICTED BY IDOCK:   -5.66 KCAL/MOL
REMARK 922        TOTAL FREE ENERGY PREDICTED BY IDOCK:  -10.78 KCAL/MOL
REMARK 923 INTER-LIGAND FREE ENERGY PREDICTED BY IDOCK:   -9.17 KCAL/MOL
REMARK 924 INTRA-LIGAND FREE ENERGY PREDICTED BY IDOCK:   -1.61 KCAL/MOL
REMARK 927      BINDING AFFINITY PREDICTED BY RF-SCORE:    0.00 PKD
ROOT
HETATM    1  C   UNL     1      -6.944  19.300  69.191  1.00  0.00    -0.340 C  
HETATM    2  O   UNL     1      -6.501  18.020  68.746  1.00  0.00    -0.210 OA 
ENDROOT
BRANCH   2   3
HETATM    3  C   UNL     1      -7.440  17.271  68.092  1.00  0.00    -0.208 A  
HETATM    4  C   UNL     1      -7.318  15.917  67.807  1.00  0.00    -0.162 A  
HETATM    5  C   UNL     1      -8.366  15.238  67.170  1.00  0.00    -0.244 A  
HETATM    6  C   UNL     1      -9.528  15.911  66.759  1.00  0.00    -0.254 A  
HETATM    7  C   UNL     1      -9.652  17.269  67.090  1.00  0.00    -0.257 A  
HETATM    8  C   UNL     1     -10.636  15.153  66.035  1.00  0.00    -0.329 C  
HETATM    9  C   UNL     1     -10.166  13.757  65.598  1.00  0.00    -0.313 C  
HETATM   10  C   UNL     1     -11.807  14.897  67.009  1.00  0.00    -0.216 C  
HETATM   11  C   UNL     1     -11.155  15.918  64.806  1.00  0.00    -0.397 C  
HETATM   12  C   UNL     1      -8.622  17.934  67.763  1.00  0.00    -0.242 A  
HETATM   13  O   UNL     1     -10.557  13.195  64.577  1.00  0.00    -0.363 OA 
HETATM   14  N   UNL     1      -9.388  13.129  66.553  1.00  0.00    -0.243 N  
HETATM   15  O   UNL     1      -7.294  13.168  67.504  1.00  0.00    -0.141 OA 
HETATM   16  C   UNL     1      -8.284  13.758  67.084  1.00  0.00    -0.108 C  
BRANCH  14  17
HETATM   17  C   UNL     1      -9.599  11.721  66.802  1.00  0.00    -0.200 C  
BRANCH  17  18
HETATM   18  C   UNL     1     -11.033  11.272  67.087  1.00  0.00    -0.348 C  
BRANCH  18  19
HETATM   19  C   UNL     1     -11.132  10.546  68.419  1.00  0.00    -0.335 A  
HETATM   20  C   UNL     1     -10.688   9.222  68.580  1.00  0.00    -0.185 A  
HETATM   21  C   UNL     1     -10.843   8.553  69.793  1.00  0.00    -0.177 A  
HETATM   22  C   UNL     1     -11.416   9.219  70.872  1.00  0.00    -0.303 A  
HETATM   23  C   UNL     1     -11.681  11.208  69.526  1.00  0.00    -0.405 A  
HETATM   24  C   UNL     1     -11.836  10.543  70.746  1.00  0.00    -0.465 A  
BRANCH  22  25
HETATM   25  S   UNL     1     -11.651   8.342  72.394  1.00  0.00    -0.385 S  
HETATM   26  O   UNL     1     -10.442   8.419  73.186  1.00  0.00    -0.058 OA 
HETATM   27  O   UNL     1     -12.919   8.771  72.948  1.00  0.00    -0.314 OA 
BRANCH  25  28
HETATM   28  N   UNL     1     -11.902   6.777  71.899  1.00  0.00    -0.311 N  
HETATM   29  H   UNL     1     -12.624   6.610  71.198  1.00  0.00     0.000 HD 
BRANCH  28  30
HETATM   30  C   UNL     1     -11.199   5.686  72.372  1.00  0.00    -0.280 C  
HETATM   31  O   UNL     1     -11.709   4.749  72.964  1.00  0.00    -0.243 OA 
BRANCH  30  32
HETATM   32  N   UNL     1      -9.868   5.781  72.106  1.00  0.00    -0.156 N  
HETATM   33  H   UNL     1      -9.362   6.621  72.386  1.00  0.00     0.000 HD 
BRANCH  32  34
HETATM   34  C   UNL     1      -9.147   4.708  71.430  1.00  0.00    -0.131 C  
HETATM   35  C   UNL     1      -9.891   4.240  70.173  1.00  0.00    -0.271 C  
HETATM   36  C   UNL     1      -9.922   5.324  69.098  1.00  0.00    -0.275 C  
HETATM   37  C   UNL     1      -8.525   5.841  68.763  1.00  0.00    -0.107 C  
HETATM   38  C   UNL     1      -7.720   6.243  69.998  1.00  0.00    -0.101 C  
HETATM   39  C   UNL     1      -7.727   5.153  71.070  1.00  0.00    -0.095 C  
ENDBRANCH  32  34
ENDBRANCH  30  32
ENDBRANCH  28  30
ENDBRANCH  25  28
ENDBRANCH  22  25
ENDBRANCH  18  19
ENDBRANCH  17  18
ENDBRANCH  14  17
ENDBRANCH   2   3
TORSDOF 9
ENDMDL
MODEL       78
REMARK 921   NORMALIZED FREE ENERGY PREDICTED BY IDOCK:   -5.65 KCAL/MOL
REMARK 922        TOTAL FREE ENERGY PREDICTED BY IDOCK:  -10.77 KCAL/MOL
REMARK 923 INTER-LIGAND FREE ENERGY PREDICTED BY IDOCK:   -8.83 KCAL/MOL
REMARK 924 INTRA-LIGAND FREE ENERGY PREDICTED BY IDOCK:   -1.93 KCAL/MOL
REMARK 927      BINDING AFFINITY PREDICTED BY RF-SCORE:    0.00 PKD
ROOT
HETATM    1  C   UNL     1     -13.934   8.997  72.177  1.00  0.00    -0.435 C  
HETATM    2  O   UNL     1     -12.520   9.164  72.240  1.00  0.00    -0.368 OA 
ENDROOT
BRANCH   2   3
HETATM    3  C   UNL     1     -11.789   8.022  72.066  1.00  0.00    -0.326 A  
HETATM    4  C   UNL     1     -11.723   7.292  70.886  1.00  0.00    -0.348 A  
HETATM    5  C   UNL     1     -10.903   6.159  70.807  1.00  0.00    -0.350 A  
HETATM    6  C   UNL     1     -10.176   5.705  71.920  1.00  0.00    -0.244 A  
HETATM    7  C   UNL     1     -10.222   6.475  73.092  1.00  0.00    -0.231 A  
HETATM    8  C   UNL     1      -9.321   4.448  71.814  1.00  0.00    -0.195 C  
HETATM    9  C   UNL     1      -9.619   3.675  70.520  1.00  0.00    -0.186 C  
HETATM   10  C   UNL     1      -7.831   4.844  71.713  1.00  0.00    -0.107 C  
HETATM   11  C   UNL     1      -9.516   3.509  73.018  1.00  0.00    -0.142 C  
HETATM   12  C   UNL     1     -11.009   7.630  73.154  1.00  0.00    -0.411 A  
HETATM   13  O   UNL     1      -9.562   2.450  70.429  1.00  0.00    -0.123 OA 
HETATM   14  N   UNL     1      -9.793   4.503  69.428  1.00  0.00    -0.205 N  
HETATM   15  O   UNL     1     -11.283   5.984  68.489  1.00  0.00    -0.299 OA 
HETATM   16  C   UNL     1     -10.696   5.543  69.472  1.00  0.00    -0.262 C  
BRANCH  14  17
HETATM   17  C   UNL     1      -9.206   4.118  68.164  1.00  0.00    -0.147 C  
BRANCH  17  18
HETATM   18  C   UNL     1      -7.856   4.740  67.806  1.00  0.00    -0.086 C  
BRANCH  18  19
HETATM   19  C   UNL     1      -8.018   6.163  67.297  1.00  0.00    -0.102 A  
HETATM   20  C   UNL     1      -8.351   6.441  65.960  1.00  0.00    -0.132 A  
HETATM   21  C   UNL     1      -8.435   7.753  65.497  1.00  0.00    -0.146 A  
HETATM   22  C   UNL     1      -8.221   8.805  66.381  1.00  0.00    -0.111 A  
HETATM   23  C   UNL     1      -7.832   7.237  68.179  1.00  0.00    -0.118 A  
HETATM   24  C   UNL     1      -7.920   8.555  67.721  1.00  0.00    -0.107 A  
BRANCH  22  25
HETATM   25  S   UNL     1      -8.284  10.467  65.770  1.00  0.00    -0.160 S  
HETATM   26  O   UNL     1      -7.247  11.253  66.404  1.00  0.00    -0.126 OA 
HETATM   27  O   UNL     1      -8.368  10.393  64.326  1.00  0.00    -0.165 OA 
BRANCH  25  28
HETATM   28  N   UNL     1      -9.777  11.000  66.264  1.00  0.00    -0.200 N  
HETATM   29  H   UNL     1     -10.595  10.652  65.765  1.00  0.00     0.000 HD 
BRANCH  28  30
HETATM   30  C   UNL     1      -9.986  11.881  67.307  1.00  0.00    -0.186 C  
HETATM   31  O   UNL     1     -10.171  11.540  68.464  1.00  0.00    -0.201 OA 
BRANCH  30  32
HETATM   32  N   UNL     1      -9.968  13.177  66.892  1.00  0.00    -0.240 N  
HETATM   33  H   UNL     1      -9.150  13.531  66.397  1.00  0.00     0.000 HD 
BRANCH  32  34
HETATM   34  C   UNL     1     -11.094  14.072  67.139  1.00  0.00    -0.303 C  
HETATM   35  C   UNL     1     -10.861  15.452  66.510  1.00  0.00    -0.298 C  
HETATM   36  C   UNL     1     -10.843  15.381  64.984  1.00  0.00    -0.462 C  
HETATM   37  C   UNL     1     -12.098  14.715  64.426  1.00  0.00    -0.481 C  
HETATM   38  C   UNL     1     -12.411  13.373  65.086  1.00  0.00    -0.509 C  
HETATM   39  C   UNL     1     -12.395  13.463  66.611  1.00  0.00    -0.324 C  
ENDBRANCH  32  34
ENDBRANCH  30  32
ENDBRANCH  28  30
ENDBRANCH  25  28
ENDBRANCH  22  25
ENDBRANCH  18  19
ENDBRANCH  17  18
ENDBRANCH  14  17
ENDBRANCH   2   3
TORSDOF 9
ENDMDL
MODEL       79
REMARK 921   NORMALIZED FREE ENERGY PREDICTED BY IDOCK:   -5.64 KCAL/MOL
REMARK 922        TOTAL FREE ENERGY PREDICTED BY IDOCK:  -10.75 KCAL/MOL
REMARK 923 INTER-LIGAND FREE ENERGY PREDICTED BY IDOCK:   -8.88 KCAL/MOL
REMARK 924 INTRA-LIGAND FREE ENERGY PREDICTED BY IDOCK:   -1.87 KCAL/MOL
REMARK 927      BINDING AFFINITY PREDICTED BY RF-SCORE:    0.00 PKD
ROOT
HETATM    1  C   UNL     1     -11.744  16.023  64.207  1.00  0.00    -0.081 C  
HETATM    2  O   UNL     1     -12.381  14.754  64.084  1.00  0.00    -0.669 OA 
ENDROOT
BRANCH   2   3
HETATM    3  C   UNL     1     -12.000  13.816  65.002  1.00  0.00    -0.383 A  
HETATM    4  C   UNL     1     -11.397  12.602  64.695  1.00  0.00    -0.360 A  
HETATM    5  C   UNL     1     -11.006  11.734  65.724  1.00  0.00    -0.353 A  
HETATM    6  C   UNL     1     -11.257  12.039  67.071  1.00  0.00    -0.377 A  
HETATM    7  C   UNL     1     -11.829  13.286  67.366  1.00  0.00    -0.413 A  
HETATM    8  C   UNL     1     -10.852  11.058  68.166  1.00  0.00    -0.274 C  
HETATM    9  C   UNL     1     -10.462   9.693  67.579  1.00  0.00    -0.262 C  
HETATM   10  C   UNL     1      -9.578  11.571  68.873  1.00  0.00    -0.045 C  
HETATM   11  C   UNL     1     -11.966  10.859  69.208  1.00  0.00    -0.382 C  
HETATM   12  C   UNL     1     -12.181  14.168  66.340  1.00  0.00    -0.473 A  
HETATM   13  O   UNL     1     -10.657   8.623  68.152  1.00  0.00    -0.204 OA 
HETATM   14  N   UNL     1      -9.720   9.800  66.417  1.00  0.00    -0.200 N  
HETATM   15  O   UNL     1      -9.902  10.332  64.187  1.00  0.00    -0.317 OA 
HETATM   16  C   UNL     1     -10.174  10.559  65.361  1.00  0.00    -0.270 C  
BRANCH  14  17
HETATM   17  C   UNL     1      -8.592   8.915  66.231  1.00  0.00    -0.133 C  
BRANCH  17  18
HETATM   18  C   UNL     1      -8.893   7.502  65.731  1.00  0.00    -0.122 C  
BRANCH  18  19
HETATM   19  C   UNL     1      -8.744   6.476  66.843  1.00  0.00    -0.115 A  
HETATM   20  C   UNL     1      -9.617   5.381  66.967  1.00  0.00    -0.147 A  
HETATM   21  C   UNL     1      -9.502   4.485  68.029  1.00  0.00    -0.197 A  
HETATM   22  C   UNL     1      -8.485   4.659  68.962  1.00  0.00    -0.080 A  
HETATM   23  C   UNL     1      -7.710   6.618  67.779  1.00  0.00    -0.107 A  
HETATM   24  C   UNL     1      -7.587   5.721  68.844  1.00  0.00    -0.089 A  
BRANCH  22  25
HETATM   25  S   UNL     1      -8.379   3.541  70.334  1.00  0.00    -0.057 S  
HETATM   26  O   UNL     1      -8.129   2.202  69.845  1.00  0.00    -0.042 OA 
HETATM   27  O   UNL     1      -7.495   4.141  71.312  1.00  0.00    -0.052 OA 
BRANCH  25  28
HETATM   28  N   UNL     1      -9.893   3.622  71.010  1.00  0.00    -0.165 N  
HETATM   29  H   UNL     1     -10.678   3.272  70.461  1.00  0.00     0.000 HD 
BRANCH  28  30
HETATM   30  C   UNL     1     -10.161   4.130  72.266  1.00  0.00    -0.178 C  
HETATM   31  O   UNL     1      -9.829   3.587  73.308  1.00  0.00    -0.111 OA 
BRANCH  30  32
HETATM   32  N   UNL     1     -10.846   5.304  72.208  1.00  0.00    -0.224 N  
HETATM   33  H   UNL     1     -11.443   5.572  72.990  1.00  0.00     0.000 HD 
BRANCH  32  34
HETATM   34  C   UNL     1     -10.745   6.189  71.052  1.00  0.00    -0.260 C  
HETATM   35  C   UNL     1     -12.118   6.743  70.650  1.00  0.00    -0.371 C  
HETATM   36  C   UNL     1     -12.683   7.680  71.716  1.00  0.00    -0.356 C  
HETATM   37  C   UNL     1     -11.708   8.800  72.072  1.00  0.00    -0.442 C  
HETATM   38  C   UNL     1     -10.304   8.294  72.400  1.00  0.00    -0.402 C  
HETATM   39  C   UNL     1      -9.773   7.337  71.333  1.00  0.00    -0.170 C  
ENDBRANCH  32  34
ENDBRANCH  30  32
ENDBRANCH  28  30
ENDBRANCH  25  28
ENDBRANCH  22  25
ENDBRANCH  18  19
ENDBRANCH  17  18
ENDBRANCH  14  17
ENDBRANCH   2   3
TORSDOF 9
ENDMDL
MODEL       80
REMARK 921   NORMALIZED FREE ENERGY PREDICTED BY IDOCK:   -5.63 KCAL/MOL
REMARK 922        TOTAL FREE ENERGY PREDICTED BY IDOCK:  -10.74 KCAL/MOL
REMARK 923 INTER-LIGAND FREE ENERGY PREDICTED BY IDOCK:   -9.58 KCAL/MOL
REMARK 924 INTRA-LIGAND FREE ENERGY PREDICTED BY IDOCK:   -1.16 KCAL/MOL
REMARK 927      BINDING AFFINITY PREDICTED BY RF-SCORE:    0.00 PKD
ROOT
HETATM    1  C   UNL     1      -5.619  20.747  64.609  1.00  0.00    -0.227 C  
HETATM    2  O   UNL     1      -6.933  20.497  65.100  1.00  0.00    -0.259 OA 
ENDROOT
BRANCH   2   3
HETATM    3  C   UNL     1      -7.068  19.372  65.864  1.00  0.00    -0.286 A  
HETATM    4  C   UNL     1      -8.198  18.564  65.898  1.00  0.00     0.054 A  
HETATM    5  C   UNL     1      -8.209  17.406  66.687  1.00  0.00    -0.290 A  
HETATM    6  C   UNL     1      -7.113  17.065  67.497  1.00  0.00    -0.173 A  
HETATM    7  C   UNL     1      -5.966  17.869  67.421  1.00  0.00    -0.161 A  
HETATM    8  C   UNL     1      -7.168  15.819  68.373  1.00  0.00    -0.119 C  
HETATM    9  C   UNL     1      -8.593  15.250  68.449  1.00  0.00    -0.160 C  
HETATM   10  C   UNL     1      -6.322  14.698  67.729  1.00  0.00    -0.170 C  
HETATM   11  C   UNL     1      -6.655  16.087  69.798  1.00  0.00    -0.143 C  
HETATM   12  C   UNL     1      -5.943  19.001  66.600  1.00  0.00    -0.178 A  
HETATM   13  O   UNL     1      -9.050  14.686  69.441  1.00  0.00    -0.026 OA 
HETATM   14  N   UNL     1      -9.253  15.289  67.235  1.00  0.00    -0.194 N  
HETATM   15  O   UNL     1     -10.269  16.737  65.765  1.00  0.00    -0.461 OA 
HETATM   16  C   UNL     1      -9.345  16.465  66.523  1.00  0.00    -0.273 C  
BRANCH  14  17
HETATM   17  C   UNL     1     -10.053  14.150  66.844  1.00  0.00    -0.258 C  
BRANCH  17  18
HETATM   18  C   UNL     1     -11.465  14.060  67.423  1.00  0.00    -0.373 C  
BRANCH  18  19
HETATM   19  C   UNL     1     -11.595  12.894  68.390  1.00  0.00    -0.369 A  
HETATM   20  C   UNL     1     -12.131  13.054  69.680  1.00  0.00    -0.304 A  
HETATM   21  C   UNL     1     -12.185  11.985  70.574  1.00  0.00    -0.414 A  
HETATM   22  C   UNL     1     -11.733  10.734  70.171  1.00  0.00    -0.339 A  
HETATM   23  C   UNL     1     -11.170  11.619  67.994  1.00  0.00    -0.327 A  
HETATM   24  C   UNL     1     -11.225  10.543  68.885  1.00  0.00    -0.323 A  
BRANCH  22  25
HETATM   25  S   UNL     1     -11.763   9.395  71.332  1.00  0.00    -0.404 S  
HETATM   26  O   UNL     1     -10.447   9.230  71.912  1.00  0.00    -0.305 OA 
HETATM   27  O   UNL     1     -12.920   9.587  72.183  1.00  0.00    -0.396 OA 
BRANCH  25  28
HETATM   28  N   UNL     1     -12.132   8.079  70.389  1.00  0.00    -0.446 N  
HETATM   29  H   UNL     1     -13.004   8.103  69.859  1.00  0.00     0.000 HD 
BRANCH  28  30
HETATM   30  C   UNL     1     -11.339   6.955  70.272  1.00  0.00    -0.324 C  
HETATM   31  O   UNL     1     -10.823   6.588  69.229  1.00  0.00    -0.248 OA 
BRANCH  30  32
HETATM   32  N   UNL     1     -11.206   6.297  71.457  1.00  0.00    -0.280 N  
HETATM   33  H   UNL     1     -11.980   6.305  72.121  1.00  0.00     0.000 HD 
BRANCH  32  34
HETATM   34  C   UNL     1      -9.982   5.581  71.798  1.00  0.00    -0.179 C  
HETATM   35  C   UNL     1      -9.300   6.193  73.028  1.00  0.00    -0.139 C  
HETATM   36  C   UNL     1     -10.138   6.003  74.291  1.00  0.00    -0.307 C  
HETATM   37  C   UNL     1     -10.505   4.540  74.523  1.00  0.00    -0.298 C  
HETATM   38  C   UNL     1     -11.114   3.870  73.292  1.00  0.00    -0.279 C  
HETATM   39  C   UNL     1     -10.272   4.097  72.037  1.00  0.00    -0.200 C  
ENDBRANCH  32  34
ENDBRANCH  30  32
ENDBRANCH  28  30
ENDBRANCH  25  28
ENDBRANCH  22  25
ENDBRANCH  18  19
ENDBRANCH  17  18
ENDBRANCH  14  17
ENDBRANCH   2   3
TORSDOF 9
ENDMDL
MODEL       81
REMARK 921   NORMALIZED FREE ENERGY PREDICTED BY IDOCK:   -5.61 KCAL/MOL
REMARK 922        TOTAL FREE ENERGY PREDICTED BY IDOCK:  -10.70 KCAL/MOL
REMARK 923 INTER-LIGAND FREE ENERGY PREDICTED BY IDOCK:   -8.98 KCAL/MOL
REMARK 924 INTRA-LIGAND FREE ENERGY PREDICTED BY IDOCK:   -1.73 KCAL/MOL
REMARK 927      BINDING AFFINITY PREDICTED BY RF-SCORE:    0.00 PKD
ROOT
HETATM    1  C   UNL     1     -14.274   8.476  72.268  1.00  0.00    -0.389 C  
HETATM    2  O   UNL     1     -13.659   7.279  71.799  1.00  0.00    -0.356 OA 
ENDROOT
BRANCH   2   3
HETATM    3  C   UNL     1     -12.320   7.372  71.540  1.00  0.00    -0.353 A  
HETATM    4  C   UNL     1     -11.670   6.754  70.479  1.00  0.00    -0.430 A  
HETATM    5  C   UNL     1     -10.297   6.956  70.283  1.00  0.00    -0.218 A  
HETATM    6  C   UNL     1      -9.541   7.735  71.174  1.00  0.00    -0.174 A  
HETATM    7  C   UNL     1     -10.218   8.384  72.217  1.00  0.00    -0.396 A  
HETATM    8  C   UNL     1      -8.042   7.907  70.956  1.00  0.00    -0.098 C  
HETATM    9  C   UNL     1      -7.513   6.926  69.899  1.00  0.00    -0.094 C  
HETATM   10  C   UNL     1      -7.762   9.312  70.377  1.00  0.00    -0.150 C  
HETATM   11  C   UNL     1      -7.241   7.725  72.257  1.00  0.00    -0.086 C  
HETATM   12  C   UNL     1     -11.596   8.213  72.385  1.00  0.00    -0.463 A  
HETATM   13  O   UNL     1      -6.387   6.435  69.927  1.00  0.00    -0.036 OA 
HETATM   14  N   UNL     1      -8.370   6.781  68.824  1.00  0.00    -0.120 N  
HETATM   15  O   UNL     1     -10.376   5.835  68.214  1.00  0.00    -0.177 OA 
HETATM   16  C   UNL     1      -9.695   6.459  69.021  1.00  0.00    -0.134 C  
BRANCH  14  17
HETATM   17  C   UNL     1      -7.810   6.727  67.492  1.00  0.00    -0.111 C  
BRANCH  17  18
HETATM   18  C   UNL     1      -8.547   7.496  66.396  1.00  0.00    -0.145 C  
BRANCH  18  19
HETATM   19  C   UNL     1      -8.756   8.951  66.783  1.00  0.00    -0.130 A  
HETATM   20  C   UNL     1      -9.949   9.399  67.375  1.00  0.00    -0.252 A  
HETATM   21  C   UNL     1     -10.145  10.748  67.667  1.00  0.00    -0.205 A  
HETATM   22  C   UNL     1      -9.130  11.660  67.399  1.00  0.00    -0.169 A  
HETATM   23  C   UNL     1      -7.734   9.882  66.546  1.00  0.00    -0.107 A  
HETATM   24  C   UNL     1      -7.924  11.235  66.841  1.00  0.00    -0.155 A  
BRANCH  22  25
HETATM   25  S   UNL     1      -9.410  13.379  67.731  1.00  0.00    -0.221 S  
HETATM   26  O   UNL     1      -8.495  13.826  68.760  1.00  0.00    -0.097 OA 
HETATM   27  O   UNL     1      -9.467  14.061  66.454  1.00  0.00    -0.282 OA 
BRANCH  25  28
HETATM   28  N   UNL     1     -10.966  13.408  68.308  1.00  0.00    -0.249 N  
HETATM   29  H   UNL     1     -11.329  12.558  68.740  1.00  0.00     0.000 HD 
BRANCH  28  30
HETATM   30  C   UNL     1     -11.802  14.505  68.245  1.00  0.00    -0.312 C  
HETATM   31  O   UNL     1     -12.274  14.945  67.209  1.00  0.00    -0.149 OA 
BRANCH  30  32
HETATM   32  N   UNL     1     -12.034  15.044  69.473  1.00  0.00    -0.367 N  
HETATM   33  H   UNL     1     -12.644  15.857  69.553  1.00  0.00     0.000 HD 
BRANCH  32  34
HETATM   34  C   UNL     1     -11.430  14.484  70.677  1.00  0.00    -0.163 C  
HETATM   35  C   UNL     1     -11.173  15.569  71.730  1.00  0.00    -0.376 C  
HETATM   36  C   UNL     1     -12.477  16.150  72.273  1.00  0.00    -0.484 C  
HETATM   37  C   UNL     1     -13.414  15.067  72.801  1.00  0.00    -0.574 C  
HETATM   38  C   UNL     1     -13.631  13.924  71.810  1.00  0.00    -0.466 C  
HETATM   39  C   UNL     1     -12.314  13.379  71.261  1.00  0.00    -0.286 C  
ENDBRANCH  32  34
ENDBRANCH  30  32
ENDBRANCH  28  30
ENDBRANCH  25  28
ENDBRANCH  22  25
ENDBRANCH  18  19
ENDBRANCH  17  18
ENDBRANCH  14  17
ENDBRANCH   2   3
TORSDOF 9
ENDMDL
MODEL       82
REMARK 921   NORMALIZED FREE ENERGY PREDICTED BY IDOCK:   -5.61 KCAL/MOL
REMARK 922        TOTAL FREE ENERGY PREDICTED BY IDOCK:  -10.70 KCAL/MOL
REMARK 923 INTER-LIGAND FREE ENERGY PREDICTED BY IDOCK:   -8.39 KCAL/MOL
REMARK 924 INTRA-LIGAND FREE ENERGY PREDICTED BY IDOCK:   -2.32 KCAL/MOL
REMARK 927      BINDING AFFINITY PREDICTED BY RF-SCORE:    0.00 PKD
ROOT
HETATM    1  C   UNL     1      -9.637  19.414  66.446  1.00  0.00    -0.377 C  
HETATM    2  O   UNL     1      -8.658  18.590  65.819  1.00  0.00    -0.442 OA 
ENDROOT
BRANCH   2   3
HETATM    3  C   UNL     1      -8.573  17.313  66.299  1.00  0.00    -0.229 A  
HETATM    4  C   UNL     1      -9.619  16.398  66.311  1.00  0.00    -0.338 A  
HETATM    5  C   UNL     1      -9.406  15.097  66.788  1.00  0.00    -0.268 A  
HETATM    6  C   UNL     1      -8.161  14.705  67.308  1.00  0.00    -0.235 A  
HETATM    7  C   UNL     1      -7.106  15.628  67.251  1.00  0.00    -0.242 A  
HETATM    8  C   UNL     1      -7.970  13.294  67.853  1.00  0.00    -0.159 C  
HETATM    9  C   UNL     1      -9.315  12.568  68.011  1.00  0.00    -0.205 C  
HETATM   10  C   UNL     1      -7.174  12.451  66.832  1.00  0.00     0.087 C  
HETATM   11  C   UNL     1      -7.232  13.288  69.203  1.00  0.00     0.059 C  
HETATM   12  C   UNL     1      -7.311  16.913  66.737  1.00  0.00    -0.272 A  
HETATM   13  O   UNL     1      -9.545  11.746  68.895  1.00  0.00    -0.101 OA 
HETATM   14  N   UNL     1     -10.181  12.807  66.961  1.00  0.00    -0.240 N  
HETATM   15  O   UNL     1     -11.545  14.428  66.064  1.00  0.00    -0.350 OA 
HETATM   16  C   UNL     1     -10.482  14.096  66.579  1.00  0.00    -0.280 C  
BRANCH  14  17
HETATM   17  C   UNL     1     -10.955  11.705  66.436  1.00  0.00    -0.295 C  
BRANCH  17  18
HETATM   18  C   UNL     1     -10.263  10.788  65.428  1.00  0.00    -0.341 C  
BRANCH  18  19
HETATM   19  C   UNL     1      -9.995   9.414  66.021  1.00  0.00    -0.352 A  
HETATM   20  C   UNL     1     -10.805   8.870  67.034  1.00  0.00    -0.039 A  
HETATM   21  C   UNL     1     -10.507   7.635  67.607  1.00  0.00    -0.313 A  
HETATM   22  C   UNL     1      -9.412   6.913  67.146  1.00  0.00    -0.140 A  
HETATM   23  C   UNL     1      -8.912   8.658  65.551  1.00  0.00    -0.209 A  
HETATM   24  C   UNL     1      -8.611   7.418  66.120  1.00  0.00    -0.154 A  
BRANCH  22  25
HETATM   25  S   UNL     1      -9.016   5.366  67.916  1.00  0.00    -0.108 S  
HETATM   26  O   UNL     1      -9.090   4.306  66.933  1.00  0.00    -0.120 OA 
HETATM   27  O   UNL     1      -7.808   5.566  68.689  1.00  0.00    -0.089 OA 
BRANCH  25  28
HETATM   28  N   UNL     1     -10.224   5.179  69.039  1.00  0.00    -0.195 N  
HETATM   29  H   UNL     1     -11.188   5.182  68.705  1.00  0.00     0.000 HD 
BRANCH  28  30
HETATM   30  C   UNL     1     -10.013   5.019  70.394  1.00  0.00    -0.247 C  
HETATM   31  O   UNL     1      -9.990   3.937  70.959  1.00  0.00    -0.173 OA 
BRANCH  30  32
HETATM   32  N   UNL     1      -9.840   6.210  71.029  1.00  0.00    -0.180 N  
HETATM   33  H   UNL     1      -9.119   6.851  70.698  1.00  0.00     0.000 HD 
BRANCH  32  34
HETATM   34  C   UNL     1     -10.662   6.590  72.173  1.00  0.00    -0.221 C  
HETATM   35  C   UNL     1     -10.135   7.867  72.840  1.00  0.00    -0.376 C  
HETATM   36  C   UNL     1     -10.282   9.084  71.928  1.00  0.00    -0.342 C  
HETATM   37  C   UNL     1     -11.714   9.261  71.432  1.00  0.00    -0.431 C  
HETATM   38  C   UNL     1     -12.305   7.985  70.832  1.00  0.00    -0.073 C  
HETATM   39  C   UNL     1     -12.121   6.778  71.751  1.00  0.00    -0.393 C  
ENDBRANCH  32  34
ENDBRANCH  30  32
ENDBRANCH  28  30
ENDBRANCH  25  28
ENDBRANCH  22  25
ENDBRANCH  18  19
ENDBRANCH  17  18
ENDBRANCH  14  17
ENDBRANCH   2   3
TORSDOF 9
ENDMDL
MODEL       83
REMARK 921   NORMALIZED FREE ENERGY PREDICTED BY IDOCK:   -5.55 KCAL/MOL
REMARK 922        TOTAL FREE ENERGY PREDICTED BY IDOCK:  -10.61 KCAL/MOL
REMARK 923 INTER-LIGAND FREE ENERGY PREDICTED BY IDOCK:   -8.22 KCAL/MOL
REMARK 924 INTRA-LIGAND FREE ENERGY PREDICTED BY IDOCK:   -2.39 KCAL/MOL
REMARK 927      BINDING AFFINITY PREDICTED BY RF-SCORE:    0.00 PKD
ROOT
HETATM    1  C   UNL     1     -13.747  15.519  72.911  1.00  0.00    -0.512 C  
HETATM    2  O   UNL     1     -12.473  15.968  72.459  1.00  0.00    -0.433 OA 
ENDROOT
BRANCH   2   3
HETATM    3  C   UNL     1     -12.034  15.406  71.293  1.00  0.00    -0.374 A  
HETATM    4  C   UNL     1     -11.027  15.927  70.489  1.00  0.00    -0.346 A  
HETATM    5  C   UNL     1     -10.626  15.240  69.335  1.00  0.00    -0.257 A  
HETATM    6  C   UNL     1     -11.259  14.051  68.936  1.00  0.00    -0.303 A  
HETATM    7  C   UNL     1     -12.246  13.518  69.779  1.00  0.00    -0.330 A  
HETATM    8  C   UNL     1     -10.826  13.346  67.656  1.00  0.00    -0.273 C  
HETATM    9  C   UNL     1      -9.904  14.237  66.810  1.00  0.00    -0.270 C  
HETATM   10  C   UNL     1      -9.973  12.108  68.012  1.00  0.00    -0.203 C  
HETATM   11  C   UNL     1     -12.026  12.906  66.799  1.00  0.00    -0.418 C  
HETATM   12  C   UNL     1     -12.615  14.185  70.952  1.00  0.00    -0.433 A  
HETATM   13  O   UNL     1      -9.877  14.219  65.581  1.00  0.00    -0.316 OA 
HETATM   14  N   UNL     1      -8.990  14.941  67.572  1.00  0.00    -0.179 N  
HETATM   15  O   UNL     1      -8.819  16.718  69.023  1.00  0.00    -0.253 OA 
HETATM   16  C   UNL     1      -9.408  15.715  68.632  1.00  0.00    -0.201 C  
BRANCH  14  17
HETATM   17  C   UNL     1      -7.630  15.054  67.095  1.00  0.00    -0.139 C  
BRANCH  17  18
HETATM   18  C   UNL     1      -6.522  14.578  68.034  1.00  0.00    -0.158 C  
BRANCH  18  19
HETATM   19  C   UNL     1      -6.573  13.071  68.233  1.00  0.00    -0.094 A  
HETATM   20  C   UNL     1      -6.473  12.175  67.156  1.00  0.00    -0.135 A  
HETATM   21  C   UNL     1      -6.583  10.799  67.352  1.00  0.00    -0.071 A  
HETATM   22  C   UNL     1      -6.759  10.304  68.640  1.00  0.00    -0.053 A  
HETATM   23  C   UNL     1      -6.723  12.551  69.527  1.00  0.00     0.019 A  
HETATM   24  C   UNL     1      -6.830  11.173  69.729  1.00  0.00    -0.090 A  
BRANCH  22  25
HETATM   25  S   UNL     1      -6.946   8.556  68.870  1.00  0.00    -0.063 S  
HETATM   26  O   UNL     1      -8.255   8.147  68.409  1.00  0.00    -0.126 OA 
HETATM   27  O   UNL     1      -5.753   7.922  68.346  1.00  0.00    -0.031 OA 
BRANCH  25  28
HETATM   28  N   UNL     1      -6.846   8.375  70.517  1.00  0.00    -0.036 N  
HETATM   29  H   UNL     1      -6.519   9.172  71.064  1.00  0.00     0.000 HD 
BRANCH  28  30
HETATM   30  C   UNL     1      -7.174   7.219  71.197  1.00  0.00    -0.072 C  
HETATM   31  O   UNL     1      -6.401   6.606  71.915  1.00  0.00    -0.044 OA 
BRANCH  30  32
HETATM   32  N   UNL     1      -8.461   6.839  70.968  1.00  0.00    -0.131 N  
HETATM   33  H   UNL     1      -8.747   6.594  70.020  1.00  0.00     0.000 HD 
BRANCH  32  34
HETATM   34  C   UNL     1      -9.440   6.773  72.048  1.00  0.00    -0.141 C  
HETATM   35  C   UNL     1      -9.821   8.174  72.544  1.00  0.00    -0.363 C  
HETATM   36  C   UNL     1     -10.578   8.964  71.479  1.00  0.00    -0.399 C  
HETATM   37  C   UNL     1     -11.795   8.205  70.957  1.00  0.00    -0.279 C  
HETATM   38  C   UNL     1     -11.473   6.775  70.527  1.00  0.00    -0.413 C  
HETATM   39  C   UNL     1     -10.691   6.014  71.597  1.00  0.00    -0.303 C  
ENDBRANCH  32  34
ENDBRANCH  30  32
ENDBRANCH  28  30
ENDBRANCH  25  28
ENDBRANCH  22  25
ENDBRANCH  18  19
ENDBRANCH  17  18
ENDBRANCH  14  17
ENDBRANCH   2   3
TORSDOF 9
ENDMDL
MODEL       84
REMARK 921   NORMALIZED FREE ENERGY PREDICTED BY IDOCK:   -5.55 KCAL/MOL
REMARK 922        TOTAL FREE ENERGY PREDICTED BY IDOCK:  -10.61 KCAL/MOL
REMARK 923 INTER-LIGAND FREE ENERGY PREDICTED BY IDOCK:   -8.11 KCAL/MOL
REMARK 924 INTRA-LIGAND FREE ENERGY PREDICTED BY IDOCK:   -2.50 KCAL/MOL
REMARK 927      BINDING AFFINITY PREDICTED BY RF-SCORE:    0.00 PKD
ROOT
HETATM    1  C   UNL     1     -12.329  12.184  63.065  1.00  0.00    -0.031 C  
HETATM    2  O   UNL     1     -12.050  13.468  63.618  1.00  0.00    -0.524 OA 
ENDROOT
BRANCH   2   3
HETATM    3  C   UNL     1     -11.948  13.509  64.981  1.00  0.00    -0.372 A  
HETATM    4  C   UNL     1     -11.942  12.394  65.811  1.00  0.00    -0.437 A  
HETATM    5  C   UNL     1     -11.787  12.553  67.195  1.00  0.00    -0.386 A  
HETATM    6  C   UNL     1     -11.690  13.827  67.777  1.00  0.00    -0.393 A  
HETATM    7  C   UNL     1     -11.658  14.939  66.922  1.00  0.00    -0.286 A  
HETATM    8  C   UNL     1     -11.559  13.969  69.289  1.00  0.00    -0.356 C  
HETATM    9  C   UNL     1     -11.847  12.639  70.004  1.00  0.00    -0.285 C  
HETATM   10  C   UNL     1     -10.096  14.311  69.651  1.00  0.00     0.329 C  
HETATM   11  C   UNL     1     -12.490  15.056  69.854  1.00  0.00    -0.269 C  
HETATM   12  C   UNL     1     -11.771  14.775  65.537  1.00  0.00    -0.274 A  
HETATM   13  O   UNL     1     -12.370  12.561  71.113  1.00  0.00    -0.309 OA 
HETATM   14  N   UNL     1     -11.306  11.549  69.348  1.00  0.00    -0.271 N  
HETATM   15  O   UNL     1     -11.587  10.225  67.488  1.00  0.00    -0.255 OA 
HETATM   16  C   UNL     1     -11.567  11.333  68.013  1.00  0.00    -0.272 C  
BRANCH  14  17
HETATM   17  C   UNL     1     -10.675  10.511  70.132  1.00  0.00    -0.171 C  
BRANCH  17  18
HETATM   18  C   UNL     1      -9.214  10.191  69.815  1.00  0.00    -0.175 C  
BRANCH  18  19
HETATM   19  C   UNL     1      -8.982   8.692  69.724  1.00  0.00    -0.145 A  
HETATM   20  C   UNL     1      -9.883   7.838  69.065  1.00  0.00    -0.169 A  
HETATM   21  C   UNL     1      -9.684   6.458  69.046  1.00  0.00    -0.145 A  
HETATM   22  C   UNL     1      -8.556   5.922  69.659  1.00  0.00    -0.121 A  
HETATM   23  C   UNL     1      -7.838   8.134  70.312  1.00  0.00    -0.093 A  
HETATM   24  C   UNL     1      -7.631   6.752  70.292  1.00  0.00    -0.096 A  
BRANCH  22  25
HETATM   25  S   UNL     1      -8.339   4.163  69.668  1.00  0.00    -0.057 S  
HETATM   26  O   UNL     1      -8.263   3.680  68.305  1.00  0.00    -0.080 OA 
HETATM   27  O   UNL     1      -7.281   3.863  70.612  1.00  0.00    -0.037 OA 
BRANCH  25  28
HETATM   28  N   UNL     1      -9.730   3.610  70.385  1.00  0.00    -0.179 N  
HETATM   29  H   UNL     1     -10.522   3.391  69.782  1.00  0.00     0.000 HD 
BRANCH  28  30
HETATM   30  C   UNL     1      -9.887   3.425  71.745  1.00  0.00    -0.159 C  
HETATM   31  O   UNL     1     -10.207   2.365  72.258  1.00  0.00    -0.162 OA 
BRANCH  30  32
HETATM   32  N   UNL     1      -9.649   4.566  72.448  1.00  0.00    -0.142 N  
HETATM   33  H   UNL     1      -8.792   5.089  72.273  1.00  0.00     0.000 HD 
BRANCH  32  34
HETATM   34  C   UNL     1     -10.594   5.058  73.445  1.00  0.00    -0.246 C  
HETATM   35  C   UNL     1     -10.066   6.318  74.142  1.00  0.00    -0.327 C  
HETATM   36  C   UNL     1      -9.978   7.501  73.180  1.00  0.00    -0.344 C  
HETATM   37  C   UNL     1     -11.305   7.766  72.473  1.00  0.00    -0.429 C  
HETATM   38  C   UNL     1     -11.906   6.515  71.834  1.00  0.00    -0.381 C  
HETATM   39  C   UNL     1     -11.957   5.338  72.807  1.00  0.00    -0.062 C  
ENDBRANCH  32  34
ENDBRANCH  30  32
ENDBRANCH  28  30
ENDBRANCH  25  28
ENDBRANCH  22  25
ENDBRANCH  18  19
ENDBRANCH  17  18
ENDBRANCH  14  17
ENDBRANCH   2   3
TORSDOF 9
ENDMDL
MODEL       85
REMARK 921   NORMALIZED FREE ENERGY PREDICTED BY IDOCK:   -5.52 KCAL/MOL
REMARK 922        TOTAL FREE ENERGY PREDICTED BY IDOCK:  -10.57 KCAL/MOL
REMARK 923 INTER-LIGAND FREE ENERGY PREDICTED BY IDOCK:   -9.15 KCAL/MOL
REMARK 924 INTRA-LIGAND FREE ENERGY PREDICTED BY IDOCK:   -1.42 KCAL/MOL
REMARK 927      BINDING AFFINITY PREDICTED BY RF-SCORE:    0.00 PKD
ROOT
HETATM    1  C   UNL     1      -7.600  19.901  66.022  1.00  0.00    -0.325 C  
HETATM    2  O   UNL     1      -8.923  19.471  65.709  1.00  0.00    -0.381 OA 
ENDROOT
BRANCH   2   3
HETATM    3  C   UNL     1      -9.341  18.344  66.358  1.00  0.00    -0.283 A  
HETATM    4  C   UNL     1     -10.209  17.397  65.827  1.00  0.00    -0.204 A  
HETATM    5  C   UNL     1     -10.535  16.252  66.567  1.00  0.00    -0.290 A  
HETATM    6  C   UNL     1     -10.044  16.061  67.869  1.00  0.00    -0.241 A  
HETATM    7  C   UNL     1      -9.138  17.006  68.374  1.00  0.00    -0.256 A  
HETATM    8  C   UNL     1     -10.446  14.823  68.664  1.00  0.00    -0.250 C  
HETATM    9  C   UNL     1     -11.606  14.076  67.988  1.00  0.00    -0.337 C  
HETATM   10  C   UNL     1      -9.273  13.817  68.680  1.00  0.00    -0.069 C  
HETATM   11  C   UNL     1     -10.841  15.165  70.111  1.00  0.00    -0.265 C  
HETATM   12  C   UNL     1      -8.782  18.126  67.616  1.00  0.00    -0.249 A  
HETATM   13  O   UNL     1     -12.474  13.464  68.606  1.00  0.00    -0.050 OA 
HETATM   14  N   UNL     1     -11.481  14.021  66.612  1.00  0.00    -0.348 N  
HETATM   15  O   UNL     1     -11.655  15.316  64.719  1.00  0.00    -0.380 OA 
HETATM   16  C   UNL     1     -11.284  15.170  65.879  1.00  0.00    -0.280 C  
BRANCH  14  17
HETATM   17  C   UNL     1     -11.806  12.786  65.935  1.00  0.00    -0.437 C  
BRANCH  17  18
HETATM   18  C   UNL     1     -10.639  11.969  65.380  1.00  0.00    -0.319 C  
BRANCH  18  19
HETATM   19  C   UNL     1     -10.398  10.715  66.204  1.00  0.00    -0.291 A  
HETATM   20  C   UNL     1      -9.907   9.530  65.628  1.00  0.00    -0.343 A  
HETATM   21  C   UNL     1      -9.751   8.372  66.389  1.00  0.00    -0.312 A  
HETATM   22  C   UNL     1     -10.052   8.400  67.746  1.00  0.00    -0.207 A  
HETATM   23  C   UNL     1     -10.670  10.729  67.579  1.00  0.00    -0.312 A  
HETATM   24  C   UNL     1     -10.511   9.573  68.347  1.00  0.00    -0.261 A  
BRANCH  22  25
HETATM   25  S   UNL     1      -9.894   6.908  68.691  1.00  0.00    -0.148 S  
HETATM   26  O   UNL     1     -11.207   6.457  69.102  1.00  0.00    -0.353 OA 
HETATM   27  O   UNL     1      -9.011   6.024  67.958  1.00  0.00    -0.114 OA 
BRANCH  25  28
HETATM   28  N   UNL     1      -9.021   7.389  70.019  1.00  0.00    -0.145 N  
HETATM   29  H   UNL     1      -8.903   8.390  70.175  1.00  0.00     0.000 HD 
BRANCH  28  30
HETATM   30  C   UNL     1      -8.444   6.525  70.929  1.00  0.00    -0.134 C  
HETATM   31  O   UNL     1      -7.241   6.355  71.042  1.00  0.00    -0.075 OA 
BRANCH  30  32
HETATM   32  N   UNL     1      -9.375   5.878  71.682  1.00  0.00    -0.149 N  
HETATM   33  H   UNL     1     -10.295   5.689  71.284  1.00  0.00     0.000 HD 
BRANCH  32  34
HETATM   34  C   UNL     1      -9.087   5.448  73.046  1.00  0.00    -0.128 C  
HETATM   35  C   UNL     1     -10.336   5.526  73.933  1.00  0.00    -0.285 C  
HETATM   36  C   UNL     1     -11.399   4.517  73.502  1.00  0.00    -0.355 C  
HETATM   37  C   UNL     1     -10.848   3.095  73.434  1.00  0.00    -0.307 C  
HETATM   38  C   UNL     1      -9.556   2.989  72.625  1.00  0.00    -0.175 C  
HETATM   39  C   UNL     1      -8.519   4.026  73.056  1.00  0.00    -0.093 C  
ENDBRANCH  32  34
ENDBRANCH  30  32
ENDBRANCH  28  30
ENDBRANCH  25  28
ENDBRANCH  22  25
ENDBRANCH  18  19
ENDBRANCH  17  18
ENDBRANCH  14  17
ENDBRANCH   2   3
TORSDOF 9
ENDMDL
MODEL       86
REMARK 921   NORMALIZED FREE ENERGY PREDICTED BY IDOCK:   -5.52 KCAL/MOL
REMARK 922        TOTAL FREE ENERGY PREDICTED BY IDOCK:  -10.57 KCAL/MOL
REMARK 923 INTER-LIGAND FREE ENERGY PREDICTED BY IDOCK:   -8.06 KCAL/MOL
REMARK 924 INTRA-LIGAND FREE ENERGY PREDICTED BY IDOCK:   -2.51 KCAL/MOL
REMARK 927      BINDING AFFINITY PREDICTED BY RF-SCORE:    0.00 PKD
ROOT
HETATM    1  C   UNL     1     -12.484  14.406  64.537  1.00  0.00    -0.339 C  
HETATM    2  O   UNL     1     -12.025  13.133  64.091  1.00  0.00    -0.388 OA 
ENDROOT
BRANCH   2   3
HETATM    3  C   UNL     1     -11.487  12.332  65.059  1.00  0.00    -0.336 A  
HETATM    4  C   UNL     1     -11.650  12.520  66.427  1.00  0.00    -0.449 A  
HETATM    5  C   UNL     1     -11.089  11.608  67.331  1.00  0.00    -0.337 A  
HETATM    6  C   UNL     1     -10.311  10.526  66.888  1.00  0.00    -0.293 A  
HETATM    7  C   UNL     1     -10.189  10.329  65.504  1.00  0.00    -0.308 A  
HETATM    8  C   UNL     1      -9.682   9.572  67.897  1.00  0.00    -0.171 C  
HETATM    9  C   UNL     1      -9.772  10.129  69.326  1.00  0.00    -0.224 C  
HETATM   10  C   UNL     1     -10.485   8.252  67.929  1.00  0.00    -0.259 C  
HETATM   11  C   UNL     1      -8.211   9.264  67.568  1.00  0.00    -0.114 C  
HETATM   12  C   UNL     1     -10.785  11.217  64.603  1.00  0.00    -0.350 A  
HETATM   13  O   UNL     1      -8.921   9.929  70.190  1.00  0.00    -0.216 OA 
HETATM   14  N   UNL     1     -10.985  10.737  69.590  1.00  0.00    -0.258 N  
HETATM   15  O   UNL     1     -12.205  12.633  69.134  1.00  0.00    -0.191 OA 
HETATM   16  C   UNL     1     -11.472  11.723  68.761  1.00  0.00    -0.291 C  
BRANCH  14  17
HETATM   17  C   UNL     1     -11.612  10.505  70.872  1.00  0.00    -0.292 C  
BRANCH  17  18
HETATM   18  C   UNL     1     -12.620   9.358  70.955  1.00  0.00    -0.291 C  
BRANCH  18  19
HETATM   19  C   UNL     1     -12.006   8.126  71.600  1.00  0.00    -0.340 A  
HETATM   20  C   UNL     1     -11.341   8.187  72.837  1.00  0.00    -0.301 A  
HETATM   21  C   UNL     1     -10.731   7.058  73.383  1.00  0.00    -0.379 A  
HETATM   22  C   UNL     1     -10.813   5.844  72.709  1.00  0.00    -0.252 A  
HETATM   23  C   UNL     1     -12.101   6.887  70.951  1.00  0.00    -0.424 A  
HETATM   24  C   UNL     1     -11.495   5.751  71.495  1.00  0.00    -0.128 A  
BRANCH  22  25
HETATM   25  S   UNL     1      -9.994   4.428  73.390  1.00  0.00    -0.143 S  
HETATM   26  O   UNL     1      -9.174   4.838  74.510  1.00  0.00    -0.109 OA 
HETATM   27  O   UNL     1     -10.991   3.389  73.554  1.00  0.00    -0.207 OA 
BRANCH  25  28
HETATM   28  N   UNL     1      -9.028   3.909  72.144  1.00  0.00    -0.111 N  
HETATM   29  H   UNL     1      -9.474   3.415  71.371  1.00  0.00     0.000 HD 
BRANCH  28  30
HETATM   30  C   UNL     1      -7.662   4.101  72.082  1.00  0.00    -0.080 C  
HETATM   31  O   UNL     1      -6.845   3.195  72.070  1.00  0.00    -0.018 OA 
BRANCH  30  32
HETATM   32  N   UNL     1      -7.332   5.421  72.044  1.00  0.00    -0.087 N  
HETATM   33  H   UNL     1      -7.951   6.076  71.567  1.00  0.00     0.000 HD 
BRANCH  32  34
HETATM   34  C   UNL     1      -6.113   5.920  72.670  1.00  0.00    -0.041 C  
HETATM   35  C   UNL     1      -5.144   6.495  71.629  1.00  0.00    -0.026 C  
HETATM   36  C   UNL     1      -5.702   7.757  70.975  1.00  0.00    -0.034 C  
HETATM   37  C   UNL     1      -6.106   8.809  72.005  1.00  0.00    -0.073 C  
HETATM   38  C   UNL     1      -7.007   8.255  73.108  1.00  0.00    -0.136 C  
HETATM   39  C   UNL     1      -6.442   6.977  73.727  1.00  0.00    -0.066 C  
ENDBRANCH  32  34
ENDBRANCH  30  32
ENDBRANCH  28  30
ENDBRANCH  25  28
ENDBRANCH  22  25
ENDBRANCH  18  19
ENDBRANCH  17  18
ENDBRANCH  14  17
ENDBRANCH   2   3
TORSDOF 9
ENDMDL
MODEL       87
REMARK 921   NORMALIZED FREE ENERGY PREDICTED BY IDOCK:   -5.52 KCAL/MOL
REMARK 922        TOTAL FREE ENERGY PREDICTED BY IDOCK:  -10.57 KCAL/MOL
REMARK 923 INTER-LIGAND FREE ENERGY PREDICTED BY IDOCK:   -8.42 KCAL/MOL
REMARK 924 INTRA-LIGAND FREE ENERGY PREDICTED BY IDOCK:   -2.15 KCAL/MOL
REMARK 927      BINDING AFFINITY PREDICTED BY RF-SCORE:    0.00 PKD
ROOT
HETATM    1  C   UNL     1     -13.674   9.265  71.634  1.00  0.00    -0.354 C  
HETATM    2  O   UNL     1     -12.276   9.330  71.905  1.00  0.00    -0.356 OA 
ENDROOT
BRANCH   2   3
HETATM    3  C   UNL     1     -11.601   8.148  71.785  1.00  0.00    -0.291 A  
HETATM    4  C   UNL     1     -11.548   7.376  70.630  1.00  0.00    -0.295 A  
HETATM    5  C   UNL     1     -10.786   6.200  70.607  1.00  0.00    -0.355 A  
HETATM    6  C   UNL     1     -10.109   5.747  71.751  1.00  0.00    -0.233 A  
HETATM    7  C   UNL     1     -10.140   6.558  72.896  1.00  0.00    -0.197 A  
HETATM    8  C   UNL     1      -9.318   4.445  71.706  1.00  0.00    -0.195 C  
HETATM    9  C   UNL     1      -9.626   3.646  70.431  1.00  0.00    -0.184 C  
HETATM   10  C   UNL     1      -7.807   4.761  71.627  1.00  0.00    -0.098 C  
HETATM   11  C   UNL     1      -9.587   3.559  72.935  1.00  0.00    -0.169 C  
HETATM   12  C   UNL     1     -10.867   7.752  72.903  1.00  0.00    -0.453 A  
HETATM   13  O   UNL     1      -9.631   2.418  70.381  1.00  0.00    -0.123 OA 
HETATM   14  N   UNL     1      -9.734   4.445  69.309  1.00  0.00    -0.191 N  
HETATM   15  O   UNL     1     -11.124   5.968  68.288  1.00  0.00    -0.309 OA 
HETATM   16  C   UNL     1     -10.582   5.531  69.298  1.00  0.00    -0.255 C  
BRANCH  14  17
HETATM   17  C   UNL     1      -9.140   3.988  68.073  1.00  0.00    -0.140 C  
BRANCH  17  18
HETATM   18  C   UNL     1      -7.760   4.542  67.718  1.00  0.00    -0.081 C  
BRANCH  18  19
HETATM   19  C   UNL     1      -7.860   5.693  66.730  1.00  0.00    -0.101 A  
HETATM   20  C   UNL     1      -7.957   7.030  67.154  1.00  0.00    -0.113 A  
HETATM   21  C   UNL     1      -8.110   8.067  66.235  1.00  0.00    -0.112 A  
HETATM   22  C   UNL     1      -8.132   7.776  64.875  1.00  0.00    -0.136 A  
HETATM   23  C   UNL     1      -7.857   5.424  65.354  1.00  0.00    -0.095 A  
HETATM   24  C   UNL     1      -8.007   6.460  64.428  1.00  0.00    -0.108 A  
BRANCH  22  25
HETATM   25  S   UNL     1      -8.375   9.098  63.719  1.00  0.00    -0.175 S  
HETATM   26  O   UNL     1      -7.313  10.070  63.868  1.00  0.00    -0.130 OA 
HETATM   27  O   UNL     1      -8.644   8.498  62.427  1.00  0.00    -0.198 OA 
BRANCH  25  28
HETATM   28  N   UNL     1      -9.819   9.763  64.196  1.00  0.00    -0.432 N  
HETATM   29  H   UNL     1     -10.551   9.130  64.520  1.00  0.00     0.000 HD 
BRANCH  28  30
HETATM   30  C   UNL     1     -10.097  11.116  64.187  1.00  0.00    -0.333 C  
HETATM   31  O   UNL     1      -9.815  11.865  63.265  1.00  0.00    -0.407 OA 
BRANCH  30  32
HETATM   32  N   UNL     1     -10.717  11.519  65.329  1.00  0.00    -0.286 N  
HETATM   33  H   UNL     1     -11.656  11.179  65.534  1.00  0.00     0.000 HD 
BRANCH  32  34
HETATM   34  C   UNL     1     -10.068  12.428  66.268  1.00  0.00    -0.240 C  
HETATM   35  C   UNL     1     -11.098  13.175  67.126  1.00  0.00    -0.305 C  
HETATM   36  C   UNL     1     -11.843  12.229  68.066  1.00  0.00    -0.368 C  
HETATM   37  C   UNL     1     -10.889  11.404  68.926  1.00  0.00    -0.259 C  
HETATM   38  C   UNL     1      -9.797  10.708  68.116  1.00  0.00    -0.170 C  
HETATM   39  C   UNL     1      -9.085  11.669  67.163  1.00  0.00    -0.171 C  
ENDBRANCH  32  34
ENDBRANCH  30  32
ENDBRANCH  28  30
ENDBRANCH  25  28
ENDBRANCH  22  25
ENDBRANCH  18  19
ENDBRANCH  17  18
ENDBRANCH  14  17
ENDBRANCH   2   3
TORSDOF 9
ENDMDL
MODEL       88
REMARK 921   NORMALIZED FREE ENERGY PREDICTED BY IDOCK:   -5.51 KCAL/MOL
REMARK 922        TOTAL FREE ENERGY PREDICTED BY IDOCK:  -10.56 KCAL/MOL
REMARK 923 INTER-LIGAND FREE ENERGY PREDICTED BY IDOCK:   -8.85 KCAL/MOL
REMARK 924 INTRA-LIGAND FREE ENERGY PREDICTED BY IDOCK:   -1.71 KCAL/MOL
REMARK 927      BINDING AFFINITY PREDICTED BY RF-SCORE:    0.00 PKD
ROOT
HETATM    1  C   UNL     1     -10.339   4.062  65.063  1.00  0.00    -0.160 C  
HETATM    2  O   UNL     1      -9.273   4.799  65.656  1.00  0.00    -0.142 OA 
ENDROOT
BRANCH   2   3
HETATM    3  C   UNL     1      -9.358   4.965  67.010  1.00  0.00    -0.129 A  
HETATM    4  C   UNL     1      -9.368   6.192  67.661  1.00  0.00    -0.112 A  
HETATM    5  C   UNL     1      -9.505   6.245  69.055  1.00  0.00    -0.133 A  
HETATM    6  C   UNL     1      -9.581   5.073  69.826  1.00  0.00    -0.240 A  
HETATM    7  C   UNL     1      -9.610   3.844  69.150  1.00  0.00    -0.218 A  
HETATM    8  C   UNL     1      -9.693   5.162  71.343  1.00  0.00    -0.225 C  
HETATM    9  C   UNL     1      -9.412   6.587  71.844  1.00  0.00    -0.151 C  
HETATM   10  C   UNL     1     -11.147   4.865  71.772  1.00  0.00     0.175 C  
HETATM   11  C   UNL     1      -8.743   4.182  72.055  1.00  0.00    -0.123 C  
HETATM   12  C   UNL     1      -9.515   3.796  67.755  1.00  0.00    -0.231 A  
HETATM   13  O   UNL     1      -8.876   6.839  72.921  1.00  0.00    -0.125 OA 
HETATM   14  N   UNL     1      -9.972   7.560  71.037  1.00  0.00    -0.186 N  
HETATM   15  O   UNL     1      -9.728   8.589  68.994  1.00  0.00    -0.165 OA 
HETATM   16  C   UNL     1      -9.730   7.573  69.680  1.00  0.00    -0.167 C  
BRANCH  14  17
HETATM   17  C   UNL     1     -10.606   8.699  71.661  1.00  0.00    -0.303 C  
BRANCH  17  18
HETATM   18  C   UNL     1     -11.992   9.092  71.149  1.00  0.00    -0.374 C  
BRANCH  18  19
HETATM   19  C   UNL     1     -12.150  10.602  71.080  1.00  0.00    -0.473 A  
HETATM   20  C   UNL     1     -13.007  11.301  71.948  1.00  0.00    -0.471 A  
HETATM   21  C   UNL     1     -13.185  12.679  71.829  1.00  0.00    -0.457 A  
HETATM   22  C   UNL     1     -12.477  13.378  70.858  1.00  0.00    -0.359 A  
HETATM   23  C   UNL     1     -11.424  11.329  70.126  1.00  0.00    -0.336 A  
HETATM   24  C   UNL     1     -11.596  12.711  70.005  1.00  0.00    -0.199 A  
BRANCH  22  25
HETATM   25  S   UNL     1     -12.748  15.121  70.686  1.00  0.00    -0.395 S  
HETATM   26  O   UNL     1     -14.155  15.409  70.862  1.00  0.00    -0.422 OA 
HETATM   27  O   UNL     1     -11.755  15.795  71.497  1.00  0.00    -0.371 OA 
BRANCH  25  28
HETATM   28  N   UNL     1     -12.302  15.424  69.116  1.00  0.00    -0.609 N  
HETATM   29  H   UNL     1     -12.907  15.071  68.373  1.00  0.00     0.000 HD 
BRANCH  28  30
HETATM   30  C   UNL     1     -11.169  16.120  68.746  1.00  0.00    -0.365 C  
HETATM   31  O   UNL     1     -11.178  17.266  68.326  1.00  0.00    -0.187 OA 
BRANCH  30  32
HETATM   32  N   UNL     1     -10.039  15.377  68.898  1.00  0.00    -0.210 N  
HETATM   33  H   UNL     1      -9.884  14.878  69.774  1.00  0.00     0.000 HD 
BRANCH  32  34
HETATM   34  C   UNL     1      -9.043  15.277  67.836  1.00  0.00    -0.175 C  
HETATM   35  C   UNL     1      -7.723  14.699  68.359  1.00  0.00    -0.125 C  
HETATM   36  C   UNL     1      -7.875  13.240  68.787  1.00  0.00     0.008 C  
HETATM   37  C   UNL     1      -8.465  12.374  67.677  1.00  0.00    -0.169 C  
HETATM   38  C   UNL     1      -9.740  12.959  67.072  1.00  0.00    -0.230 C  
HETATM   39  C   UNL     1      -9.572  14.426  66.678  1.00  0.00    -0.295 C  
ENDBRANCH  32  34
ENDBRANCH  30  32
ENDBRANCH  28  30
ENDBRANCH  25  28
ENDBRANCH  22  25
ENDBRANCH  18  19
ENDBRANCH  17  18
ENDBRANCH  14  17
ENDBRANCH   2   3
TORSDOF 9
ENDMDL
MODEL       89
REMARK 921   NORMALIZED FREE ENERGY PREDICTED BY IDOCK:   -5.51 KCAL/MOL
REMARK 922        TOTAL FREE ENERGY PREDICTED BY IDOCK:  -10.55 KCAL/MOL
REMARK 923 INTER-LIGAND FREE ENERGY PREDICTED BY IDOCK:   -8.54 KCAL/MOL
REMARK 924 INTRA-LIGAND FREE ENERGY PREDICTED BY IDOCK:   -2.01 KCAL/MOL
REMARK 927      BINDING AFFINITY PREDICTED BY RF-SCORE:    0.00 PKD
ROOT
HETATM    1  C   UNL     1     -12.468  11.947  63.661  1.00  0.00    -0.470 C  
HETATM    2  O   UNL     1     -12.991  12.570  64.831  1.00  0.00    -0.821 OA 
ENDROOT
BRANCH   2   3
HETATM    3  C   UNL     1     -12.259  13.620  65.310  1.00  0.00    -0.439 A  
HETATM    4  C   UNL     1     -11.796  13.737  66.615  1.00  0.00    -0.445 A  
HETATM    5  C   UNL     1     -11.014  14.839  66.986  1.00  0.00    -0.324 A  
HETATM    6  C   UNL     1     -10.727  15.869  66.075  1.00  0.00    -0.289 A  
HETATM    7  C   UNL     1     -11.169  15.717  64.752  1.00  0.00    -0.375 A  
HETATM    8  C   UNL     1      -9.905  17.074  66.518  1.00  0.00    -0.305 C  
HETATM    9  C   UNL     1      -9.743  17.111  68.045  1.00  0.00    -0.274 C  
HETATM   10  C   UNL     1      -8.468  16.950  65.963  1.00  0.00    -0.186 C  
HETATM   11  C   UNL     1     -10.519  18.403  66.044  1.00  0.00    -0.400 C  
HETATM   12  C   UNL     1     -11.914  14.595  64.375  1.00  0.00    -0.454 A  
HETATM   13  O   UNL     1      -9.674  18.150  68.698  1.00  0.00    -0.333 OA 
HETATM   14  N   UNL     1      -9.514  15.862  68.592  1.00  0.00    -0.205 N  
HETATM   15  O   UNL     1     -10.564  13.877  69.087  1.00  0.00    -0.201 OA 
HETATM   16  C   UNL     1     -10.363  14.811  68.320  1.00  0.00    -0.238 C  
BRANCH  14  17
HETATM   17  C   UNL     1      -8.528  15.734  69.641  1.00  0.00    -0.019 C  
BRANCH  17  18
HETATM   18  C   UNL     1      -7.078  15.515  69.209  1.00  0.00    -0.186 C  
BRANCH  18  19
HETATM   19  C   UNL     1      -6.814  14.057  68.871  1.00  0.00    -0.108 A  
HETATM   20  C   UNL     1      -6.630  13.084  69.869  1.00  0.00     0.129 A  
HETATM   21  C   UNL     1      -6.328  11.763  69.538  1.00  0.00    -0.123 A  
HETATM   22  C   UNL     1      -6.242  11.396  68.200  1.00  0.00    -0.045 A  
HETATM   23  C   UNL     1      -6.750  13.660  67.528  1.00  0.00    -0.139 A  
HETATM   24  C   UNL     1      -6.452  12.337  67.191  1.00  0.00    -0.118 A  
BRANCH  22  25
HETATM   25  S   UNL     1      -5.811   9.725  67.794  1.00  0.00    -0.039 S  
HETATM   26  O   UNL     1      -5.193   9.692  66.485  1.00  0.00    -0.042 OA 
HETATM   27  O   UNL     1      -5.128   9.164  68.942  1.00  0.00    -0.033 OA 
BRANCH  25  28
HETATM   28  N   UNL     1      -7.279   8.953  67.744  1.00  0.00    -0.083 N  
HETATM   29  H   UNL     1      -8.011   9.360  67.161  1.00  0.00     0.000 HD 
BRANCH  28  30
HETATM   30  C   UNL     1      -7.578   7.796  68.437  1.00  0.00    -0.109 C  
HETATM   31  O   UNL     1      -7.095   6.704  68.184  1.00  0.00    -0.077 OA 
BRANCH  30  32
HETATM   32  N   UNL     1      -8.480   8.015  69.432  1.00  0.00    -0.131 N  
HETATM   33  H   UNL     1      -8.248   7.734  70.385  1.00  0.00     0.000 HD 
BRANCH  32  34
HETATM   34  C   UNL     1      -9.770   8.642  69.168  1.00  0.00    -0.173 C  
HETATM   35  C   UNL     1     -10.636   7.773  68.246  1.00  0.00    -0.169 C  
HETATM   36  C   UNL     1     -11.052   6.470  68.925  1.00  0.00    -0.371 C  
HETATM   37  C   UNL     1     -11.734   6.713  70.269  1.00  0.00    -0.432 C  
HETATM   38  C   UNL     1     -10.940   7.641  71.186  1.00  0.00    -0.263 C  
HETATM   39  C   UNL     1     -10.512   8.926  70.477  1.00  0.00    -0.257 C  
ENDBRANCH  32  34
ENDBRANCH  30  32
ENDBRANCH  28  30
ENDBRANCH  25  28
ENDBRANCH  22  25
ENDBRANCH  18  19
ENDBRANCH  17  18
ENDBRANCH  14  17
ENDBRANCH   2   3
TORSDOF 9
ENDMDL
MODEL       90
REMARK 921   NORMALIZED FREE ENERGY PREDICTED BY IDOCK:   -5.48 KCAL/MOL
REMARK 922        TOTAL FREE ENERGY PREDICTED BY IDOCK:  -10.51 KCAL/MOL
REMARK 923 INTER-LIGAND FREE ENERGY PREDICTED BY IDOCK:   -9.01 KCAL/MOL
REMARK 924 INTRA-LIGAND FREE ENERGY PREDICTED BY IDOCK:   -1.51 KCAL/MOL
REMARK 927      BINDING AFFINITY PREDICTED BY RF-SCORE:    0.00 PKD
ROOT
HETATM    1  C   UNL     1      -7.964  18.788  66.638  1.00  0.00    -0.266 C  
HETATM    2  O   UNL     1      -7.628  17.477  67.086  1.00  0.00    -0.189 OA 
ENDROOT
BRANCH   2   3
HETATM    3  C   UNL     1      -8.469  16.484  66.670  1.00  0.00    -0.263 A  
HETATM    4  C   UNL     1      -8.286  15.129  66.923  1.00  0.00    -0.267 A  
HETATM    5  C   UNL     1      -9.240  14.200  66.485  1.00  0.00    -0.247 A  
HETATM    6  C   UNL     1     -10.362  14.600  65.742  1.00  0.00    -0.349 A  
HETATM    7  C   UNL     1     -10.552  15.974  65.530  1.00  0.00    -0.415 A  
HETATM    8  C   UNL     1     -11.362  13.562  65.248  1.00  0.00    -0.304 C  
HETATM    9  C   UNL     1     -10.815  12.135  65.410  1.00  0.00    -0.294 C  
HETATM   10  C   UNL     1     -12.632  13.608  66.128  1.00  0.00    -0.391 C  
HETATM   11  C   UNL     1     -11.756  13.787  63.777  1.00  0.00    -0.219 C  
HETATM   12  C   UNL     1      -9.621  16.903  66.004  1.00  0.00    -0.238 A  
HETATM   13  O   UNL     1     -11.075  11.214  64.639  1.00  0.00    -0.231 OA 
HETATM   14  N   UNL     1     -10.138  11.952  66.601  1.00  0.00    -0.198 N  
HETATM   15  O   UNL     1      -8.167  12.469  67.669  1.00  0.00    -0.148 OA 
HETATM   16  C   UNL     1      -9.116  12.800  66.965  1.00  0.00    -0.220 C  
BRANCH  14  17
HETATM   17  C   UNL     1     -10.345  10.723  67.334  1.00  0.00    -0.211 C  
BRANCH  17  18
HETATM   18  C   UNL     1     -11.316  10.772  68.514  1.00  0.00    -0.360 C  
BRANCH  18  19
HETATM   19  C   UNL     1     -10.783   9.991  69.704  1.00  0.00    -0.282 A  
HETATM   20  C   UNL     1     -11.625   9.543  70.737  1.00  0.00    -0.378 A  
HETATM   21  C   UNL     1     -11.109   8.881  71.850  1.00  0.00    -0.442 A  
HETATM   22  C   UNL     1      -9.743   8.630  71.923  1.00  0.00    -0.313 A  
HETATM   23  C   UNL     1      -9.413   9.704  69.784  1.00  0.00    -0.242 A  
HETATM   24  C   UNL     1      -8.891   9.037  70.896  1.00  0.00    -0.294 A  
BRANCH  22  25
HETATM   25  S   UNL     1      -9.093   7.830  73.365  1.00  0.00    -0.294 S  
HETATM   26  O   UNL     1      -8.267   8.763  74.102  1.00  0.00    -0.312 OA 
HETATM   27  O   UNL     1     -10.196   7.154  74.018  1.00  0.00    -0.342 OA 
BRANCH  25  28
HETATM   28  N   UNL     1      -8.151   6.617  72.737  1.00  0.00    -0.108 N  
HETATM   29  H   UNL     1      -7.910   6.665  71.747  1.00  0.00     0.000 HD 
BRANCH  28  30
HETATM   30  C   UNL     1      -7.670   5.545  73.464  1.00  0.00    -0.099 C  
HETATM   31  O   UNL     1      -6.583   5.528  74.018  1.00  0.00    -0.072 OA 
BRANCH  30  32
HETATM   32  N   UNL     1      -8.549   4.506  73.487  1.00  0.00    -0.101 N  
HETATM   33  H   UNL     1      -8.690   3.992  74.356  1.00  0.00     0.000 HD 
BRANCH  32  34
HETATM   34  C   UNL     1      -9.294   4.112  72.296  1.00  0.00    -0.125 C  
HETATM   35  C   UNL     1      -8.921   2.694  71.847  1.00  0.00    -0.130 C  
HETATM   36  C   UNL     1      -9.370   1.644  72.861  1.00  0.00    -0.094 C  
HETATM   37  C   UNL     1     -10.858   1.756  73.185  1.00  0.00    -0.248 C  
HETATM   38  C   UNL     1     -11.286   3.174  73.559  1.00  0.00    -0.286 C  
HETATM   39  C   UNL     1     -10.801   4.210  72.545  1.00  0.00    -0.036 C  
ENDBRANCH  32  34
ENDBRANCH  30  32
ENDBRANCH  28  30
ENDBRANCH  25  28
ENDBRANCH  22  25
ENDBRANCH  18  19
ENDBRANCH  17  18
ENDBRANCH  14  17
ENDBRANCH   2   3
TORSDOF 9
ENDMDL
MODEL       91
REMARK 921   NORMALIZED FREE ENERGY PREDICTED BY IDOCK:   -5.44 KCAL/MOL
REMARK 922        TOTAL FREE ENERGY PREDICTED BY IDOCK:  -10.45 KCAL/MOL
REMARK 923 INTER-LIGAND FREE ENERGY PREDICTED BY IDOCK:   -8.31 KCAL/MOL
REMARK 924 INTRA-LIGAND FREE ENERGY PREDICTED BY IDOCK:   -2.14 KCAL/MOL
REMARK 927      BINDING AFFINITY PREDICTED BY RF-SCORE:    0.00 PKD
ROOT
HETATM    1  C   UNL     1     -14.085  15.532  72.669  1.00  0.00    -0.450 C  
HETATM    2  O   UNL     1     -13.524  14.266  72.331  1.00  0.00    -0.407 OA 
ENDROOT
BRANCH   2   3
HETATM    3  C   UNL     1     -12.715  14.260  71.230  1.00  0.00    -0.357 A  
HETATM    4  C   UNL     1     -12.395  13.132  70.484  1.00  0.00    -0.380 A  
HETATM    5  C   UNL     1     -11.589  13.251  69.344  1.00  0.00    -0.364 A  
HETATM    6  C   UNL     1     -11.046  14.488  68.959  1.00  0.00    -0.279 A  
HETATM    7  C   UNL     1     -11.411  15.623  69.699  1.00  0.00    -0.345 A  
HETATM    8  C   UNL     1     -10.143  14.579  67.734  1.00  0.00    -0.225 C  
HETATM    9  C   UNL     1      -9.721  13.186  67.245  1.00  0.00    -0.230 C  
HETATM   10  C   UNL     1     -10.931  15.197  66.558  1.00  0.00    -0.318 C  
HETATM   11  C   UNL     1      -8.885  15.423  68.002  1.00  0.00    -0.165 C  
HETATM   12  C   UNL     1     -12.249  15.507  70.813  1.00  0.00    -0.450 A  
HETATM   13  O   UNL     1      -8.633  12.947  66.724  1.00  0.00    -0.168 OA 
HETATM   14  N   UNL     1     -10.749  12.263  67.296  1.00  0.00    -0.226 N  
HETATM   15  O   UNL     1     -11.987  11.002  68.768  1.00  0.00    -0.457 OA 
HETATM   16  C   UNL     1     -11.456  12.064  68.461  1.00  0.00    -0.293 C  
BRANCH  14  17
HETATM   17  C   UNL     1     -10.908  11.341  66.195  1.00  0.00    -0.222 C  
BRANCH  17  18
HETATM   18  C   UNL     1      -9.762  10.363  65.935  1.00  0.00    -0.272 C  
BRANCH  18  19
HETATM   19  C   UNL     1      -9.730   9.256  66.976  1.00  0.00    -0.241 A  
HETATM   20  C   UNL     1     -10.654   8.197  66.965  1.00  0.00    -0.346 A  
HETATM   21  C   UNL     1     -10.646   7.225  67.964  1.00  0.00    -0.247 A  
HETATM   22  C   UNL     1      -9.686   7.285  68.968  1.00  0.00    -0.152 A  
HETATM   23  C   UNL     1      -8.753   9.283  67.982  1.00  0.00    -0.125 A  
HETATM   24  C   UNL     1      -8.739   8.309  68.983  1.00  0.00    -0.143 A  
BRANCH  22  25
HETATM   25  S   UNL     1      -9.717   6.070  70.259  1.00  0.00    -0.168 S  
HETATM   26  O   UNL     1      -9.947   6.723  71.530  1.00  0.00    -0.179 OA 
HETATM   27  O   UNL     1     -10.583   4.995  69.820  1.00  0.00    -0.222 OA 
BRANCH  25  28
HETATM   28  N   UNL     1      -8.184   5.434  70.221  1.00  0.00    -0.099 N  
HETATM   29  H   UNL     1      -7.447   5.939  70.713  1.00  0.00     0.000 HD 
BRANCH  28  30
HETATM   30  C   UNL     1      -7.838   4.267  69.569  1.00  0.00    -0.057 C  
HETATM   31  O   UNL     1      -7.190   3.366  70.077  1.00  0.00    -0.041 OA 
BRANCH  30  32
HETATM   32  N   UNL     1      -8.300   4.240  68.289  1.00  0.00    -0.092 N  
HETATM   33  H   UNL     1      -9.293   4.392  68.114  1.00  0.00     0.000 HD 
BRANCH  32  34
HETATM   34  C   UNL     1      -7.407   3.999  67.161  1.00  0.00    -0.068 C  
HETATM   35  C   UNL     1      -8.186   3.564  65.913  1.00  0.00    -0.097 C  
HETATM   36  C   UNL     1      -9.071   4.689  65.379  1.00  0.00    -0.149 C  
HETATM   37  C   UNL     1      -8.282   5.972  65.129  1.00  0.00    -0.142 C  
HETATM   38  C   UNL     1      -7.427   6.395  66.323  1.00  0.00    -0.085 C  
HETATM   39  C   UNL     1      -6.572   5.246  66.856  1.00  0.00    -0.053 C  
ENDBRANCH  32  34
ENDBRANCH  30  32
ENDBRANCH  28  30
ENDBRANCH  25  28
ENDBRANCH  22  25
ENDBRANCH  18  19
ENDBRANCH  17  18
ENDBRANCH  14  17
ENDBRANCH   2   3
TORSDOF 9
ENDMDL
MODEL       92
REMARK 921   NORMALIZED FREE ENERGY PREDICTED BY IDOCK:   -5.43 KCAL/MOL
REMARK 922        TOTAL FREE ENERGY PREDICTED BY IDOCK:  -10.44 KCAL/MOL
REMARK 923 INTER-LIGAND FREE ENERGY PREDICTED BY IDOCK:   -8.64 KCAL/MOL
REMARK 924 INTRA-LIGAND FREE ENERGY PREDICTED BY IDOCK:   -1.79 KCAL/MOL
REMARK 927      BINDING AFFINITY PREDICTED BY RF-SCORE:    0.00 PKD
ROOT
HETATM    1  C   UNL     1     -13.191  14.611  72.889  1.00  0.00    -0.512 C  
HETATM    2  O   UNL     1     -12.333  15.589  72.305  1.00  0.00    -0.328 OA 
ENDROOT
BRANCH   2   3
HETATM    3  C   UNL     1     -12.014  15.379  70.993  1.00  0.00    -0.359 A  
HETATM    4  C   UNL     1     -11.195  16.204  70.232  1.00  0.00    -0.389 A  
HETATM    5  C   UNL     1     -10.899  15.866  68.905  1.00  0.00    -0.274 A  
HETATM    6  C   UNL     1     -11.458  14.729  68.299  1.00  0.00    -0.338 A  
HETATM    7  C   UNL     1     -12.251  13.886  69.092  1.00  0.00    -0.305 A  
HETATM    8  C   UNL     1     -11.146  14.408  66.842  1.00  0.00    -0.325 C  
HETATM    9  C   UNL     1     -10.454  15.588  66.143  1.00  0.00    -0.313 C  
HETATM   10  C   UNL     1     -10.128  13.248  66.776  1.00  0.00    -0.258 C  
HETATM   11  C   UNL     1     -12.407  14.022  66.049  1.00  0.00    -0.504 C  
HETATM   12  C   UNL     1     -12.511  14.204  70.429  1.00  0.00    -0.424 A  
HETATM   13  O   UNL     1     -10.606  15.861  64.954  1.00  0.00    -0.546 OA 
HETATM   14  N   UNL     1      -9.516  16.212  66.944  1.00  0.00    -0.223 N  
HETATM   15  O   UNL     1      -9.318  17.607  68.762  1.00  0.00    -0.276 OA 
HETATM   16  C   UNL     1      -9.852  16.653  68.205  1.00  0.00    -0.253 C  
BRANCH  14  17
HETATM   17  C   UNL     1      -8.259  16.615  66.355  1.00  0.00    -0.318 C  
BRANCH  17  18
HETATM   18  C   UNL     1      -7.010  16.493  67.228  1.00  0.00    -0.208 C  
BRANCH  18  19
HETATM   19  C   UNL     1      -6.928  15.127  67.890  1.00  0.00    -0.167 A  
HETATM   20  C   UNL     1      -6.924  14.977  69.288  1.00  0.00    -0.156 A  
HETATM   21  C   UNL     1      -6.786  13.720  69.876  1.00  0.00     0.078 A  
HETATM   22  C   UNL     1      -6.685  12.594  69.067  1.00  0.00    -0.097 A  
HETATM   23  C   UNL     1      -6.853  13.976  67.092  1.00  0.00     0.430 A  
HETATM   24  C   UNL     1      -6.719  12.714  67.677  1.00  0.00    -0.144 A  
BRANCH  22  25
HETATM   25  S   UNL     1      -6.463  11.008  69.827  1.00  0.00    -0.145 S  
HETATM   26  O   UNL     1      -5.796  10.119  68.899  1.00  0.00    -0.038 OA 
HETATM   27  O   UNL     1      -5.912  11.235  71.147  1.00  0.00    -0.374 OA 
BRANCH  25  28
HETATM   28  N   UNL     1      -8.017  10.488  70.088  1.00  0.00    -0.236 N  
HETATM   29  H   UNL     1      -8.484  10.794  70.942  1.00  0.00     0.000 HD 
BRANCH  28  30
HETATM   30  C   UNL     1      -8.722   9.669  69.228  1.00  0.00    -0.159 C  
HETATM   31  O   UNL     1      -9.661  10.044  68.544  1.00  0.00    -0.146 OA 
BRANCH  30  32
HETATM   32  N   UNL     1      -8.252   8.392  69.236  1.00  0.00    -0.115 N  
HETATM   33  H   UNL     1      -7.698   8.060  68.447  1.00  0.00     0.000 HD 
BRANCH  32  34
HETATM   34  C   UNL     1      -8.521   7.488  70.349  1.00  0.00    -0.141 C  
HETATM   35  C   UNL     1      -9.986   7.572  70.796  1.00  0.00    -0.182 C  
HETATM   36  C   UNL     1     -10.936   7.043  69.723  1.00  0.00    -0.283 C  
HETATM   37  C   UNL     1     -10.567   5.631  69.274  1.00  0.00    -0.359 C  
HETATM   38  C   UNL     1      -9.094   5.486  68.897  1.00  0.00    -0.133 C  
HETATM   39  C   UNL     1      -8.165   6.047  69.973  1.00  0.00    -0.122 C  
ENDBRANCH  32  34
ENDBRANCH  30  32
ENDBRANCH  28  30
ENDBRANCH  25  28
ENDBRANCH  22  25
ENDBRANCH  18  19
ENDBRANCH  17  18
ENDBRANCH  14  17
ENDBRANCH   2   3
TORSDOF 9
ENDMDL
MODEL       93
REMARK 921   NORMALIZED FREE ENERGY PREDICTED BY IDOCK:   -5.43 KCAL/MOL
REMARK 922        TOTAL FREE ENERGY PREDICTED BY IDOCK:  -10.43 KCAL/MOL
REMARK 923 INTER-LIGAND FREE ENERGY PREDICTED BY IDOCK:   -7.79 KCAL/MOL
REMARK 924 INTRA-LIGAND FREE ENERGY PREDICTED BY IDOCK:   -2.64 KCAL/MOL
REMARK 927      BINDING AFFINITY PREDICTED BY RF-SCORE:    0.00 PKD
ROOT
HETATM    1  C   UNL     1     -13.886   9.338  71.879  1.00  0.00    -0.349 C  
HETATM    2  O   UNL     1     -12.482   9.544  72.012  1.00  0.00    -0.371 OA 
ENDROOT
BRANCH   2   3
HETATM    3  C   UNL     1     -11.693   8.578  71.452  1.00  0.00    -0.294 A  
HETATM    4  C   UNL     1     -11.411   8.471  70.095  1.00  0.00    -0.072 A  
HETATM    5  C   UNL     1     -10.550   7.465  69.636  1.00  0.00    -0.243 A  
HETATM    6  C   UNL     1     -10.001   6.517  70.516  1.00  0.00    -0.206 A  
HETATM    7  C   UNL     1     -10.264   6.663  71.886  1.00  0.00    -0.203 A  
HETATM    8  C   UNL     1      -9.098   5.411  69.981  1.00  0.00    -0.160 C  
HETATM    9  C   UNL     1      -9.152   5.335  68.448  1.00  0.00    -0.110 C  
HETATM   10  C   UNL     1      -7.626   5.741  70.316  1.00  0.00    -0.090 C  
HETATM   11  C   UNL     1      -9.455   4.034  70.568  1.00  0.00    -0.248 C  
HETATM   12  C   UNL     1     -11.090   7.694  72.346  1.00  0.00    -0.362 A  
HETATM   13  O   UNL     1      -9.040   4.288  67.813  1.00  0.00    -0.116 OA 
HETATM   14  N   UNL     1      -9.173   6.580  67.848  1.00  0.00    -0.112 N  
HETATM   15  O   UNL     1     -10.538   8.393  67.472  1.00  0.00    -0.255 OA 
HETATM   16  C   UNL     1     -10.106   7.523  68.221  1.00  0.00    -0.183 C  
BRANCH  14  17
HETATM   17  C   UNL     1      -8.374   6.793  66.663  1.00  0.00    -0.118 C  
BRANCH  17  18
HETATM   18  C   UNL     1      -6.933   7.261  66.870  1.00  0.00    -0.077 C  
BRANCH  18  19
HETATM   19  C   UNL     1      -6.880   8.716  67.307  1.00  0.00    -0.067 A  
HETATM   20  C   UNL     1      -6.906   9.087  68.663  1.00  0.00    -0.063 A  
HETATM   21  C   UNL     1      -6.918  10.428  69.042  1.00  0.00    -0.071 A  
HETATM   22  C   UNL     1      -6.869  11.415  68.063  1.00  0.00    -0.067 A  
HETATM   23  C   UNL     1      -6.803   9.725  66.338  1.00  0.00    -0.088 A  
HETATM   24  C   UNL     1      -6.811  11.072  66.712  1.00  0.00    -0.128 A  
BRANCH  22  25
HETATM   25  S   UNL     1      -6.933  13.117  68.556  1.00  0.00    -0.110 S  
HETATM   26  O   UNL     1      -6.153  13.299  69.762  1.00  0.00    -0.118 OA 
HETATM   27  O   UNL     1      -6.661  13.918  67.380  1.00  0.00    -0.233 OA 
BRANCH  25  28
HETATM   28  N   UNL     1      -8.542  13.359  68.883  1.00  0.00    -0.363 N  
HETATM   29  H   UNL     1      -9.002  12.707  69.518  1.00  0.00     0.000 HD 
BRANCH  28  30
HETATM   30  C   UNL     1      -9.301  14.386  68.355  1.00  0.00    -0.206 C  
HETATM   31  O   UNL     1      -9.474  15.461  68.906  1.00  0.00    -0.194 OA 
BRANCH  30  32
HETATM   32  N   UNL     1      -9.839  14.056  67.150  1.00  0.00    -0.235 N  
HETATM   33  H   UNL     1      -9.827  14.741  66.394  1.00  0.00     0.000 HD 
BRANCH  32  34
HETATM   34  C   UNL     1     -10.433  12.744  66.913  1.00  0.00    -0.240 C  
HETATM   35  C   UNL     1     -11.965  12.808  66.956  1.00  0.00    -0.364 C  
HETATM   36  C   UNL     1     -12.530  13.624  65.795  1.00  0.00    -0.524 C  
HETATM   37  C   UNL     1     -12.027  13.123  64.443  1.00  0.00    -0.454 C  
HETATM   38  C   UNL     1     -10.508  12.968  64.386  1.00  0.00    -0.426 C  
HETATM   39  C   UNL     1      -9.965  12.173  65.572  1.00  0.00    -0.269 C  
ENDBRANCH  32  34
ENDBRANCH  30  32
ENDBRANCH  28  30
ENDBRANCH  25  28
ENDBRANCH  22  25
ENDBRANCH  18  19
ENDBRANCH  17  18
ENDBRANCH  14  17
ENDBRANCH   2   3
TORSDOF 9
ENDMDL
MODEL       94
REMARK 921   NORMALIZED FREE ENERGY PREDICTED BY IDOCK:   -5.43 KCAL/MOL
REMARK 922        TOTAL FREE ENERGY PREDICTED BY IDOCK:  -10.43 KCAL/MOL
REMARK 923 INTER-LIGAND FREE ENERGY PREDICTED BY IDOCK:   -9.63 KCAL/MOL
REMARK 924 INTRA-LIGAND FREE ENERGY PREDICTED BY IDOCK:   -0.79 KCAL/MOL
REMARK 927      BINDING AFFINITY PREDICTED BY RF-SCORE:    0.00 PKD
ROOT
HETATM    1  C   UNL     1      -8.799   4.160  71.161  1.00  0.00    -0.106 C  
HETATM    2  O   UNL     1      -8.575   5.482  70.677  1.00  0.00    -0.124 OA 
ENDROOT
BRANCH   2   3
HETATM    3  C   UNL     1      -9.598   6.364  70.888  1.00  0.00    -0.175 A  
HETATM    4  C   UNL     1      -9.572   7.710  70.543  1.00  0.00    -0.167 A  
HETATM    5  C   UNL     1     -10.699   8.513  70.765  1.00  0.00    -0.254 A  
HETATM    6  C   UNL     1     -11.850   7.998  71.384  1.00  0.00    -0.326 A  
HETATM    7  C   UNL     1     -11.875   6.629  71.690  1.00  0.00    -0.383 A  
HETATM    8  C   UNL     1     -13.047   8.906  71.647  1.00  0.00    -0.405 C  
HETATM    9  C   UNL     1     -12.687  10.384  71.434  1.00  0.00    -0.446 C  
HETATM   10  C   UNL     1     -14.156   8.609  70.612  1.00  0.00     0.600 C  
HETATM   11  C   UNL     1     -13.614   8.724  73.065  1.00  0.00     0.154 C  
HETATM   12  C   UNL     1     -10.764   5.821  71.428  1.00  0.00    -0.319 A  
HETATM   13  O   UNL     1     -13.182  11.306  72.079  1.00  0.00    -0.506 OA 
HETATM   14  N   UNL     1     -11.876  10.586  70.333  1.00  0.00    -0.311 N  
HETATM   15  O   UNL     1      -9.719  10.301  69.588  1.00  0.00    -0.228 OA 
HETATM   16  C   UNL     1     -10.703   9.879  70.185  1.00  0.00    -0.308 C  
BRANCH  14  17
HETATM   17  C   UNL     1     -12.144  11.717  69.473  1.00  0.00    -0.270 C  
BRANCH  17  18
HETATM   18  C   UNL     1     -12.040  13.107  70.099  1.00  0.00    -0.392 C  
BRANCH  18  19
HETATM   19  C   UNL     1     -11.644  14.152  69.068  1.00  0.00    -0.342 A  
HETATM   20  C   UNL     1     -11.533  13.844  67.701  1.00  0.00    -0.354 A  
HETATM   21  C   UNL     1     -11.109  14.800  66.780  1.00  0.00    -0.338 A  
HETATM   22  C   UNL     1     -10.825  16.090  67.216  1.00  0.00    -0.255 A  
HETATM   23  C   UNL     1     -11.379  15.465  69.483  1.00  0.00    -0.308 A  
HETATM   24  C   UNL     1     -10.958  16.429  68.563  1.00  0.00    -0.350 A  
BRANCH  22  25
HETATM   25  S   UNL     1     -10.242  17.284  66.042  1.00  0.00    -0.245 S  
HETATM   26  O   UNL     1     -10.845  17.025  64.752  1.00  0.00    -0.820 OA 
HETATM   27  O   UNL     1     -10.362  18.589  66.658  1.00  0.00    -0.369 OA 
BRANCH  25  28
HETATM   28  N   UNL     1      -8.611  16.985  65.972  1.00  0.00    -0.203 N  
HETATM   29  H   UNL     1      -8.121  17.215  65.107  1.00  0.00     0.000 HD 
BRANCH  28  30
HETATM   30  C   UNL     1      -7.870  16.448  67.006  1.00  0.00    -0.212 C  
HETATM   31  O   UNL     1      -7.573  15.267  67.093  1.00  0.00    -0.203 OA 
BRANCH  30  32
HETATM   32  N   UNL     1      -7.514  17.388  67.924  1.00  0.00    -0.187 N  
HETATM   33  H   UNL     1      -8.241  17.938  68.382  1.00  0.00     0.000 HD 
BRANCH  32  34
HETATM   34  C   UNL     1      -6.117  17.628  68.267  1.00  0.00    -0.165 C  
HETATM   35  C   UNL     1      -5.416  18.476  67.198  1.00  0.00    -0.138 C  
HETATM   36  C   UNL     1      -5.976  19.897  67.146  1.00  0.00    -0.191 C  
HETATM   37  C   UNL     1      -5.943  20.577  68.512  1.00  0.00    -0.358 C  
HETATM   38  C   UNL     1      -6.560  19.728  69.622  1.00  0.00    -0.378 C  
HETATM   39  C   UNL     1      -6.005  18.304  69.636  1.00  0.00    -0.249 C  
ENDBRANCH  32  34
ENDBRANCH  30  32
ENDBRANCH  28  30
ENDBRANCH  25  28
ENDBRANCH  22  25
ENDBRANCH  18  19
ENDBRANCH  17  18
ENDBRANCH  14  17
ENDBRANCH   2   3
TORSDOF 9
ENDMDL
MODEL       95
REMARK 921   NORMALIZED FREE ENERGY PREDICTED BY IDOCK:   -5.39 KCAL/MOL
REMARK 922        TOTAL FREE ENERGY PREDICTED BY IDOCK:  -10.38 KCAL/MOL
REMARK 923 INTER-LIGAND FREE ENERGY PREDICTED BY IDOCK:   -9.38 KCAL/MOL
REMARK 924 INTRA-LIGAND FREE ENERGY PREDICTED BY IDOCK:   -0.99 KCAL/MOL
REMARK 927      BINDING AFFINITY PREDICTED BY RF-SCORE:    0.00 PKD
ROOT
HETATM    1  C   UNL     1      -9.415   4.045  71.025  1.00  0.00    -0.163 C  
HETATM    2  O   UNL     1      -9.032   5.384  70.721  1.00  0.00    -0.133 OA 
ENDROOT
BRANCH   2   3
HETATM    3  C   UNL     1     -10.001   6.328  70.917  1.00  0.00    -0.186 A  
HETATM    4  C   UNL     1      -9.846   7.688  70.674  1.00  0.00    -0.182 A  
HETATM    5  C   UNL     1     -10.925   8.561  70.869  1.00  0.00    -0.292 A  
HETATM    6  C   UNL     1     -12.158   8.101  71.360  1.00  0.00    -0.326 A  
HETATM    7  C   UNL     1     -12.309   6.721  71.562  1.00  0.00    -0.407 A  
HETATM    8  C   UNL     1     -13.301   9.081  71.596  1.00  0.00    -0.433 C  
HETATM    9  C   UNL     1     -12.816  10.537  71.519  1.00  0.00    -0.463 C  
HETATM   10  C   UNL     1     -14.341   8.944  70.462  1.00  0.00     0.830 C  
HETATM   11  C   UNL     1     -13.993   8.851  72.951  1.00  0.00    -0.081 C  
HETATM   12  C   UNL     1     -11.244   5.846  71.327  1.00  0.00    -0.280 A  
HETATM   13  O   UNL     1     -13.291  11.450  72.190  1.00  0.00    -0.469 OA 
HETATM   14  N   UNL     1     -11.906  10.747  70.500  1.00  0.00    -0.331 N  
HETATM   15  O   UNL     1      -9.722  10.340  69.901  1.00  0.00    -0.196 OA 
HETATM   16  C   UNL     1     -10.781   9.959  70.390  1.00  0.00    -0.318 C  
BRANCH  14  17
HETATM   17  C   UNL     1     -12.018  11.950  69.707  1.00  0.00    -0.307 C  
BRANCH  17  18
HETATM   18  C   UNL     1     -12.168  13.270  70.463  1.00  0.00    -0.416 C  
BRANCH  18  19
HETATM   19  C   UNL     1     -11.774  14.454  69.595  1.00  0.00    -0.362 A  
HETATM   20  C   UNL     1     -11.733  14.368  68.192  1.00  0.00    -0.377 A  
HETATM   21  C   UNL     1     -11.310  15.446  67.417  1.00  0.00    -0.243 A  
HETATM   22  C   UNL     1     -10.957  16.639  68.039  1.00  0.00    -0.311 A  
HETATM   23  C   UNL     1     -11.440  15.674  70.201  1.00  0.00    -0.358 A  
HETATM   24  C   UNL     1     -11.020  16.759  69.428  1.00  0.00    -0.176 A  
BRANCH  22  25
HETATM   25  S   UNL     1     -10.376  17.987  67.045  1.00  0.00    -0.360 S  
HETATM   26  O   UNL     1     -10.342  17.581  65.656  1.00  0.00    -0.601 OA 
HETATM   27  O   UNL     1     -11.114  19.168  67.446  1.00  0.00    -0.426 OA 
BRANCH  25  28
HETATM   28  N   UNL     1      -8.831  18.232  67.599  1.00  0.00    -0.254 N  
HETATM   29  H   UNL     1      -8.717  18.627  68.533  1.00  0.00     0.000 HD 
BRANCH  28  30
HETATM   30  C   UNL     1      -7.688  17.936  66.882  1.00  0.00    -0.219 C  
HETATM   31  O   UNL     1      -7.524  18.226  65.708  1.00  0.00    -0.497 OA 
BRANCH  30  32
HETATM   32  N   UNL     1      -6.767  17.277  67.637  1.00  0.00    -0.146 N  
HETATM   33  H   UNL     1      -6.323  17.761  68.417  1.00  0.00     0.000 HD 
BRANCH  32  34
HETATM   34  C   UNL     1      -6.400  15.894  67.356  1.00  0.00    -0.161 C  
HETATM   35  C   UNL     1      -5.162  15.469  68.156  1.00  0.00    -0.122 C  
HETATM   36  C   UNL     1      -5.448  15.420  69.656  1.00  0.00    -0.104 C  
HETATM   37  C   UNL     1      -6.655  14.544  69.982  1.00  0.00    -0.140 C  
HETATM   38  C   UNL     1      -7.888  14.882  69.146  1.00  0.00    -0.171 C  
HETATM   39  C   UNL     1      -7.570  14.953  67.653  1.00  0.00    -0.201 C  
ENDBRANCH  32  34
ENDBRANCH  30  32
ENDBRANCH  28  30
ENDBRANCH  25  28
ENDBRANCH  22  25
ENDBRANCH  18  19
ENDBRANCH  17  18
ENDBRANCH  14  17
ENDBRANCH   2   3
TORSDOF 9
ENDMDL
MODEL       96
REMARK 921   NORMALIZED FREE ENERGY PREDICTED BY IDOCK:   -5.35 KCAL/MOL
REMARK 922        TOTAL FREE ENERGY PREDICTED BY IDOCK:  -10.32 KCAL/MOL
REMARK 923 INTER-LIGAND FREE ENERGY PREDICTED BY IDOCK:   -8.84 KCAL/MOL
REMARK 924 INTRA-LIGAND FREE ENERGY PREDICTED BY IDOCK:   -1.48 KCAL/MOL
REMARK 927      BINDING AFFINITY PREDICTED BY RF-SCORE:    0.00 PKD
ROOT
HETATM    1  C   UNL     1      -9.390   2.724  74.473  1.00  0.00    -0.083 C  
HETATM    2  O   UNL     1     -10.445   3.403  73.797  1.00  0.00    -0.142 OA 
ENDROOT
BRANCH   2   3
HETATM    3  C   UNL     1     -10.180   3.755  72.503  1.00  0.00    -0.161 A  
HETATM    4  C   UNL     1     -10.500   4.980  71.931  1.00  0.00    -0.255 A  
HETATM    5  C   UNL     1     -10.139   5.249  70.604  1.00  0.00    -0.310 A  
HETATM    6  C   UNL     1      -9.501   4.282  69.811  1.00  0.00    -0.260 A  
HETATM    7  C   UNL     1      -9.149   3.065  70.415  1.00  0.00    -0.192 A  
HETATM    8  C   UNL     1      -9.154   4.591  68.359  1.00  0.00    -0.161 C  
HETATM    9  C   UNL     1      -9.839   5.880  67.881  1.00  0.00    -0.125 C  
HETATM   10  C   UNL     1      -7.639   4.872  68.239  1.00  0.00    -0.078 C  
HETATM   11  C   UNL     1      -9.533   3.439  67.412  1.00  0.00    -0.220 C  
HETATM   12  C   UNL     1      -9.474   2.815  71.752  1.00  0.00    -0.206 A  
HETATM   13  O   UNL     1     -10.222   6.062  66.728  1.00  0.00    -0.181 OA 
HETATM   14  N   UNL     1      -9.830   6.879  68.837  1.00  0.00    -0.146 N  
HETATM   15  O   UNL     1     -10.803   7.498  70.828  1.00  0.00    -0.233 OA 
HETATM   16  C   UNL     1     -10.304   6.639  70.108  1.00  0.00    -0.203 C  
BRANCH  14  17
HETATM   17  C   UNL     1      -9.553   8.235  68.420  1.00  0.00    -0.144 C  
BRANCH  17  18
HETATM   18  C   UNL     1     -10.656   8.967  67.656  1.00  0.00    -0.298 C  
BRANCH  18  19
HETATM   19  C   UNL     1     -10.362  10.455  67.547  1.00  0.00    -0.268 A  
HETATM   20  C   UNL     1      -9.338  11.067  68.290  1.00  0.00    -0.172 A  
HETATM   21  C   UNL     1      -9.124  12.443  68.222  1.00  0.00    -0.183 A  
HETATM   22  C   UNL     1      -9.915  13.217  67.380  1.00  0.00    -0.233 A  
HETATM   23  C   UNL     1     -11.131  11.249  66.684  1.00  0.00    -0.299 A  
HETATM   24  C   UNL     1     -10.918  12.628  66.610  1.00  0.00    -0.292 A  
BRANCH  22  25
HETATM   25  S   UNL     1      -9.664  14.971  67.339  1.00  0.00    -0.217 S  
HETATM   26  O   UNL     1      -8.478  15.270  66.564  1.00  0.00    -0.265 OA 
HETATM   27  O   UNL     1     -10.933  15.581  67.001  1.00  0.00    -0.321 OA 
BRANCH  25  28
HETATM   28  N   UNL     1      -9.408  15.358  68.933  1.00  0.00    -0.204 N  
HETATM   29  H   UNL     1      -8.451  15.315  69.285  1.00  0.00     0.000 HD 
BRANCH  28  30
HETATM   30  C   UNL     1     -10.401  15.734  69.815  1.00  0.00    -0.306 C  
HETATM   31  O   UNL     1     -10.669  16.893  70.089  1.00  0.00    -0.158 OA 
BRANCH  30  32
HETATM   32  N   UNL     1     -11.044  14.660  70.350  1.00  0.00    -0.479 N  
HETATM   33  H   UNL     1     -10.556  14.073  71.026  1.00  0.00     0.000 HD 
BRANCH  32  34
HETATM   34  C   UNL     1     -12.416  14.330  69.978  1.00  0.00    -0.300 C  
HETATM   35  C   UNL     1     -12.659  12.816  70.025  1.00  0.00     0.073 C  
HETATM   36  C   UNL     1     -12.580  12.275  71.451  1.00  0.00    -0.303 C  
HETATM   37  C   UNL     1     -13.512  13.022  72.402  1.00  0.00    -0.615 C  
HETATM   38  C   UNL     1     -13.357  14.540  72.326  1.00  0.00    -0.495 C  
HETATM   39  C   UNL     1     -13.412  15.054  70.888  1.00  0.00    -0.402 C  
ENDBRANCH  32  34
ENDBRANCH  30  32
ENDBRANCH  28  30
ENDBRANCH  25  28
ENDBRANCH  22  25
ENDBRANCH  18  19
ENDBRANCH  17  18
ENDBRANCH  14  17
ENDBRANCH   2   3
TORSDOF 9
ENDMDL
MODEL       97
REMARK 921   NORMALIZED FREE ENERGY PREDICTED BY IDOCK:   -5.35 KCAL/MOL
REMARK 922        TOTAL FREE ENERGY PREDICTED BY IDOCK:  -10.31 KCAL/MOL
REMARK 923 INTER-LIGAND FREE ENERGY PREDICTED BY IDOCK:   -8.06 KCAL/MOL
REMARK 924 INTRA-LIGAND FREE ENERGY PREDICTED BY IDOCK:   -2.25 KCAL/MOL
REMARK 927      BINDING AFFINITY PREDICTED BY RF-SCORE:    0.00 PKD
ROOT
HETATM    1  C   UNL     1      -8.623  19.796  66.712  1.00  0.00    -0.327 C  
HETATM    2  O   UNL     1      -9.384  18.959  65.846  1.00  0.00    -0.454 OA 
ENDROOT
BRANCH   2   3
HETATM    3  C   UNL     1      -9.702  17.729  66.350  1.00  0.00    -0.308 A  
HETATM    4  C   UNL     1     -10.485  16.782  65.701  1.00  0.00    -0.284 A  
HETATM    5  C   UNL     1     -10.708  15.532  66.295  1.00  0.00    -0.307 A  
HETATM    6  C   UNL     1     -10.200  15.228  67.568  1.00  0.00    -0.239 A  
HETATM    7  C   UNL     1      -9.379  16.179  68.192  1.00  0.00    -0.201 A  
HETATM    8  C   UNL     1     -10.491  13.873  68.204  1.00  0.00    -0.246 C  
HETATM    9  C   UNL     1     -11.583  13.115  67.433  1.00  0.00    -0.356 C  
HETATM   10  C   UNL     1      -9.235  12.977  68.109  1.00  0.00    -0.212 C  
HETATM   11  C   UNL     1     -10.912  14.002  69.679  1.00  0.00    -0.087 C  
HETATM   12  C   UNL     1      -9.123  17.410  67.578  1.00  0.00    -0.232 A  
HETATM   13  O   UNL     1     -12.393  12.360  67.965  1.00  0.00    -0.237 OA 
HETATM   14  N   UNL     1     -11.456  13.238  66.062  1.00  0.00    -0.319 N  
HETATM   15  O   UNL     1     -11.746  14.733  64.338  1.00  0.00    -0.391 OA 
HETATM   16  C   UNL     1     -11.361  14.481  65.475  1.00  0.00    -0.335 C  
BRANCH  14  17
HETATM   17  C   UNL     1     -11.674  12.071  65.238  1.00  0.00    -0.252 C  
BRANCH  17  18
HETATM   18  C   UNL     1     -10.459  11.498  64.508  1.00  0.00    -0.369 C  
BRANCH  18  19
HETATM   19  C   UNL     1      -9.596  10.662  65.440  1.00  0.00    -0.282 A  
HETATM   20  C   UNL     1      -8.205  10.554  65.268  1.00  0.00    -0.146 A  
HETATM   21  C   UNL     1      -7.439   9.734  66.095  1.00  0.00    -0.101 A  
HETATM   22  C   UNL     1      -8.057   9.038  67.129  1.00  0.00    -0.106 A  
HETATM   23  C   UNL     1     -10.195   9.974  66.504  1.00  0.00    -0.291 A  
HETATM   24  C   UNL     1      -9.431   9.154  67.339  1.00  0.00    -0.177 A  
BRANCH  22  25
HETATM   25  S   UNL     1      -7.079   7.962  68.143  1.00  0.00    -0.091 S  
HETATM   26  O   UNL     1      -6.675   6.807  67.370  1.00  0.00    -0.061 OA 
HETATM   27  O   UNL     1      -6.088   8.781  68.811  1.00  0.00    -0.044 OA 
BRANCH  25  28
HETATM   28  N   UNL     1      -8.136   7.499  69.337  1.00  0.00    -0.126 N  
HETATM   29  H   UNL     1      -8.802   8.193  69.678  1.00  0.00     0.000 HD 
BRANCH  28  30
HETATM   30  C   UNL     1      -8.175   6.239  69.899  1.00  0.00    -0.121 C  
HETATM   31  O   UNL     1      -8.083   6.021  71.097  1.00  0.00    -0.117 OA 
BRANCH  30  32
HETATM   32  N   UNL     1      -8.323   5.264  68.961  1.00  0.00    -0.095 N  
HETATM   33  H   UNL     1      -7.506   4.943  68.443  1.00  0.00     0.000 HD 
BRANCH  32  34
HETATM   34  C   UNL     1      -9.625   4.668  68.679  1.00  0.00    -0.162 C  
HETATM   35  C   UNL     1     -10.462   5.562  67.756  1.00  0.00    -0.245 C  
HETATM   36  C   UNL     1      -9.851   5.660  66.359  1.00  0.00    -0.184 C  
HETATM   37  C   UNL     1      -9.609   4.286  65.740  1.00  0.00    -0.189 C  
HETATM   38  C   UNL     1      -8.847   3.337  66.663  1.00  0.00    -0.150 C  
HETATM   39  C   UNL     1      -9.460   3.277  68.062  1.00  0.00    -0.217 C  
ENDBRANCH  32  34
ENDBRANCH  30  32
ENDBRANCH  28  30
ENDBRANCH  25  28
ENDBRANCH  22  25
ENDBRANCH  18  19
ENDBRANCH  17  18
ENDBRANCH  14  17
ENDBRANCH   2   3
TORSDOF 9
ENDMDL
MODEL       98
REMARK 921   NORMALIZED FREE ENERGY PREDICTED BY IDOCK:   -5.34 KCAL/MOL
REMARK 922        TOTAL FREE ENERGY PREDICTED BY IDOCK:  -10.30 KCAL/MOL
REMARK 923 INTER-LIGAND FREE ENERGY PREDICTED BY IDOCK:   -8.43 KCAL/MOL
REMARK 924 INTRA-LIGAND FREE ENERGY PREDICTED BY IDOCK:   -1.87 KCAL/MOL
REMARK 927      BINDING AFFINITY PREDICTED BY RF-SCORE:    0.00 PKD
ROOT
HETATM    1  C   UNL     1     -12.288   8.529  72.298  1.00  0.00    -0.387 C  
HETATM    2  O   UNL     1     -12.065   8.278  70.912  1.00  0.00    -0.253 OA 
ENDROOT
BRANCH   2   3
HETATM    3  C   UNL     1     -11.391   7.123  70.628  1.00  0.00    -0.292 A  
HETATM    4  C   UNL     1     -11.263   6.569  69.360  1.00  0.00    -0.418 A  
HETATM    5  C   UNL     1     -10.508   5.402  69.179  1.00  0.00    -0.277 A  
HETATM    6  C   UNL     1      -9.915   4.740  70.267  1.00  0.00    -0.320 A  
HETATM    7  C   UNL     1     -10.021   5.333  71.533  1.00  0.00    -0.241 A  
HETATM    8  C   UNL     1      -9.131   3.452  70.043  1.00  0.00    -0.199 C  
HETATM    9  C   UNL     1      -9.355   2.898  68.627  1.00  0.00    -0.174 C  
HETATM   10  C   UNL     1      -7.617   3.748  70.124  1.00  0.00    -0.048 C  
HETATM   11  C   UNL     1      -9.492   2.366  71.071  1.00  0.00    -0.219 C  
HETATM   12  C   UNL     1     -10.740   6.521  71.705  1.00  0.00    -0.267 A  
HETATM   13  O   UNL     1      -9.365   1.699  68.357  1.00  0.00    -0.156 OA 
HETATM   14  N   UNL     1      -9.379   3.887  67.661  1.00  0.00    -0.175 N  
HETATM   15  O   UNL     1     -10.684   5.593  66.838  1.00  0.00    -0.283 OA 
HETATM   16  C   UNL     1     -10.217   4.973  67.788  1.00  0.00    -0.096 C  
BRANCH  14  17
HETATM   17  C   UNL     1      -8.702   3.647  66.406  1.00  0.00    -0.121 C  
BRANCH  17  18
HETATM   18  C   UNL     1      -7.319   4.273  66.231  1.00  0.00    -0.080 C  
BRANCH  18  19
HETATM   19  C   UNL     1      -7.403   5.617  65.525  1.00  0.00    -0.073 A  
HETATM   20  C   UNL     1      -6.893   6.793  66.101  1.00  0.00    -0.060 A  
HETATM   21  C   UNL     1      -7.035   8.026  65.466  1.00  0.00    -0.059 A  
HETATM   22  C   UNL     1      -7.660   8.087  64.225  1.00  0.00    -0.118 A  
HETATM   23  C   UNL     1      -8.006   5.696  64.262  1.00  0.00    -0.125 A  
HETATM   24  C   UNL     1      -8.147   6.929  63.618  1.00  0.00     0.005 A  
BRANCH  22  25
HETATM   25  S   UNL     1      -7.876   9.666  63.450  1.00  0.00    -0.147 S  
HETATM   26  O   UNL     1      -6.648  10.049  62.786  1.00  0.00    -0.114 OA 
HETATM   27  O   UNL     1      -9.123   9.619  62.713  1.00  0.00    -0.262 OA 
BRANCH  25  28
HETATM   28  N   UNL     1      -8.167  10.683  64.729  1.00  0.00    -0.335 N  
HETATM   29  H   UNL     1      -7.443  11.360  64.972  1.00  0.00     0.000 HD 
BRANCH  28  30
HETATM   30  C   UNL     1      -9.321  10.676  65.486  1.00  0.00    -0.205 C  
HETATM   31  O   UNL     1      -9.376  10.296  66.644  1.00  0.00    -0.156 OA 
BRANCH  30  32
HETATM   32  N   UNL     1     -10.395  11.137  64.787  1.00  0.00    -0.306 N  
HETATM   33  H   UNL     1     -11.204  10.529  64.660  1.00  0.00     0.000 HD 
BRANCH  32  34
HETATM   34  C   UNL     1     -10.414  12.479  64.218  1.00  0.00    -0.378 C  
HETATM   35  C   UNL     1     -11.741  12.764  63.502  1.00  0.00    -0.597 C  
HETATM   36  C   UNL     1     -12.911  12.821  64.482  1.00  0.00    -0.323 C  
HETATM   37  C   UNL     1     -12.662  13.811  65.618  1.00  0.00    -0.523 C  
HETATM   38  C   UNL     1     -11.312  13.612  66.305  1.00  0.00    -0.325 C  
HETATM   39  C   UNL     1     -10.161  13.530  65.302  1.00  0.00    -0.323 C  
ENDBRANCH  32  34
ENDBRANCH  30  32
ENDBRANCH  28  30
ENDBRANCH  25  28
ENDBRANCH  22  25
ENDBRANCH  18  19
ENDBRANCH  17  18
ENDBRANCH  14  17
ENDBRANCH   2   3
TORSDOF 9
ENDMDL
MODEL       99
REMARK 921   NORMALIZED FREE ENERGY PREDICTED BY IDOCK:   -5.34 KCAL/MOL
REMARK 922        TOTAL FREE ENERGY PREDICTED BY IDOCK:  -10.29 KCAL/MOL
REMARK 923 INTER-LIGAND FREE ENERGY PREDICTED BY IDOCK:   -8.17 KCAL/MOL
REMARK 924 INTRA-LIGAND FREE ENERGY PREDICTED BY IDOCK:   -2.12 KCAL/MOL
REMARK 927      BINDING AFFINITY PREDICTED BY RF-SCORE:    0.00 PKD
ROOT
HETATM    1  C   UNL     1     -13.989  14.300  72.025  1.00  0.00    -0.504 C  
HETATM    2  O   UNL     1     -13.474  13.060  71.548  1.00  0.00    -0.273 OA 
ENDROOT
BRANCH   2   3
HETATM    3  C   UNL     1     -12.531  13.158  70.564  1.00  0.00    -0.248 A  
HETATM    4  C   UNL     1     -12.138  12.117  69.732  1.00  0.00    -0.306 A  
HETATM    5  C   UNL     1     -11.191  12.344  68.724  1.00  0.00    -0.318 A  
HETATM    6  C   UNL     1     -10.580  13.599  68.566  1.00  0.00    -0.259 A  
HETATM    7  C   UNL     1     -11.016  14.649  69.388  1.00  0.00    -0.279 A  
HETATM    8  C   UNL     1      -9.526  13.805  67.484  1.00  0.00    -0.220 C  
HETATM    9  C   UNL     1      -9.069  12.467  66.884  1.00  0.00    -0.211 C  
HETATM   10  C   UNL     1     -10.144  14.586  66.303  1.00  0.00    -0.308 C  
HETATM   11  C   UNL     1      -8.297  14.568  68.009  1.00  0.00    -0.153 C  
HETATM   12  C   UNL     1     -11.993  14.430  70.365  1.00  0.00    -0.395 A  
HETATM   13  O   UNL     1      -7.928  12.255  66.479  1.00  0.00     0.021 OA 
HETATM   14  N   UNL     1     -10.113  11.580  66.692  1.00  0.00    -0.206 N  
HETATM   15  O   UNL     1     -11.552  10.195  67.832  1.00  0.00    -0.256 OA 
HETATM   16  C   UNL     1     -10.967  11.267  67.726  1.00  0.00    -0.252 C  
BRANCH  14  17
HETATM   17  C   UNL     1     -10.146  10.802  65.475  1.00  0.00    -0.274 C  
BRANCH  17  18
HETATM   18  C   UNL     1      -8.893   9.996  65.130  1.00  0.00    -0.207 C  
BRANCH  18  19
HETATM   19  C   UNL     1      -8.672   8.864  66.120  1.00  0.00    -0.177 A  
HETATM   20  C   UNL     1      -7.696   8.939  67.130  1.00  0.00    -0.095 A  
HETATM   21  C   UNL     1      -7.467   7.865  67.990  1.00  0.00    -0.108 A  
HETATM   22  C   UNL     1      -8.239   6.716  67.868  1.00  0.00    -0.120 A  
HETATM   23  C   UNL     1      -9.458   7.706  66.033  1.00  0.00    -0.033 A  
HETATM   24  C   UNL     1      -9.235   6.629  66.895  1.00  0.00    -0.158 A  
BRANCH  22  25
HETATM   25  S   UNL     1      -7.905   5.341  68.936  1.00  0.00    -0.083 S  
HETATM   26  O   UNL     1      -7.161   4.335  68.208  1.00  0.00    -0.057 OA 
HETATM   27  O   UNL     1      -7.391   5.875  70.181  1.00  0.00    -0.073 OA 
BRANCH  25  28
HETATM   28  N   UNL     1      -9.419   4.766  69.304  1.00  0.00    -0.139 N  
HETATM   29  H   UNL     1     -10.070   4.615  68.534  1.00  0.00     0.000 HD 
BRANCH  28  30
HETATM   30  C   UNL     1      -9.856   4.478  70.582  1.00  0.00    -0.222 C  
HETATM   31  O   UNL     1      -9.930   3.349  71.040  1.00  0.00    -0.128 OA 
BRANCH  30  32
HETATM   32  N   UNL     1     -10.201   5.600  71.270  1.00  0.00    -0.212 N  
HETATM   33  H   UNL     1      -9.611   5.914  72.041  1.00  0.00     0.000 HD 
BRANCH  32  34
HETATM   34  C   UNL     1     -11.396   6.365  70.930  1.00  0.00    -0.338 C  
HETATM   35  C   UNL     1     -12.034   6.990  72.177  1.00  0.00    -0.299 C  
HETATM   36  C   UNL     1     -11.137   8.062  72.794  1.00  0.00    -0.448 C  
HETATM   37  C   UNL     1     -10.733   9.128  71.778  1.00  0.00    -0.405 C  
HETATM   38  C   UNL     1     -10.167   8.542  70.485  1.00  0.00    -0.220 C  
HETATM   39  C   UNL     1     -11.067   7.452  69.903  1.00  0.00    -0.208 C  
ENDBRANCH  32  34
ENDBRANCH  30  32
ENDBRANCH  28  30
ENDBRANCH  25  28
ENDBRANCH  22  25
ENDBRANCH  18  19
ENDBRANCH  17  18
ENDBRANCH  14  17
ENDBRANCH   2   3
TORSDOF 9
ENDMDL
MODEL      100
REMARK 921   NORMALIZED FREE ENERGY PREDICTED BY IDOCK:   -5.34 KCAL/MOL
REMARK 922        TOTAL FREE ENERGY PREDICTED BY IDOCK:  -10.29 KCAL/MOL
REMARK 923 INTER-LIGAND FREE ENERGY PREDICTED BY IDOCK:   -9.04 KCAL/MOL
REMARK 924 INTRA-LIGAND FREE ENERGY PREDICTED BY IDOCK:   -1.25 KCAL/MOL
REMARK 927      BINDING AFFINITY PREDICTED BY RF-SCORE:    0.00 PKD
ROOT
HETATM    1  C   UNL     1     -10.059  11.164  63.383  1.00  0.00    -0.390 C  
HETATM    2  O   UNL     1     -10.995  12.236  63.454  1.00  0.00    -0.441 OA 
ENDROOT
BRANCH   2   3
HETATM    3  C   UNL     1     -11.044  12.892  64.652  1.00  0.00    -0.324 A  
HETATM    4  C   UNL     1     -11.589  12.374  65.821  1.00  0.00    -0.449 A  
HETATM    5  C   UNL     1     -11.543  13.120  67.006  1.00  0.00    -0.408 A  
HETATM    6  C   UNL     1     -11.002  14.416  67.032  1.00  0.00    -0.304 A  
HETATM    7  C   UNL     1     -10.420  14.908  65.854  1.00  0.00    -0.327 A  
HETATM    8  C   UNL     1     -11.000  15.218  68.329  1.00  0.00    -0.276 C  
HETATM    9  C   UNL     1     -11.885  14.558  69.397  1.00  0.00    -0.325 C  
HETATM   10  C   UNL     1      -9.577  15.221  68.932  1.00  0.00    -0.220 C  
HETATM   11  C   UNL     1     -11.464  16.669  68.115  1.00  0.00     0.042 C  
HETATM   12  C   UNL     1     -10.430  14.144  64.683  1.00  0.00    -0.366 A  
HETATM   13  O   UNL     1     -12.520  15.188  70.241  1.00  0.00    -0.338 OA 
HETATM   14  N   UNL     1     -11.766  13.181  69.419  1.00  0.00    -0.312 N  
HETATM   15  O   UNL     1     -12.347  11.288  68.249  1.00  0.00    -0.542 OA 
HETATM   16  C   UNL     1     -11.936  12.443  68.268  1.00  0.00    -0.214 C  
BRANCH  14  17
HETATM   17  C   UNL     1     -11.708  12.511  70.698  1.00  0.00     0.295 C  
BRANCH  17  18
HETATM   18  C   UNL     1     -12.901  11.633  71.077  1.00  0.00    -0.339 C  
BRANCH  18  19
HETATM   19  C   UNL     1     -12.491  10.177  71.234  1.00  0.00    -0.510 A  
HETATM   20  C   UNL     1     -13.408   9.184  71.621  1.00  0.00    -0.444 A  
HETATM   21  C   UNL     1     -12.999   7.866  71.818  1.00  0.00    -0.351 A  
HETATM   22  C   UNL     1     -11.670   7.521  71.595  1.00  0.00    -0.282 A  
HETATM   23  C   UNL     1     -11.162   9.804  70.988  1.00  0.00    -0.451 A  
HETATM   24  C   UNL     1     -10.748   8.483  71.181  1.00  0.00    -0.290 A  
BRANCH  22  25
HETATM   25  S   UNL     1     -11.154   5.852  71.896  1.00  0.00    -0.253 S  
HETATM   26  O   UNL     1     -12.130   5.190  72.735  1.00  0.00    -0.132 OA 
HETATM   27  O   UNL     1     -10.777   5.281  70.619  1.00  0.00    -0.230 OA 
BRANCH  25  28
HETATM   28  N   UNL     1      -9.729   6.037  72.726  1.00  0.00    -0.156 N  
HETATM   29  H   UNL     1      -9.774   6.427  73.668  1.00  0.00     0.000 HD 
BRANCH  28  30
HETATM   30  C   UNL     1      -8.485   5.699  72.229  1.00  0.00    -0.119 C  
HETATM   31  O   UNL     1      -7.828   4.748  72.622  1.00  0.00    -0.090 OA 
BRANCH  30  32
HETATM   32  N   UNL     1      -8.074   6.553  71.253  1.00  0.00    -0.112 N  
HETATM   33  H   UNL     1      -8.749   6.883  70.563  1.00  0.00     0.000 HD 
BRANCH  32  34
HETATM   34  C   UNL     1      -6.691   7.009  71.172  1.00  0.00    -0.056 C  
HETATM   35  C   UNL     1      -6.157   6.924  69.736  1.00  0.00    -0.030 C  
HETATM   36  C   UNL     1      -6.868   7.909  68.810  1.00  0.00    -0.062 C  
HETATM   37  C   UNL     1      -6.818   9.339  69.343  1.00  0.00    -0.049 C  
HETATM   38  C   UNL     1      -7.265   9.453  70.800  1.00  0.00    -0.123 C  
HETATM   39  C   UNL     1      -6.561   8.440  71.701  1.00  0.00    -0.067 C  
ENDBRANCH  32  34
ENDBRANCH  30  32
ENDBRANCH  28  30
ENDBRANCH  25  28
ENDBRANCH  22  25
ENDBRANCH  18  19
ENDBRANCH  17  18
ENDBRANCH  14  17
ENDBRANCH   2   3
TORSDOF 9
ENDMDL
MODEL      101
REMARK 921   NORMALIZED FREE ENERGY PREDICTED BY IDOCK:   -5.32 KCAL/MOL
REMARK 922        TOTAL FREE ENERGY PREDICTED BY IDOCK:  -10.26 KCAL/MOL
REMARK 923 INTER-LIGAND FREE ENERGY PREDICTED BY IDOCK:   -7.77 KCAL/MOL
REMARK 924 INTRA-LIGAND FREE ENERGY PREDICTED BY IDOCK:   -2.49 KCAL/MOL
REMARK 927      BINDING AFFINITY PREDICTED BY RF-SCORE:    0.00 PKD
ROOT
HETATM    1  C   UNL     1     -12.208   8.500  72.403  1.00  0.00    -0.366 C  
HETATM    2  O   UNL     1     -12.274   8.276  70.997  1.00  0.00    -0.275 OA 
ENDROOT
BRANCH   2   3
HETATM    3  C   UNL     1     -11.575   7.192  70.545  1.00  0.00    -0.290 A  
HETATM    4  C   UNL     1     -11.492   6.799  69.214  1.00  0.00    -0.162 A  
HETATM    5  C   UNL     1     -10.708   5.693  68.858  1.00  0.00    -0.280 A  
HETATM    6  C   UNL     1     -10.038   4.930  69.829  1.00  0.00    -0.319 A  
HETATM    7  C   UNL     1     -10.101   5.363  71.162  1.00  0.00    -0.276 A  
HETATM    8  C   UNL     1      -9.223   3.710  69.415  1.00  0.00    -0.225 C  
HETATM    9  C   UNL     1      -9.498   3.322  67.954  1.00  0.00    -0.164 C  
HETATM   10  C   UNL     1      -7.718   4.056  69.462  1.00  0.00    -0.053 C  
HETATM   11  C   UNL     1      -9.493   2.496  70.320  1.00  0.00    -0.164 C  
HETATM   12  C   UNL     1     -10.851   6.492  71.509  1.00  0.00    -0.288 A  
HETATM   13  O   UNL     1      -9.480   2.164  67.542  1.00  0.00    -0.136 OA 
HETATM   14  N   UNL     1      -9.604   4.417  67.118  1.00  0.00    -0.182 N  
HETATM   15  O   UNL     1     -11.007   6.155  66.569  1.00  0.00    -0.242 OA 
HETATM   16  C   UNL     1     -10.472   5.445  67.414  1.00  0.00    -0.189 C  
BRANCH  14  17
HETATM   17  C   UNL     1      -8.984   4.356  65.814  1.00  0.00    -0.129 C  
BRANCH  17  18
HETATM   18  C   UNL     1      -7.598   4.985  65.672  1.00  0.00    -0.086 C  
BRANCH  18  19
HETATM   19  C   UNL     1      -7.629   6.473  65.984  1.00  0.00    -0.087 A  
HETATM   20  C   UNL     1      -7.175   6.985  67.212  1.00  0.00    -0.089 A  
HETATM   21  C   UNL     1      -7.269   8.345  67.503  1.00  0.00    -0.088 A  
HETATM   22  C   UNL     1      -7.787   9.214  66.549  1.00  0.00    -0.100 A  
HETATM   23  C   UNL     1      -8.123   7.369  65.026  1.00  0.00    -0.122 A  
HETATM   24  C   UNL     1      -8.215   8.734  65.310  1.00  0.00    -0.145 A  
BRANCH  22  25
HETATM   25  S   UNL     1      -7.944  10.934  66.948  1.00  0.00    -0.144 S  
HETATM   26  O   UNL     1      -6.635  11.552  66.940  1.00  0.00    -0.124 OA 
HETATM   27  O   UNL     1      -9.014  11.471  66.132  1.00  0.00    -0.207 OA 
BRANCH  25  28
HETATM   28  N   UNL     1      -8.548  10.913  68.494  1.00  0.00    -0.145 N  
HETATM   29  H   UNL     1      -7.908  10.674  69.252  1.00  0.00     0.000 HD 
BRANCH  28  30
HETATM   30  C   UNL     1      -9.859  11.197  68.825  1.00  0.00    -0.192 C  
HETATM   31  O   UNL     1     -10.737  10.355  68.920  1.00  0.00    -0.197 OA 
BRANCH  30  32
HETATM   32  N   UNL     1     -10.059  12.528  69.027  1.00  0.00    -0.421 N  
HETATM   33  H   UNL     1      -9.256  13.131  69.209  1.00  0.00     0.000 HD 
BRANCH  32  34
HETATM   34  C   UNL     1     -11.395  13.113  68.989  1.00  0.00    -0.282 C  
HETATM   35  C   UNL     1     -11.437  14.461  69.719  1.00  0.00    -0.328 C  
HETATM   36  C   UNL     1     -10.608  15.521  68.997  1.00  0.00    -0.246 C  
HETATM   37  C   UNL     1     -11.010  15.665  67.531  1.00  0.00    -0.309 C  
HETATM   38  C   UNL     1     -11.059  14.332  66.787  1.00  0.00    -0.316 C  
HETATM   39  C   UNL     1     -11.870  13.280  67.543  1.00  0.00    -0.403 C  
ENDBRANCH  32  34
ENDBRANCH  30  32
ENDBRANCH  28  30
ENDBRANCH  25  28
ENDBRANCH  22  25
ENDBRANCH  18  19
ENDBRANCH  17  18
ENDBRANCH  14  17
ENDBRANCH   2   3
TORSDOF 9
ENDMDL
MODEL      102
REMARK 921   NORMALIZED FREE ENERGY PREDICTED BY IDOCK:   -5.31 KCAL/MOL
REMARK 922        TOTAL FREE ENERGY PREDICTED BY IDOCK:  -10.26 KCAL/MOL
REMARK 923 INTER-LIGAND FREE ENERGY PREDICTED BY IDOCK:   -8.80 KCAL/MOL
REMARK 924 INTRA-LIGAND FREE ENERGY PREDICTED BY IDOCK:   -1.46 KCAL/MOL
REMARK 927      BINDING AFFINITY PREDICTED BY RF-SCORE:    0.00 PKD
ROOT
HETATM    1  C   UNL     1      -6.764  20.907  67.571  1.00  0.00    -0.365 C  
HETATM    2  O   UNL     1      -7.074  20.344  66.299  1.00  0.00    -0.262 OA 
ENDROOT
BRANCH   2   3
HETATM    3  C   UNL     1      -7.764  19.165  66.334  1.00  0.00    -0.276 A  
HETATM    4  C   UNL     1      -7.191  17.914  66.530  1.00  0.00    -0.273 A  
HETATM    5  C   UNL     1      -8.004  16.773  66.593  1.00  0.00    -0.306 A  
HETATM    6  C   UNL     1      -9.394  16.856  66.407  1.00  0.00    -0.303 A  
HETATM    7  C   UNL     1      -9.960  18.130  66.250  1.00  0.00    -0.342 A  
HETATM    8  C   UNL     1     -10.247  15.593  66.445  1.00  0.00    -0.300 C  
HETATM    9  C   UNL     1      -9.377  14.328  66.401  1.00  0.00    -0.245 C  
HETATM   10  C   UNL     1     -10.999  15.518  67.792  1.00  0.00    -0.317 C  
HETATM   11  C   UNL     1     -11.264  15.545  65.291  1.00  0.00    -0.278 C  
HETATM   12  C   UNL     1      -9.151  19.271  66.229  1.00  0.00    -0.354 A  
HETATM   13  O   UNL     1      -9.723  13.281  65.859  1.00  0.00    -0.255 OA 
HETATM   14  N   UNL     1      -8.237  14.433  67.177  1.00  0.00    -0.201 N  
HETATM   15  O   UNL     1      -6.173  15.444  67.245  1.00  0.00    -0.317 OA 
HETATM   16  C   UNL     1      -7.377  15.497  67.021  1.00  0.00    -0.137 C  
BRANCH  14  17
HETATM   17  C   UNL     1      -7.832  13.295  67.971  1.00  0.00    -0.148 C  
BRANCH  17  18
HETATM   18  C   UNL     1      -7.399  12.038  67.216  1.00  0.00    -0.151 C  
BRANCH  18  19
HETATM   19  C   UNL     1      -7.749  10.778  67.991  1.00  0.00    -0.101 A  
HETATM   20  C   UNL     1      -8.189   9.608  67.348  1.00  0.00    -0.114 A  
HETATM   21  C   UNL     1      -8.564   8.481  68.080  1.00  0.00    -0.134 A  
HETATM   22  C   UNL     1      -8.466   8.505  69.467  1.00  0.00    -0.127 A  
HETATM   23  C   UNL     1      -7.633  10.771  69.388  1.00  0.00    -0.114 A  
HETATM   24  C   UNL     1      -8.003   9.644  70.126  1.00  0.00    -0.189 A  
BRANCH  22  25
HETATM   25  S   UNL     1      -8.990   7.084  70.388  1.00  0.00    -0.156 S  
HETATM   26  O   UNL     1     -10.122   6.471  69.726  1.00  0.00    -0.173 OA 
HETATM   27  O   UNL     1      -7.807   6.304  70.689  1.00  0.00    -0.102 OA 
BRANCH  25  28
HETATM   28  N   UNL     1      -9.467   7.726  71.843  1.00  0.00    -0.148 N  
HETATM   29  H   UNL     1      -8.778   8.253  72.379  1.00  0.00     0.000 HD 
BRANCH  28  30
HETATM   30  C   UNL     1     -10.734   7.596  72.376  1.00  0.00    -0.280 C  
HETATM   31  O   UNL     1     -11.161   6.571  72.881  1.00  0.00    -0.242 OA 
BRANCH  30  32
HETATM   32  N   UNL     1     -11.456   8.745  72.267  1.00  0.00    -0.351 N  
HETATM   33  H   UNL     1     -11.284   9.506  72.924  1.00  0.00     0.000 HD 
BRANCH  32  34
HETATM   34  C   UNL     1     -12.469   8.913  71.231  1.00  0.00    -0.272 C  
HETATM   35  C   UNL     1     -13.575   9.877  71.681  1.00  0.00    -0.340 C  
HETATM   36  C   UNL     1     -13.050  11.303  71.843  1.00  0.00    -0.510 C  
HETATM   37  C   UNL     1     -12.348  11.803  70.583  1.00  0.00    -0.421 C  
HETATM   38  C   UNL     1     -11.294  10.832  70.055  1.00  0.00    -0.397 C  
HETATM   39  C   UNL     1     -11.834   9.408  69.929  1.00  0.00     0.201 C  
ENDBRANCH  32  34
ENDBRANCH  30  32
ENDBRANCH  28  30
ENDBRANCH  25  28
ENDBRANCH  22  25
ENDBRANCH  18  19
ENDBRANCH  17  18
ENDBRANCH  14  17
ENDBRANCH   2   3
TORSDOF 9
ENDMDL
MODEL      103
REMARK 921   NORMALIZED FREE ENERGY PREDICTED BY IDOCK:   -5.31 KCAL/MOL
REMARK 922        TOTAL FREE ENERGY PREDICTED BY IDOCK:  -10.25 KCAL/MOL
REMARK 923 INTER-LIGAND FREE ENERGY PREDICTED BY IDOCK:   -9.47 KCAL/MOL
REMARK 924 INTRA-LIGAND FREE ENERGY PREDICTED BY IDOCK:   -0.79 KCAL/MOL
REMARK 927      BINDING AFFINITY PREDICTED BY RF-SCORE:    0.00 PKD
ROOT
HETATM    1  C   UNL     1     -11.116   1.467  72.475  1.00  0.00     0.036 C  
HETATM    2  O   UNL     1     -10.559   2.323  73.469  1.00  0.00    -0.118 OA 
ENDROOT
BRANCH   2   3
HETATM    3  C   UNL     1     -10.459   3.640  73.118  1.00  0.00    -0.176 A  
HETATM    4  C   UNL     1     -10.193   4.102  71.835  1.00  0.00    -0.180 A  
HETATM    5  C   UNL     1     -10.158   5.480  71.579  1.00  0.00    -0.260 A  
HETATM    6  C   UNL     1     -10.334   6.418  72.610  1.00  0.00    -0.216 A  
HETATM    7  C   UNL     1     -10.642   5.935  73.891  1.00  0.00    -0.248 A  
HETATM    8  C   UNL     1     -10.254   7.910  72.308  1.00  0.00    -0.302 C  
HETATM    9  C   UNL     1      -9.689   8.168  70.903  1.00  0.00    -0.166 C  
HETATM   10  C   UNL     1     -11.678   8.509  72.285  1.00  0.00    -0.443 C  
HETATM   11  C   UNL     1      -9.401   8.667  73.342  1.00  0.00     0.395 C  
HETATM   12  C   UNL     1     -10.717   4.560  74.134  1.00  0.00    -0.319 A  
HETATM   13  O   UNL     1      -8.998   9.143  70.614  1.00  0.00    -0.205 OA 
HETATM   14  N   UNL     1     -10.172   7.282  69.959  1.00  0.00    -0.197 N  
HETATM   15  O   UNL     1     -10.001   5.097  69.261  1.00  0.00    -0.175 OA 
HETATM   16  C   UNL     1     -10.089   5.922  70.164  1.00  0.00    -0.202 C  
BRANCH  14  17
HETATM   17  C   UNL     1     -10.535   7.789  68.654  1.00  0.00    -0.172 C  
BRANCH  17  18
HETATM   18  C   UNL     1      -9.449   8.520  67.865  1.00  0.00    -0.157 C  
BRANCH  18  19
HETATM   19  C   UNL     1      -9.956   9.845  67.320  1.00  0.00    -0.245 A  
HETATM   20  C   UNL     1      -9.500  10.371  66.099  1.00  0.00    -0.227 A  
HETATM   21  C   UNL     1      -9.931  11.617  65.646  1.00  0.00    -0.274 A  
HETATM   22  C   UNL     1     -10.854  12.336  66.398  1.00  0.00    -0.264 A  
HETATM   23  C   UNL     1     -10.907  10.573  68.050  1.00  0.00    -0.312 A  
HETATM   24  C   UNL     1     -11.345  11.821  67.598  1.00  0.00    -0.370 A  
BRANCH  22  25
HETATM   25  S   UNL     1     -11.358  13.939  65.835  1.00  0.00    -0.320 S  
HETATM   26  O   UNL     1     -10.327  14.497  64.985  1.00  0.00    -0.404 OA 
HETATM   27  O   UNL     1     -12.719  13.820  65.355  1.00  0.00    -0.559 OA 
BRANCH  25  28
HETATM   28  N   UNL     1     -11.468  14.820  67.238  1.00  0.00    -0.361 N  
HETATM   29  H   UNL     1     -12.392  14.940  67.653  1.00  0.00     0.000 HD 
BRANCH  28  30
HETATM   30  C   UNL     1     -10.394  15.400  67.883  1.00  0.00    -0.247 C  
HETATM   31  O   UNL     1      -9.621  14.793  68.606  1.00  0.00    -0.207 OA 
BRANCH  30  32
HETATM   32  N   UNL     1     -10.300  16.733  67.622  1.00  0.00    -0.300 N  
HETATM   33  H   UNL     1     -10.828  17.127  66.844  1.00  0.00     0.000 HD 
BRANCH  32  34
HETATM   34  C   UNL     1      -9.463  17.611  68.432  1.00  0.00    -0.298 C  
HETATM   35  C   UNL     1      -8.069  17.781  67.815  1.00  0.00    -0.226 C  
HETATM   36  C   UNL     1      -8.127  18.537  66.488  1.00  0.00    -0.299 C  
HETATM   37  C   UNL     1      -8.849  19.875  66.620  1.00  0.00    -0.429 C  
HETATM   38  C   UNL     1     -10.210  19.760  67.306  1.00  0.00    -0.570 C  
HETATM   39  C   UNL     1     -10.131  18.977  68.616  1.00  0.00    -0.449 C  
ENDBRANCH  32  34
ENDBRANCH  30  32
ENDBRANCH  28  30
ENDBRANCH  25  28
ENDBRANCH  22  25
ENDBRANCH  18  19
ENDBRANCH  17  18
ENDBRANCH  14  17
ENDBRANCH   2   3
TORSDOF 9
ENDMDL
MODEL      104
REMARK 921   NORMALIZED FREE ENERGY PREDICTED BY IDOCK:   -5.24 KCAL/MOL
REMARK 922        TOTAL FREE ENERGY PREDICTED BY IDOCK:  -10.15 KCAL/MOL
REMARK 923 INTER-LIGAND FREE ENERGY PREDICTED BY IDOCK:   -7.61 KCAL/MOL
REMARK 924 INTRA-LIGAND FREE ENERGY PREDICTED BY IDOCK:   -2.54 KCAL/MOL
REMARK 927      BINDING AFFINITY PREDICTED BY RF-SCORE:    0.00 PKD
ROOT
HETATM    1  C   UNL     1     -11.749  12.275  62.957  1.00  0.00    -0.009 C  
HETATM    2  O   UNL     1     -12.184  13.508  63.525  1.00  0.00    -0.643 OA 
ENDROOT
BRANCH   2   3
HETATM    3  C   UNL     1     -12.055  13.603  64.883  1.00  0.00    -0.397 A  
HETATM    4  C   UNL     1     -12.075  12.526  65.761  1.00  0.00    -0.443 A  
HETATM    5  C   UNL     1     -11.887  12.738  67.134  1.00  0.00    -0.415 A  
HETATM    6  C   UNL     1     -11.732  14.032  67.658  1.00  0.00    -0.412 A  
HETATM    7  C   UNL     1     -11.674  15.103  66.754  1.00  0.00    -0.070 A  
HETATM    8  C   UNL     1     -11.567  14.233  69.160  1.00  0.00    -0.346 C  
HETATM    9  C   UNL     1     -11.890  12.948  69.937  1.00  0.00    -0.303 C  
HETATM   10  C   UNL     1     -10.086  14.535  69.481  1.00  0.00     0.071 C  
HETATM   11  C   UNL     1     -12.445  15.379  69.692  1.00  0.00    -0.171 C  
HETATM   12  C   UNL     1     -11.820  14.885  65.380  1.00  0.00    -0.188 A  
HETATM   13  O   UNL     1     -12.395  12.937  71.057  1.00  0.00    -0.351 OA 
HETATM   14  N   UNL     1     -11.404  11.810  69.320  1.00  0.00    -0.269 N  
HETATM   15  O   UNL     1     -11.769  10.419  67.525  1.00  0.00    -0.246 OA 
HETATM   16  C   UNL     1     -11.697  11.547  68.000  1.00  0.00    -0.273 C  
BRANCH  14  17
HETATM   17  C   UNL     1     -10.797  10.784  70.137  1.00  0.00    -0.080 C  
BRANCH  17  18
HETATM   18  C   UNL     1      -9.404  10.304  69.730  1.00  0.00    -0.116 C  
BRANCH  18  19
HETATM   19  C   UNL     1      -9.231   8.817  69.993  1.00  0.00    -0.173 A  
HETATM   20  C   UNL     1      -8.003   8.163  69.786  1.00  0.00    -0.111 A  
HETATM   21  C   UNL     1      -7.881   6.787  69.974  1.00  0.00    -0.111 A  
HETATM   22  C   UNL     1      -8.982   6.055  70.406  1.00  0.00    -0.149 A  
HETATM   23  C   UNL     1     -10.321   8.066  70.454  1.00  0.00    -0.206 A  
HETATM   24  C   UNL     1     -10.202   6.687  70.648  1.00  0.00    -0.215 A  
BRANCH  22  25
HETATM   25  S   UNL     1      -8.825   4.300  70.595  1.00  0.00    -0.093 S  
HETATM   26  O   UNL     1      -7.427   3.931  70.527  1.00  0.00    -0.041 OA 
HETATM   27  O   UNL     1      -9.630   3.915  71.736  1.00  0.00    -0.138 OA 
BRANCH  25  28
HETATM   28  N   UNL     1      -9.631   3.700  69.273  1.00  0.00    -0.167 N  
HETATM   29  H   UNL     1     -10.647   3.622  69.331  1.00  0.00     0.000 HD 
BRANCH  28  30
HETATM   30  C   UNL     1      -9.021   3.300  68.101  1.00  0.00    -0.142 C  
HETATM   31  O   UNL     1      -8.994   2.146  67.704  1.00  0.00    -0.124 OA 
BRANCH  30  32
HETATM   32  N   UNL     1      -8.445   4.342  67.442  1.00  0.00    -0.103 N  
HETATM   33  H   UNL     1      -7.674   4.845  67.881  1.00  0.00     0.000 HD 
BRANCH  32  34
HETATM   34  C   UNL     1      -8.906   4.757  66.122  1.00  0.00    -0.120 C  
HETATM   35  C   UNL     1     -10.344   5.289  66.172  1.00  0.00    -0.238 C  
HETATM   36  C   UNL     1     -10.436   6.594  66.962  1.00  0.00    -0.369 C  
HETATM   37  C   UNL     1      -9.465   7.650  66.442  1.00  0.00    -0.224 C  
HETATM   38  C   UNL     1      -8.034   7.134  66.299  1.00  0.00    -0.110 C  
HETATM   39  C   UNL     1      -7.971   5.815  65.530  1.00  0.00    -0.115 C  
ENDBRANCH  32  34
ENDBRANCH  30  32
ENDBRANCH  28  30
ENDBRANCH  25  28
ENDBRANCH  22  25
ENDBRANCH  18  19
ENDBRANCH  17  18
ENDBRANCH  14  17
ENDBRANCH   2   3
TORSDOF 9
ENDMDL
MODEL      105
REMARK 921   NORMALIZED FREE ENERGY PREDICTED BY IDOCK:   -5.24 KCAL/MOL
REMARK 922        TOTAL FREE ENERGY PREDICTED BY IDOCK:  -10.14 KCAL/MOL
REMARK 923 INTER-LIGAND FREE ENERGY PREDICTED BY IDOCK:   -6.60 KCAL/MOL
REMARK 924 INTRA-LIGAND FREE ENERGY PREDICTED BY IDOCK:   -3.54 KCAL/MOL
REMARK 927      BINDING AFFINITY PREDICTED BY RF-SCORE:    0.00 PKD
ROOT
HETATM    1  C   UNL     1     -10.803   3.935  64.445  1.00  0.00    -0.127 C  
HETATM    2  O   UNL     1      -9.678   3.986  65.319  1.00  0.00    -0.173 OA 
ENDROOT
BRANCH   2   3
HETATM    3  C   UNL     1      -9.928   4.485  66.566  1.00  0.00    -0.240 A  
HETATM    4  C   UNL     1      -9.495   3.909  67.754  1.00  0.00    -0.230 A  
HETATM    5  C   UNL     1      -9.772   4.534  68.978  1.00  0.00    -0.235 A  
HETATM    6  C   UNL     1     -10.531   5.714  69.039  1.00  0.00    -0.321 A  
HETATM    7  C   UNL     1     -10.926   6.304  67.829  1.00  0.00    -0.427 A  
HETATM    8  C   UNL     1     -10.847   6.351  70.388  1.00  0.00    -0.343 C  
HETATM    9  C   UNL     1     -10.505   5.404  71.548  1.00  0.00    -0.223 C  
HETATM   10  C   UNL     1      -9.946   7.588  70.598  1.00  0.00    -0.183 C  
HETATM   11  C   UNL     1     -12.323   6.772  70.499  1.00  0.00    -0.160 C  
HETATM   12  C   UNL     1     -10.612   5.700  66.607  1.00  0.00    -0.361 A  
HETATM   13  O   UNL     1     -11.133   5.365  72.604  1.00  0.00    -0.253 OA 
HETATM   14  N   UNL     1      -9.320   4.720  71.352  1.00  0.00    -0.142 N  
HETATM   15  O   UNL     1      -8.391   3.010  70.125  1.00  0.00    -0.044 OA 
HETATM   16  C   UNL     1      -9.106   4.003  70.195  1.00  0.00    -0.117 C  
BRANCH  14  17
HETATM   17  C   UNL     1      -8.418   4.560  72.470  1.00  0.00    -0.114 C  
BRANCH  17  18
HETATM   18  C   UNL     1      -6.939   4.856  72.219  1.00  0.00    -0.066 C  
BRANCH  18  19
HETATM   19  C   UNL     1      -6.734   6.281  71.728  1.00  0.00    -0.063 A  
HETATM   20  C   UNL     1      -6.869   7.388  72.583  1.00  0.00    -0.067 A  
HETATM   21  C   UNL     1      -6.737   8.690  72.101  1.00  0.00    -0.072 A  
HETATM   22  C   UNL     1      -6.433   8.894  70.760  1.00  0.00    -0.052 A  
HETATM   23  C   UNL     1      -6.401   6.507  70.385  1.00  0.00    -0.043 A  
HETATM   24  C   UNL     1      -6.263   7.809  69.898  1.00  0.00    -0.027 A  
BRANCH  22  25
HETATM   25  S   UNL     1      -6.315  10.554  70.149  1.00  0.00    -0.141 S  
HETATM   26  O   UNL     1      -5.951  11.441  71.234  1.00  0.00    -0.346 OA 
HETATM   27  O   UNL     1      -5.521  10.513  68.938  1.00  0.00    -0.042 OA 
BRANCH  25  28
HETATM   28  N   UNL     1      -7.860  10.886  69.643  1.00  0.00    -0.373 N  
HETATM   29  H   UNL     1      -8.624  10.700  70.294  1.00  0.00     0.000 HD 
BRANCH  28  30
HETATM   30  C   UNL     1      -8.183  11.397  68.402  1.00  0.00    -0.151 C  
HETATM   31  O   UNL     1      -8.676  12.499  68.223  1.00  0.00    -0.183 OA 
BRANCH  30  32
HETATM   32  N   UNL     1      -7.894  10.524  67.398  1.00  0.00    -0.106 N  
HETATM   33  H   UNL     1      -7.120  10.729  66.767  1.00  0.00     0.000 HD 
BRANCH  32  34
HETATM   34  C   UNL     1      -8.666   9.301  67.205  1.00  0.00    -0.128 C  
HETATM   35  C   UNL     1      -9.958   9.573  66.424  1.00  0.00    -0.339 C  
HETATM   36  C   UNL     1      -9.671   9.994  64.984  1.00  0.00    -0.386 C  
HETATM   37  C   UNL     1      -8.778   8.991  64.259  1.00  0.00    -0.140 C  
HETATM   38  C   UNL     1      -7.517   8.631  65.043  1.00  0.00    -0.088 C  
HETATM   39  C   UNL     1      -7.828   8.240  66.488  1.00  0.00    -0.093 C  
ENDBRANCH  32  34
ENDBRANCH  30  32
ENDBRANCH  28  30
ENDBRANCH  25  28
ENDBRANCH  22  25
ENDBRANCH  18  19
ENDBRANCH  17  18
ENDBRANCH  14  17
ENDBRANCH   2   3
TORSDOF 9
ENDMDL
MODEL      106
REMARK 921   NORMALIZED FREE ENERGY PREDICTED BY IDOCK:   -5.24 KCAL/MOL
REMARK 922        TOTAL FREE ENERGY PREDICTED BY IDOCK:  -10.14 KCAL/MOL
REMARK 923 INTER-LIGAND FREE ENERGY PREDICTED BY IDOCK:   -8.62 KCAL/MOL
REMARK 924 INTRA-LIGAND FREE ENERGY PREDICTED BY IDOCK:   -1.52 KCAL/MOL
REMARK 927      BINDING AFFINITY PREDICTED BY RF-SCORE:    0.00 PKD
ROOT
HETATM    1  C   UNL     1      -7.113  20.201  66.405  1.00  0.00    -0.265 C  
HETATM    2  O   UNL     1      -8.533  20.082  66.404  1.00  0.00    -0.324 OA 
ENDROOT
BRANCH   2   3
HETATM    3  C   UNL     1      -9.017  18.849  66.739  1.00  0.00    -0.313 A  
HETATM    4  C   UNL     1      -9.843  18.074  65.934  1.00  0.00    -0.053 A  
HETATM    5  C   UNL     1     -10.243  16.800  66.361  1.00  0.00    -0.329 A  
HETATM    6  C   UNL     1      -9.870  16.302  67.620  1.00  0.00    -0.238 A  
HETATM    7  C   UNL     1      -9.005  17.080  68.403  1.00  0.00    -0.247 A  
HETATM    8  C   UNL     1     -10.352  14.928  68.072  1.00  0.00    -0.244 C  
HETATM    9  C   UNL     1     -11.454  14.389  67.148  1.00  0.00    -0.362 C  
HETATM   10  C   UNL     1      -9.195  13.911  67.954  1.00  0.00    -0.198 C  
HETATM   11  C   UNL     1     -10.871  14.942  69.521  1.00  0.00    -0.272 C  
HETATM   12  C   UNL     1      -8.573  18.333  67.956  1.00  0.00    -0.280 A  
HETATM   13  O   UNL     1     -12.379  13.677  67.533  1.00  0.00    -0.279 OA 
HETATM   14  N   UNL     1     -11.209  14.646  65.812  1.00  0.00    -0.332 N  
HETATM   15  O   UNL     1     -11.203  16.343  64.260  1.00  0.00    -0.861 OA 
HETATM   16  C   UNL     1     -10.938  15.926  65.382  1.00  0.00    -0.285 C  
BRANCH  14  17
HETATM   17  C   UNL     1     -11.484  13.608  64.844  1.00  0.00    -0.340 C  
BRANCH  17  18
HETATM   18  C   UNL     1     -10.299  12.765  64.373  1.00  0.00    -0.388 C  
BRANCH  18  19
HETATM   19  C   UNL     1     -10.065  11.576  65.290  1.00  0.00    -0.314 A  
HETATM   20  C   UNL     1      -8.816  10.936  65.373  1.00  0.00    -0.192 A  
HETATM   21  C   UNL     1      -8.637   9.808  66.174  1.00  0.00    -0.138 A  
HETATM   22  C   UNL     1      -9.702   9.331  66.930  1.00  0.00    -0.190 A  
HETATM   23  C   UNL     1     -11.118  11.095  66.080  1.00  0.00    -0.152 A  
HETATM   24  C   UNL     1     -10.943   9.968  66.888  1.00  0.00    -0.070 A  
BRANCH  22  25
HETATM   25  S   UNL     1      -9.475   7.870  67.907  1.00  0.00    -0.147 S  
HETATM   26  O   UNL     1     -10.726   7.518  68.545  1.00  0.00    -0.170 OA 
HETATM   27  O   UNL     1      -8.775   6.905  67.084  1.00  0.00    -0.119 OA 
BRANCH  25  28
HETATM   28  N   UNL     1      -8.372   8.345  69.053  1.00  0.00    -0.118 N  
HETATM   29  H   UNL     1      -7.419   7.990  68.972  1.00  0.00     0.000 HD 
BRANCH  28  30
HETATM   30  C   UNL     1      -8.656   9.188  70.109  1.00  0.00    -0.182 C  
HETATM   31  O   UNL     1      -9.557  10.010  70.103  1.00  0.00    -0.225 OA 
BRANCH  30  32
HETATM   32  N   UNL     1      -7.808   8.999  71.157  1.00  0.00    -0.137 N  
HETATM   33  H   UNL     1      -7.452   9.811  71.662  1.00  0.00     0.000 HD 
BRANCH  32  34
HETATM   34  C   UNL     1      -7.398   7.663  71.574  1.00  0.00    -0.071 C  
HETATM   35  C   UNL     1      -6.100   7.706  72.391  1.00  0.00    -0.040 C  
HETATM   36  C   UNL     1      -6.300   8.408  73.733  1.00  0.00    -0.134 C  
HETATM   37  C   UNL     1      -7.447   7.799  74.535  1.00  0.00    -0.200 C  
HETATM   38  C   UNL     1      -8.739   7.663  73.730  1.00  0.00    -0.290 C  
HETATM   39  C   UNL     1      -8.508   6.984  72.380  1.00  0.00    -0.122 C  
ENDBRANCH  32  34
ENDBRANCH  30  32
ENDBRANCH  28  30
ENDBRANCH  25  28
ENDBRANCH  22  25
ENDBRANCH  18  19
ENDBRANCH  17  18
ENDBRANCH  14  17
ENDBRANCH   2   3
TORSDOF 9
ENDMDL
MODEL      107
REMARK 921   NORMALIZED FREE ENERGY PREDICTED BY IDOCK:   -5.23 KCAL/MOL
REMARK 922        TOTAL FREE ENERGY PREDICTED BY IDOCK:  -10.13 KCAL/MOL
REMARK 923 INTER-LIGAND FREE ENERGY PREDICTED BY IDOCK:   -8.29 KCAL/MOL
REMARK 924 INTRA-LIGAND FREE ENERGY PREDICTED BY IDOCK:   -1.84 KCAL/MOL
REMARK 927      BINDING AFFINITY PREDICTED BY RF-SCORE:    0.00 PKD
ROOT
HETATM    1  C   UNL     1     -10.267   3.630  63.635  1.00  0.00    -0.216 C  
HETATM    2  O   UNL     1      -9.307   3.606  64.688  1.00  0.00    -0.134 OA 
ENDROOT
BRANCH   2   3
HETATM    3  C   UNL     1      -9.414   4.618  65.601  1.00  0.00    -0.174 A  
HETATM    4  C   UNL     1      -8.349   5.369  66.084  1.00  0.00    -0.117 A  
HETATM    5  C   UNL     1      -8.582   6.416  66.986  1.00  0.00    -0.112 A  
HETATM    6  C   UNL     1      -9.874   6.695  67.462  1.00  0.00    -0.158 A  
HETATM    7  C   UNL     1     -10.942   5.955  66.934  1.00  0.00    -0.304 A  
HETATM    8  C   UNL     1     -10.091   7.817  68.471  1.00  0.00    -0.216 C  
HETATM    9  C   UNL     1      -8.759   8.313  69.053  1.00  0.00    -0.143 C  
HETATM   10  C   UNL     1     -10.700   9.044  67.756  1.00  0.00    -0.217 C  
HETATM   11  C   UNL     1     -11.017   7.390  69.624  1.00  0.00    -0.186 C  
HETATM   12  C   UNL     1     -10.711   4.938  66.001  1.00  0.00    -0.247 A  
HETATM   13  O   UNL     1      -8.629   8.728  70.203  1.00  0.00    -0.130 OA 
HETATM   14  N   UNL     1      -7.758   8.402  68.103  1.00  0.00    -0.101 N  
HETATM   15  O   UNL     1      -6.338   7.114  66.833  1.00  0.00    -0.046 OA 
HETATM   16  C   UNL     1      -7.451   7.324  67.303  1.00  0.00    -0.099 C  
BRANCH  14  17
HETATM   17  C   UNL     1      -6.877   9.548  68.130  1.00  0.00    -0.070 C  
BRANCH  17  18
HETATM   18  C   UNL     1      -6.872  10.451  66.897  1.00  0.00    -0.088 C  
BRANCH  18  19
HETATM   19  C   UNL     1      -8.039  11.425  66.918  1.00  0.00    -0.158 A  
HETATM   20  C   UNL     1      -8.232  12.332  67.974  1.00  0.00    -0.163 A  
HETATM   21  C   UNL     1      -9.342  13.175  68.005  1.00  0.00    -0.219 A  
HETATM   22  C   UNL     1     -10.255  13.142  66.956  1.00  0.00    -0.250 A  
HETATM   23  C   UNL     1      -8.956  11.427  65.857  1.00  0.00    -0.184 A  
HETATM   24  C   UNL     1     -10.068  12.273  65.881  1.00  0.00    -0.272 A  
BRANCH  22  25
HETATM   25  S   UNL     1     -11.686  14.185  67.031  1.00  0.00    -0.422 S  
HETATM   26  O   UNL     1     -12.496  13.977  65.849  1.00  0.00    -0.470 OA 
HETATM   27  O   UNL     1     -12.263  14.033  68.351  1.00  0.00    -0.332 OA 
BRANCH  25  28
HETATM   28  N   UNL     1     -11.045  15.716  67.012  1.00  0.00    -0.257 N  
HETATM   29  H   UNL     1     -11.341  16.365  67.742  1.00  0.00     0.000 HD 
BRANCH  28  30
HETATM   30  C   UNL     1     -10.138  16.172  66.076  1.00  0.00    -0.351 C  
HETATM   31  O   UNL     1     -10.364  16.229  64.878  1.00  0.00    -0.578 OA 
BRANCH  30  32
HETATM   32  N   UNL     1      -8.959  16.545  66.644  1.00  0.00    -0.234 N  
HETATM   33  H   UNL     1      -8.090  16.135  66.303  1.00  0.00     0.000 HD 
BRANCH  32  34
HETATM   34  C   UNL     1      -8.910  17.517  67.730  1.00  0.00    -0.241 C  
HETATM   35  C   UNL     1      -7.483  17.688  68.265  1.00  0.00    -0.251 C  
HETATM   36  C   UNL     1      -6.563  18.328  67.227  1.00  0.00    -0.199 C  
HETATM   37  C   UNL     1      -7.124  19.645  66.697  1.00  0.00    -0.230 C  
HETATM   38  C   UNL     1      -8.575  19.536  66.229  1.00  0.00    -0.382 C  
HETATM   39  C   UNL     1      -9.469  18.867  67.273  1.00  0.00    -0.336 C  
ENDBRANCH  32  34
ENDBRANCH  30  32
ENDBRANCH  28  30
ENDBRANCH  25  28
ENDBRANCH  22  25
ENDBRANCH  18  19
ENDBRANCH  17  18
ENDBRANCH  14  17
ENDBRANCH   2   3
TORSDOF 9
ENDMDL
MODEL      108
REMARK 921   NORMALIZED FREE ENERGY PREDICTED BY IDOCK:   -5.22 KCAL/MOL
REMARK 922        TOTAL FREE ENERGY PREDICTED BY IDOCK:  -10.12 KCAL/MOL
REMARK 923 INTER-LIGAND FREE ENERGY PREDICTED BY IDOCK:   -8.66 KCAL/MOL
REMARK 924 INTRA-LIGAND FREE ENERGY PREDICTED BY IDOCK:   -1.46 KCAL/MOL
REMARK 927      BINDING AFFINITY PREDICTED BY RF-SCORE:    0.00 PKD
ROOT
HETATM    1  C   UNL     1     -12.875  15.456  73.706  1.00  0.00    -0.508 C  
HETATM    2  O   UNL     1     -13.124  14.408  72.772  1.00  0.00    -0.454 OA 
ENDROOT
BRANCH   2   3
HETATM    3  C   UNL     1     -12.397  14.469  71.617  1.00  0.00    -0.350 A  
HETATM    4  C   UNL     1     -12.279  13.435  70.696  1.00  0.00    -0.427 A  
HETATM    5  C   UNL     1     -11.542  13.624  69.519  1.00  0.00    -0.361 A  
HETATM    6  C   UNL     1     -10.866  14.830  69.268  1.00  0.00    -0.275 A  
HETATM    7  C   UNL     1     -11.028  15.877  70.188  1.00  0.00    -0.369 A  
HETATM    8  C   UNL     1     -10.041  14.994  67.997  1.00  0.00    -0.223 C  
HETATM    9  C   UNL     1      -9.840  13.648  67.282  1.00  0.00    -0.241 C  
HETATM   10  C   UNL     1     -10.816  15.872  66.989  1.00  0.00    -0.252 C  
HETATM   11  C   UNL     1      -8.667  15.629  68.273  1.00  0.00    -0.174 C  
HETATM   12  C   UNL     1     -11.799  15.699  71.341  1.00  0.00    -0.482 A  
HETATM   13  O   UNL     1      -8.830  13.360  66.644  1.00  0.00    -0.176 OA 
HETATM   14  N   UNL     1     -10.976  12.861  67.290  1.00  0.00    -0.255 N  
HETATM   15  O   UNL     1     -12.271  11.553  68.670  1.00  0.00    -0.492 OA 
HETATM   16  C   UNL     1     -11.625  12.576  68.471  1.00  0.00    -0.321 C  
BRANCH  14  17
HETATM   17  C   UNL     1     -11.328  12.140  66.088  1.00  0.00    -0.361 C  
BRANCH  17  18
HETATM   18  C   UNL     1     -10.177  11.634  65.217  1.00  0.00    -0.316 C  
BRANCH  18  19
HETATM   19  C   UNL     1      -9.802  10.204  65.569  1.00  0.00    -0.365 A  
HETATM   20  C   UNL     1     -10.522   9.458  66.519  1.00  0.00    -0.199 A  
HETATM   21  C   UNL     1     -10.126   8.169  66.872  1.00  0.00    -0.367 A  
HETATM   22  C   UNL     1      -9.022   7.599  66.248  1.00  0.00    -0.169 A  
HETATM   23  C   UNL     1      -8.709   9.600  64.932  1.00  0.00    -0.207 A  
HETATM   24  C   UNL     1      -8.310   8.307  65.279  1.00  0.00    -0.175 A  
BRANCH  22  25
HETATM   25  S   UNL     1      -8.500   5.977  66.740  1.00  0.00    -0.111 S  
HETATM   26  O   UNL     1      -9.434   5.444  67.709  1.00  0.00    -0.113 OA 
HETATM   27  O   UNL     1      -8.194   5.237  65.532  1.00  0.00    -0.114 OA 
BRANCH  25  28
HETATM   28  N   UNL     1      -7.032   6.251  67.464  1.00  0.00    -0.066 N  
HETATM   29  H   UNL     1      -6.193   5.942  66.971  1.00  0.00     0.000 HD 
BRANCH  28  30
HETATM   30  C   UNL     1      -6.867   6.870  68.687  1.00  0.00    -0.070 C  
HETATM   31  O   UNL     1      -6.897   6.286  69.758  1.00  0.00    -0.060 OA 
BRANCH  30  32
HETATM   32  N   UNL     1      -6.675   8.212  68.560  1.00  0.00    -0.061 N  
HETATM   33  H   UNL     1      -5.899   8.553  67.993  1.00  0.00     0.000 HD 
BRANCH  32  34
HETATM   34  C   UNL     1      -7.554   9.173  69.217  1.00  0.00    -0.079 C  
HETATM   35  C   UNL     1      -7.173   9.364  70.691  1.00  0.00    -0.134 C  
HETATM   36  C   UNL     1      -5.808  10.033  70.839  1.00  0.00    -0.088 C  
HETATM   37  C   UNL     1      -5.722  11.345  70.064  1.00  0.00    -0.113 C  
HETATM   38  C   UNL     1      -6.172  11.214  68.610  1.00  0.00    -0.043 C  
HETATM   39  C   UNL     1      -7.527  10.518  68.485  1.00  0.00    -0.091 C  
ENDBRANCH  32  34
ENDBRANCH  30  32
ENDBRANCH  28  30
ENDBRANCH  25  28
ENDBRANCH  22  25
ENDBRANCH  18  19
ENDBRANCH  17  18
ENDBRANCH  14  17
ENDBRANCH   2   3
TORSDOF 9
ENDMDL
MODEL      109
REMARK 921   NORMALIZED FREE ENERGY PREDICTED BY IDOCK:   -5.21 KCAL/MOL
REMARK 922        TOTAL FREE ENERGY PREDICTED BY IDOCK:  -10.11 KCAL/MOL
REMARK 923 INTER-LIGAND FREE ENERGY PREDICTED BY IDOCK:   -8.53 KCAL/MOL
REMARK 924 INTRA-LIGAND FREE ENERGY PREDICTED BY IDOCK:   -1.58 KCAL/MOL
REMARK 927      BINDING AFFINITY PREDICTED BY RF-SCORE:    0.00 PKD
ROOT
HETATM    1  C   UNL     1      -8.173   7.125  74.440  1.00  0.00    -0.167 C  
HETATM    2  O   UNL     1      -9.111   6.134  74.031  1.00  0.00    -0.126 OA 
ENDROOT
BRANCH   2   3
HETATM    3  C   UNL     1      -9.184   5.918  72.683  1.00  0.00    -0.137 A  
HETATM    4  C   UNL     1     -10.004   6.620  71.809  1.00  0.00    -0.188 A  
HETATM    5  C   UNL     1      -9.963   6.344  70.435  1.00  0.00    -0.213 A  
HETATM    6  C   UNL     1      -9.144   5.326  69.920  1.00  0.00    -0.165 A  
HETATM    7  C   UNL     1      -8.293   4.654  70.810  1.00  0.00    -0.096 A  
HETATM    8  C   UNL     1      -9.149   5.024  68.425  1.00  0.00    -0.137 C  
HETATM    9  C   UNL     1     -10.314   5.729  67.715  1.00  0.00    -0.213 C  
HETATM   10  C   UNL     1      -7.872   5.605  67.777  1.00  0.00    -0.097 C  
HETATM   11  C   UNL     1      -9.222   3.514  68.138  1.00  0.00    -0.228 C  
HETATM   12  C   UNL     1      -8.306   4.961  72.175  1.00  0.00    -0.123 A  
HETATM   13  O   UNL     1     -10.902   5.262  66.742  1.00  0.00    -0.232 OA 
HETATM   14  N   UNL     1     -10.525   7.015  68.175  1.00  0.00    -0.191 N  
HETATM   15  O   UNL     1     -11.351   8.189  69.972  1.00  0.00    -0.153 OA 
HETATM   16  C   UNL     1     -10.688   7.262  69.521  1.00  0.00    -0.232 C  
BRANCH  14  17
HETATM   17  C   UNL     1     -10.819   8.056  67.215  1.00  0.00    -0.089 C  
BRANCH  17  18
HETATM   18  C   UNL     1      -9.627   8.750  66.556  1.00  0.00    -0.302 C  
BRANCH  18  19
HETATM   19  C   UNL     1      -9.757  10.263  66.629  1.00  0.00    -0.233 A  
HETATM   20  C   UNL     1      -9.900  11.054  65.475  1.00  0.00    -0.292 A  
HETATM   21  C   UNL     1      -9.955  12.444  65.559  1.00  0.00    -0.260 A  
HETATM   22  C   UNL     1      -9.903  13.057  66.806  1.00  0.00    -0.243 A  
HETATM   23  C   UNL     1      -9.734  10.898  67.879  1.00  0.00    -0.178 A  
HETATM   24  C   UNL     1      -9.793  12.291  67.968  1.00  0.00    -0.204 A  
BRANCH  22  25
HETATM   25  S   UNL     1      -9.927  14.827  66.896  1.00  0.00    -0.249 S  
HETATM   26  O   UNL     1      -8.701  15.354  66.334  1.00  0.00    -0.297 OA 
HETATM   27  O   UNL     1     -11.212  15.267  66.393  1.00  0.00    -0.315 OA 
BRANCH  25  28
HETATM   28  N   UNL     1      -9.975  15.127  68.528  1.00  0.00    -0.217 N  
HETATM   29  H   UNL     1      -9.718  14.367  69.159  1.00  0.00     0.000 HD 
BRANCH  28  30
HETATM   30  C   UNL     1     -10.338  16.335  69.090  1.00  0.00    -0.272 C  
HETATM   31  O   UNL     1     -11.319  16.491  69.798  1.00  0.00    -0.239 OA 
BRANCH  30  32
HETATM   32  N   UNL     1      -9.476  17.334  68.756  1.00  0.00    -0.271 N  
HETATM   33  H   UNL     1      -8.497  17.110  68.582  1.00  0.00     0.000 HD 
BRANCH  32  34
HETATM   34  C   UNL     1      -9.923  18.718  68.641  1.00  0.00    -0.394 C  
HETATM   35  C   UNL     1      -8.734  19.685  68.565  1.00  0.00    -0.344 C  
HETATM   36  C   UNL     1      -7.938  19.502  67.275  1.00  0.00    -0.304 C  
HETATM   37  C   UNL     1      -8.822  19.603  66.034  1.00  0.00    -0.276 C  
HETATM   38  C   UNL     1     -10.063  18.714  66.106  1.00  0.00    -0.399 C  
HETATM   39  C   UNL     1     -10.827  18.895  67.418  1.00  0.00    -0.449 C  
ENDBRANCH  32  34
ENDBRANCH  30  32
ENDBRANCH  28  30
ENDBRANCH  25  28
ENDBRANCH  22  25
ENDBRANCH  18  19
ENDBRANCH  17  18
ENDBRANCH  14  17
ENDBRANCH   2   3
TORSDOF 9
ENDMDL
MODEL      110
REMARK 921   NORMALIZED FREE ENERGY PREDICTED BY IDOCK:   -5.21 KCAL/MOL
REMARK 922        TOTAL FREE ENERGY PREDICTED BY IDOCK:  -10.10 KCAL/MOL
REMARK 923 INTER-LIGAND FREE ENERGY PREDICTED BY IDOCK:   -7.56 KCAL/MOL
REMARK 924 INTRA-LIGAND FREE ENERGY PREDICTED BY IDOCK:   -2.54 KCAL/MOL
REMARK 927      BINDING AFFINITY PREDICTED BY RF-SCORE:    0.00 PKD
ROOT
HETATM    1  C   UNL     1      -5.571  11.800  69.653  1.00  0.00    -0.078 C  
HETATM    2  O   UNL     1      -6.090  11.231  70.853  1.00  0.00    -0.363 OA 
ENDROOT
BRANCH   2   3
HETATM    3  C   UNL     1      -6.462   9.919  70.764  1.00  0.00    -0.081 A  
HETATM    4  C   UNL     1      -7.773   9.469  70.664  1.00  0.00    -0.151 A  
HETATM    5  C   UNL     1      -8.036   8.099  70.533  1.00  0.00    -0.104 A  
HETATM    6  C   UNL     1      -7.000   7.152  70.555  1.00  0.00    -0.058 A  
HETATM    7  C   UNL     1      -5.680   7.624  70.617  1.00  0.00    -0.030 A  
HETATM    8  C   UNL     1      -7.320   5.665  70.448  1.00  0.00    -0.079 C  
HETATM    9  C   UNL     1      -8.823   5.402  70.620  1.00  0.00    -0.132 C  
HETATM   10  C   UNL     1      -6.984   5.166  69.024  1.00  0.00    -0.056 C  
HETATM   11  C   UNL     1      -6.540   4.827  71.476  1.00  0.00    -0.034 C  
HETATM   12  C   UNL     1      -5.418   8.996  70.705  1.00  0.00    -0.029 A  
HETATM   13  O   UNL     1      -9.283   4.388  71.142  1.00  0.00    -0.123 OA 
HETATM   14  N   UNL     1      -9.610   6.341  69.980  1.00  0.00    -0.157 N  
HETATM   15  O   UNL     1     -10.317   8.525  70.128  1.00  0.00    -0.198 OA 
HETATM   16  C   UNL     1      -9.426   7.687  70.210  1.00  0.00    -0.161 C  
BRANCH  14  17
HETATM   17  C   UNL     1     -10.782   5.891  69.263  1.00  0.00    -0.331 C  
BRANCH  17  18
HETATM   18  C   UNL     1     -10.629   5.648  67.762  1.00  0.00    -0.274 C  
BRANCH  18  19
HETATM   19  C   UNL     1     -10.048   6.864  67.059  1.00  0.00    -0.287 A  
HETATM   20  C   UNL     1     -10.772   8.061  66.922  1.00  0.00    -0.201 A  
HETATM   21  C   UNL     1     -10.245   9.144  66.221  1.00  0.00    -0.257 A  
HETATM   22  C   UNL     1      -8.968   9.051  65.678  1.00  0.00    -0.202 A  
HETATM   23  C   UNL     1      -8.752   6.799  66.528  1.00  0.00    -0.139 A  
HETATM   24  C   UNL     1      -8.218   7.884  65.827  1.00  0.00    -0.130 A  
BRANCH  22  25
HETATM   25  S   UNL     1      -8.329  10.418  64.748  1.00  0.00    -0.128 S  
HETATM   26  O   UNL     1      -7.198   9.977  63.959  1.00  0.00    -0.128 OA 
HETATM   27  O   UNL     1      -9.455  11.073  64.113  1.00  0.00    -0.225 OA 
BRANCH  25  28
HETATM   28  N   UNL     1      -7.819  11.474  65.923  1.00  0.00    -0.354 N  
HETATM   29  H   UNL     1      -6.822  11.684  65.974  1.00  0.00     0.000 HD 
BRANCH  28  30
HETATM   30  C   UNL     1      -8.653  12.089  66.836  1.00  0.00    -0.189 C  
HETATM   31  O   UNL     1      -8.659  11.841  68.031  1.00  0.00    -0.144 OA 
BRANCH  30  32
HETATM   32  N   UNL     1      -9.475  13.000  66.246  1.00  0.00    -0.391 N  
HETATM   33  H   UNL     1      -9.250  13.342  65.312  1.00  0.00     0.000 HD 
BRANCH  32  34
HETATM   34  C   UNL     1     -10.669  13.498  66.920  1.00  0.00    -0.274 C  
HETATM   35  C   UNL     1     -10.939  14.967  66.567  1.00  0.00    -0.327 C  
HETATM   36  C   UNL     1     -11.314  15.134  65.095  1.00  0.00    -0.357 C  
HETATM   37  C   UNL     1     -12.482  14.237  64.694  1.00  0.00    -0.371 C  
HETATM   38  C   UNL     1     -12.287  12.777  65.102  1.00  0.00    -0.555 C  
HETATM   39  C   UNL     1     -11.885  12.638  66.570  1.00  0.00    -0.463 C  
ENDBRANCH  32  34
ENDBRANCH  30  32
ENDBRANCH  28  30
ENDBRANCH  25  28
ENDBRANCH  22  25
ENDBRANCH  18  19
ENDBRANCH  17  18
ENDBRANCH  14  17
ENDBRANCH   2   3
TORSDOF 9
ENDMDL
MODEL      111
REMARK 921   NORMALIZED FREE ENERGY PREDICTED BY IDOCK:   -5.19 KCAL/MOL
REMARK 922        TOTAL FREE ENERGY PREDICTED BY IDOCK:  -10.07 KCAL/MOL
REMARK 923 INTER-LIGAND FREE ENERGY PREDICTED BY IDOCK:   -7.94 KCAL/MOL
REMARK 924 INTRA-LIGAND FREE ENERGY PREDICTED BY IDOCK:   -2.14 KCAL/MOL
REMARK 927      BINDING AFFINITY PREDICTED BY RF-SCORE:    0.00 PKD
ROOT
HETATM    1  C   UNL     1     -10.245  19.275  68.282  1.00  0.00    -0.418 C  
HETATM    2  O   UNL     1      -9.938  18.112  69.046  1.00  0.00    -0.358 OA 
ENDROOT
BRANCH   2   3
HETATM    3  C   UNL     1     -10.172  16.921  68.418  1.00  0.00    -0.322 A  
HETATM    4  C   UNL     1      -9.185  16.076  67.923  1.00  0.00    -0.196 A  
HETATM    5  C   UNL     1      -9.539  14.854  67.335  1.00  0.00    -0.206 A  
HETATM    6  C   UNL     1     -10.884  14.480  67.183  1.00  0.00    -0.296 A  
HETATM    7  C   UNL     1     -11.866  15.324  67.724  1.00  0.00    -0.111 A  
HETATM    8  C   UNL     1     -11.239  13.160  66.507  1.00  0.00    -0.339 C  
HETATM    9  C   UNL     1     -10.017  12.541  65.811  1.00  0.00    -0.259 C  
HETATM   10  C   UNL     1     -11.659  12.128  67.577  1.00  0.00    -0.413 C  
HETATM   11  C   UNL     1     -12.376  13.320  65.482  1.00  0.00    -0.533 C  
HETATM   12  C   UNL     1     -11.507  16.524  68.347  1.00  0.00    -0.104 A  
HETATM   13  O   UNL     1     -10.084  11.878  64.778  1.00  0.00    -0.255 OA 
HETATM   14  N   UNL     1      -8.857  12.664  66.553  1.00  0.00    -0.125 N  
HETATM   15  O   UNL     1      -7.280  14.200  67.218  1.00  0.00    -0.148 OA 
HETATM   16  C   UNL     1      -8.451  13.894  67.022  1.00  0.00    -0.134 C  
BRANCH  14  17
HETATM   17  C   UNL     1      -7.953  11.538  66.617  1.00  0.00    -0.127 C  
BRANCH  17  18
HETATM   18  C   UNL     1      -7.953  10.718  67.907  1.00  0.00    -0.110 C  
BRANCH  18  19
HETATM   19  C   UNL     1      -8.294   9.261  67.638  1.00  0.00    -0.116 A  
HETATM   20  C   UNL     1      -7.352   8.232  67.812  1.00  0.00    -0.093 A  
HETATM   21  C   UNL     1      -7.666   6.910  67.502  1.00  0.00    -0.111 A  
HETATM   22  C   UNL     1      -8.942   6.599  67.046  1.00  0.00    -0.118 A  
HETATM   23  C   UNL     1      -9.584   8.923  67.203  1.00  0.00    -0.225 A  
HETATM   24  C   UNL     1      -9.904   7.598  66.895  1.00  0.00    -0.304 A  
BRANCH  22  25
HETATM   25  S   UNL     1      -9.313   4.921  66.610  1.00  0.00    -0.152 S  
HETATM   26  O   UNL     1     -10.747   4.724  66.630  1.00  0.00    -0.181 OA 
HETATM   27  O   UNL     1      -8.547   4.604  65.422  1.00  0.00    -0.121 OA 
BRANCH  25  28
HETATM   28  N   UNL     1      -8.606   4.044  67.829  1.00  0.00    -0.095 N  
HETATM   29  H   UNL     1      -7.602   3.873  67.771  1.00  0.00     0.000 HD 
BRANCH  28  30
HETATM   30  C   UNL     1      -9.284   3.531  68.917  1.00  0.00    -0.162 C  
HETATM   31  O   UNL     1      -9.211   2.369  69.281  1.00  0.00    -0.112 OA 
BRANCH  30  32
HETATM   32  N   UNL     1     -10.051   4.472  69.532  1.00  0.00    -0.163 N  
HETATM   33  H   UNL     1     -11.060   4.465  69.388  1.00  0.00     0.000 HD 
BRANCH  32  34
HETATM   34  C   UNL     1      -9.461   5.491  70.395  1.00  0.00    -0.163 C  
HETATM   35  C   UNL     1     -10.346   6.741  70.470  1.00  0.00    -0.226 C  
HETATM   36  C   UNL     1     -11.669   6.456  71.178  1.00  0.00    -0.359 C  
HETATM   37  C   UNL     1     -11.461   5.833  72.556  1.00  0.00    -0.349 C  
HETATM   38  C   UNL     1     -10.518   4.631  72.537  1.00  0.00    -0.257 C  
HETATM   39  C   UNL     1      -9.214   4.933  71.799  1.00  0.00    -0.175 C  
ENDBRANCH  32  34
ENDBRANCH  30  32
ENDBRANCH  28  30
ENDBRANCH  25  28
ENDBRANCH  22  25
ENDBRANCH  18  19
ENDBRANCH  17  18
ENDBRANCH  14  17
ENDBRANCH   2   3
TORSDOF 9
ENDMDL
MODEL      112
REMARK 921   NORMALIZED FREE ENERGY PREDICTED BY IDOCK:   -5.19 KCAL/MOL
REMARK 922        TOTAL FREE ENERGY PREDICTED BY IDOCK:  -10.07 KCAL/MOL
REMARK 923 INTER-LIGAND FREE ENERGY PREDICTED BY IDOCK:   -7.17 KCAL/MOL
REMARK 924 INTRA-LIGAND FREE ENERGY PREDICTED BY IDOCK:   -2.90 KCAL/MOL
REMARK 927      BINDING AFFINITY PREDICTED BY RF-SCORE:    0.00 PKD
ROOT
HETATM    1  C   UNL     1     -12.652  15.335  64.372  1.00  0.00     0.152 C  
HETATM    2  O   UNL     1     -13.201  14.326  65.216  1.00  0.00    -0.704 OA 
ENDROOT
BRANCH   2   3
HETATM    3  C   UNL     1     -12.313  13.385  65.657  1.00  0.00    -0.470 A  
HETATM    4  C   UNL     1     -12.047  13.107  66.992  1.00  0.00    -0.366 A  
HETATM    5  C   UNL     1     -11.148  12.086  67.330  1.00  0.00    -0.341 A  
HETATM    6  C   UNL     1     -10.459  11.364  66.341  1.00  0.00    -0.299 A  
HETATM    7  C   UNL     1     -10.769  11.629  64.999  1.00  0.00    -0.351 A  
HETATM    8  C   UNL     1      -9.459  10.284  66.740  1.00  0.00    -0.198 C  
HETATM    9  C   UNL     1      -9.136  10.346  68.241  1.00  0.00    -0.145 C  
HETATM   10  C   UNL     1     -10.090   8.891  66.521  1.00  0.00    -0.356 C  
HETATM   11  C   UNL     1      -8.150  10.381  65.938  1.00  0.00    -0.149 C  
HETATM   12  C   UNL     1     -11.699  12.620  64.666  1.00  0.00    -0.411 A  
HETATM   13  O   UNL     1      -8.040  10.057  68.715  1.00  0.00    -0.096 OA 
HETATM   14  N   UNL     1     -10.250  10.599  69.020  1.00  0.00    -0.206 N  
HETATM   15  O   UNL     1     -11.715  12.272  69.608  1.00  0.00    -0.301 OA 
HETATM   16  C   UNL     1     -11.062  11.680  68.755  1.00  0.00    -0.230 C  
BRANCH  14  17
HETATM   17  C   UNL     1     -10.412   9.867  70.256  1.00  0.00    -0.291 C  
BRANCH  17  18
HETATM   18  C   UNL     1     -11.266   8.601  70.208  1.00  0.00    -0.196 C  
BRANCH  18  19
HETATM   19  C   UNL     1     -10.545   7.420  70.838  1.00  0.00    -0.234 A  
HETATM   20  C   UNL     1      -9.355   7.580  71.570  1.00  0.00    -0.154 A  
HETATM   21  C   UNL     1      -8.675   6.479  72.088  1.00  0.00    -0.131 A  
HETATM   22  C   UNL     1      -9.201   5.204  71.907  1.00  0.00    -0.137 A  
HETATM   23  C   UNL     1     -11.072   6.130  70.691  1.00  0.00    -0.384 A  
HETATM   24  C   UNL     1     -10.397   5.023  71.211  1.00  0.00    -0.255 A  
BRANCH  22  25
HETATM   25  S   UNL     1      -8.303   3.808  72.530  1.00  0.00    -0.091 S  
HETATM   26  O   UNL     1      -8.091   3.968  73.953  1.00  0.00    -0.086 OA 
HETATM   27  O   UNL     1      -8.945   2.617  72.014  1.00  0.00    -0.075 OA 
BRANCH  25  28
HETATM   28  N   UNL     1      -6.852   3.900  71.729  1.00  0.00    -0.026 N  
HETATM   29  H   UNL     1      -6.143   4.533  72.100  1.00  0.00     0.000 HD 
BRANCH  28  30
HETATM   30  C   UNL     1      -6.538   3.178  70.595  1.00  0.00    -0.032 C  
HETATM   31  O   UNL     1      -5.541   2.483  70.482  1.00  0.00    -0.015 OA 
BRANCH  30  32
HETATM   32  N   UNL     1      -7.468   3.335  69.614  1.00  0.00    -0.045 N  
HETATM   33  H   UNL     1      -8.452   3.174  69.830  1.00  0.00     0.000 HD 
BRANCH  32  34
HETATM   34  C   UNL     1      -7.090   3.730  68.261  1.00  0.00    -0.051 C  
HETATM   35  C   UNL     1      -8.281   3.640  67.299  1.00  0.00    -0.091 C  
HETATM   36  C   UNL     1      -9.360   4.667  67.637  1.00  0.00    -0.170 C  
HETATM   37  C   UNL     1      -8.801   6.086  67.706  1.00  0.00    -0.106 C  
HETATM   38  C   UNL     1      -7.562   6.202  68.592  1.00  0.00    -0.092 C  
HETATM   39  C   UNL     1      -6.510   5.146  68.254  1.00  0.00    -0.040 C  
ENDBRANCH  32  34
ENDBRANCH  30  32
ENDBRANCH  28  30
ENDBRANCH  25  28
ENDBRANCH  22  25
ENDBRANCH  18  19
ENDBRANCH  17  18
ENDBRANCH  14  17
ENDBRANCH   2   3
TORSDOF 9
ENDMDL
MODEL      113
REMARK 921   NORMALIZED FREE ENERGY PREDICTED BY IDOCK:   -5.17 KCAL/MOL
REMARK 922        TOTAL FREE ENERGY PREDICTED BY IDOCK:  -10.04 KCAL/MOL
REMARK 923 INTER-LIGAND FREE ENERGY PREDICTED BY IDOCK:   -7.68 KCAL/MOL
REMARK 924 INTRA-LIGAND FREE ENERGY PREDICTED BY IDOCK:   -2.36 KCAL/MOL
REMARK 927      BINDING AFFINITY PREDICTED BY RF-SCORE:    0.00 PKD
ROOT
HETATM    1  C   UNL     1     -12.660  13.923  66.097  1.00  0.00    -0.380 C  
HETATM    2  O   UNL     1     -12.534  12.680  65.411  1.00  0.00    -0.601 OA 
ENDROOT
BRANCH   2   3
HETATM    3  C   UNL     1     -11.285  12.125  65.430  1.00  0.00    -0.333 A  
HETATM    4  C   UNL     1     -10.290  12.439  66.348  1.00  0.00    -0.255 A  
HETATM    5  C   UNL     1      -9.058  11.773  66.302  1.00  0.00    -0.209 A  
HETATM    6  C   UNL     1      -8.780  10.821  65.306  1.00  0.00    -0.183 A  
HETATM    7  C   UNL     1      -9.808  10.487  64.413  1.00  0.00    -0.405 A  
HETATM    8  C   UNL     1      -7.417  10.140  65.259  1.00  0.00    -0.145 C  
HETATM    9  C   UNL     1      -6.410  10.836  66.187  1.00  0.00    -0.134 C  
HETATM   10  C   UNL     1      -7.541   8.700  65.808  1.00  0.00    -0.089 C  
HETATM   11  C   UNL     1      -6.840  10.092  63.834  1.00  0.00    -0.126 C  
HETATM   12  C   UNL     1     -11.051  11.124  64.488  1.00  0.00    -0.166 A  
HETATM   13  O   UNL     1      -5.206  10.915  65.950  1.00  0.00    -0.102 OA 
HETATM   14  N   UNL     1      -6.966  11.219  67.393  1.00  0.00    -0.093 N  
HETATM   15  O   UNL     1      -8.388  12.765  68.329  1.00  0.00    -0.162 OA 
HETATM   16  C   UNL     1      -8.113  11.982  67.427  1.00  0.00    -0.168 C  
BRANCH  14  17
HETATM   17  C   UNL     1      -6.200  11.023  68.603  1.00  0.00    -0.043 C  
BRANCH  17  18
HETATM   18  C   UNL     1      -6.984  10.885  69.908  1.00  0.00    -0.094 C  
BRANCH  18  19
HETATM   19  C   UNL     1      -7.896   9.669  69.882  1.00  0.00    -0.157 A  
HETATM   20  C   UNL     1      -7.420   8.389  69.547  1.00  0.00    -0.088 A  
HETATM   21  C   UNL     1      -8.284   7.298  69.469  1.00  0.00    -0.131 A  
HETATM   22  C   UNL     1      -9.633   7.472  69.760  1.00  0.00    -0.163 A  
HETATM   23  C   UNL     1      -9.254   9.818  70.198  1.00  0.00    -0.253 A  
HETATM   24  C   UNL     1     -10.124   8.726  70.125  1.00  0.00    -0.203 A  
BRANCH  22  25
HETATM   25  S   UNL     1     -10.730   6.087  69.610  1.00  0.00    -0.369 S  
HETATM   26  O   UNL     1      -9.955   4.867  69.528  1.00  0.00    -0.200 OA 
HETATM   27  O   UNL     1     -11.755   6.237  70.622  1.00  0.00    -0.343 OA 
BRANCH  25  28
HETATM   28  N   UNL     1     -11.500   6.365  68.167  1.00  0.00    -0.551 N  
HETATM   29  H   UNL     1     -12.520   6.332  68.158  1.00  0.00     0.000 HD 
BRANCH  28  30
HETATM   30  C   UNL     1     -10.855   6.636  66.976  1.00  0.00    -0.397 C  
HETATM   31  O   UNL     1     -10.663   7.762  66.545  1.00  0.00    -0.093 OA 
BRANCH  30  32
HETATM   32  N   UNL     1     -10.464   5.501  66.335  1.00  0.00    -0.399 N  
HETATM   33  H   UNL     1     -11.061   4.675  66.375  1.00  0.00     0.000 HD 
BRANCH  32  34
HETATM   34  C   UNL     1      -9.210   5.439  65.592  1.00  0.00    -0.114 C  
HETATM   35  C   UNL     1      -8.047   5.007  66.493  1.00  0.00    -0.108 C  
HETATM   36  C   UNL     1      -8.204   3.563  66.966  1.00  0.00    -0.091 C  
HETATM   37  C   UNL     1      -8.402   2.595  65.803  1.00  0.00    -0.094 C  
HETATM   38  C   UNL     1      -9.500   3.033  64.835  1.00  0.00    -0.136 C  
HETATM   39  C   UNL     1      -9.336   4.489  64.398  1.00  0.00    -0.100 C  
ENDBRANCH  32  34
ENDBRANCH  30  32
ENDBRANCH  28  30
ENDBRANCH  25  28
ENDBRANCH  22  25
ENDBRANCH  18  19
ENDBRANCH  17  18
ENDBRANCH  14  17
ENDBRANCH   2   3
TORSDOF 9
ENDMDL
MODEL      114
REMARK 921   NORMALIZED FREE ENERGY PREDICTED BY IDOCK:   -5.17 KCAL/MOL
REMARK 922        TOTAL FREE ENERGY PREDICTED BY IDOCK:  -10.04 KCAL/MOL
REMARK 923 INTER-LIGAND FREE ENERGY PREDICTED BY IDOCK:   -8.56 KCAL/MOL
REMARK 924 INTRA-LIGAND FREE ENERGY PREDICTED BY IDOCK:   -1.48 KCAL/MOL
REMARK 927      BINDING AFFINITY PREDICTED BY RF-SCORE:    0.00 PKD
ROOT
HETATM    1  C   UNL     1     -13.947  13.842  72.182  1.00  0.00    -0.545 C  
HETATM    2  O   UNL     1     -12.671  13.321  71.820  1.00  0.00    -0.279 OA 
ENDROOT
BRANCH   2   3
HETATM    3  C   UNL     1     -12.281  13.573  70.534  1.00  0.00    -0.361 A  
HETATM    4  C   UNL     1     -11.859  12.607  69.628  1.00  0.00    -0.379 A  
HETATM    5  C   UNL     1     -11.523  12.975  68.318  1.00  0.00    -0.347 A  
HETATM    6  C   UNL     1     -11.552  14.317  67.906  1.00  0.00    -0.367 A  
HETATM    7  C   UNL     1     -12.018  15.274  68.821  1.00  0.00    -0.279 A  
HETATM    8  C   UNL     1     -11.147  14.690  66.485  1.00  0.00    -0.329 C  
HETATM    9  C   UNL     1     -10.469  13.513  65.768  1.00  0.00    -0.291 C  
HETATM   10  C   UNL     1     -12.411  14.996  65.651  1.00  0.00     0.258 C  
HETATM   11  C   UNL     1     -10.208  15.909  66.449  1.00  0.00    -0.311 C  
HETATM   12  C   UNL     1     -12.392  14.899  70.115  1.00  0.00    -0.376 A  
HETATM   13  O   UNL     1      -9.577  13.645  64.934  1.00  0.00     0.058 OA 
HETATM   14  N   UNL     1     -11.078  12.300  66.033  1.00  0.00    -0.296 N  
HETATM   15  O   UNL     1     -11.332  10.716  67.681  1.00  0.00    -0.395 OA 
HETATM   16  C   UNL     1     -11.292  11.890  67.331  1.00  0.00    -0.324 C  
BRANCH  14  17
HETATM   17  C   UNL     1     -11.261  11.364  64.947  1.00  0.00    -0.110 C  
BRANCH  17  18
HETATM   18  C   UNL     1      -9.999  10.769  64.322  1.00  0.00    -0.403 C  
BRANCH  18  19
HETATM   19  C   UNL     1      -9.150  10.054  65.361  1.00  0.00    -0.235 A  
HETATM   20  C   UNL     1      -7.943  10.596  65.836  1.00  0.00    -0.157 A  
HETATM   21  C   UNL     1      -7.148   9.897  66.743  1.00  0.00    -0.090 A  
HETATM   22  C   UNL     1      -7.573   8.659  67.212  1.00  0.00    -0.093 A  
HETATM   23  C   UNL     1      -9.574   8.817  65.866  1.00  0.00    -0.255 A  
HETATM   24  C   UNL     1      -8.782   8.114  66.779  1.00  0.00    -0.145 A  
BRANCH  22  25
HETATM   25  S   UNL     1      -6.530   7.759  68.328  1.00  0.00    -0.059 S  
HETATM   26  O   UNL     1      -6.457   6.376  67.909  1.00  0.00    -0.044 OA 
HETATM   27  O   UNL     1      -5.321   8.535  68.509  1.00  0.00    -0.032 OA 
BRANCH  25  28
HETATM   28  N   UNL     1      -7.336   7.868  69.775  1.00  0.00    -0.077 N  
HETATM   29  H   UNL     1      -7.545   7.001  70.270  1.00  0.00     0.000 HD 
BRANCH  28  30
HETATM   30  C   UNL     1      -7.743   9.054  70.356  1.00  0.00    -0.108 C  
HETATM   31  O   UNL     1      -6.978   9.924  70.738  1.00  0.00    -0.272 OA 
BRANCH  30  32
HETATM   32  N   UNL     1      -9.098   9.135  70.457  1.00  0.00    -0.220 N  
HETATM   33  H   UNL     1      -9.656   9.233  69.609  1.00  0.00     0.000 HD 
BRANCH  32  34
HETATM   34  C   UNL     1      -9.770   9.086  71.751  1.00  0.00    -0.241 C  
HETATM   35  C   UNL     1     -11.292   9.185  71.595  1.00  0.00    -0.446 C  
HETATM   36  C   UNL     1     -11.869   7.957  70.893  1.00  0.00    -0.242 C  
HETATM   37  C   UNL     1     -11.459   6.656  71.580  1.00  0.00    -0.343 C  
HETATM   38  C   UNL     1      -9.955   6.555  71.827  1.00  0.00    -0.192 C  
HETATM   39  C   UNL     1      -9.397   7.807  72.505  1.00  0.00    -0.234 C  
ENDBRANCH  32  34
ENDBRANCH  30  32
ENDBRANCH  28  30
ENDBRANCH  25  28
ENDBRANCH  22  25
ENDBRANCH  18  19
ENDBRANCH  17  18
ENDBRANCH  14  17
ENDBRANCH   2   3
TORSDOF 9
ENDMDL
MODEL      115
REMARK 921   NORMALIZED FREE ENERGY PREDICTED BY IDOCK:   -5.13 KCAL/MOL
REMARK 922        TOTAL FREE ENERGY PREDICTED BY IDOCK:   -9.98 KCAL/MOL
REMARK 923 INTER-LIGAND FREE ENERGY PREDICTED BY IDOCK:   -9.21 KCAL/MOL
REMARK 924 INTRA-LIGAND FREE ENERGY PREDICTED BY IDOCK:   -0.77 KCAL/MOL
REMARK 927      BINDING AFFINITY PREDICTED BY RF-SCORE:    0.00 PKD
ROOT
HETATM    1  C   UNL     1      -5.304  20.821  63.301  1.00  0.00    -0.212 C  
HETATM    2  O   UNL     1      -6.194  21.209  64.344  1.00  0.00    -0.289 OA 
ENDROOT
BRANCH   2   3
HETATM    3  C   UNL     1      -6.530  20.220  65.225  1.00  0.00    -0.278 A  
HETATM    4  C   UNL     1      -7.828  19.811  65.504  1.00  0.00     0.040 A  
HETATM    5  C   UNL     1      -8.054  18.752  66.394  1.00  0.00    -0.296 A  
HETATM    6  C   UNL     1      -6.991  18.120  67.060  1.00  0.00    -0.215 A  
HETATM    7  C   UNL     1      -5.685  18.517  66.737  1.00  0.00    -0.166 A  
HETATM    8  C   UNL     1      -7.270  16.995  68.050  1.00  0.00    -0.172 C  
HETATM    9  C   UNL     1      -8.765  16.908  68.392  1.00  0.00    -0.244 C  
HETATM   10  C   UNL     1      -6.927  15.636  67.398  1.00  0.00    -0.234 C  
HETATM   11  C   UNL     1      -6.463  17.152  69.351  1.00  0.00    -0.233 C  
HETATM   12  C   UNL     1      -5.461  19.547  65.817  1.00  0.00    -0.172 A  
HETATM   13  O   UNL     1      -9.194  16.561  69.491  1.00  0.00    -0.090 OA 
HETATM   14  N   UNL     1      -9.580  17.098  67.292  1.00  0.00    -0.241 N  
HETATM   15  O   UNL     1     -10.347  18.724  65.857  1.00  0.00    -0.524 OA 
HETATM   16  C   UNL     1      -9.432  18.209  66.492  1.00  0.00    -0.304 C  
BRANCH  14  17
HETATM   17  C   UNL     1     -10.742  16.252  67.136  1.00  0.00    -0.247 C  
BRANCH  17  18
HETATM   18  C   UNL     1     -11.547  15.937  68.397  1.00  0.00    -0.317 C  
BRANCH  18  19
HETATM   19  C   UNL     1     -11.453  14.464  68.761  1.00  0.00    -0.319 A  
HETATM   20  C   UNL     1     -12.201  13.908  69.813  1.00  0.00    -0.388 A  
HETATM   21  C   UNL     1     -12.055  12.569  70.171  1.00  0.00    -0.368 A  
HETATM   22  C   UNL     1     -11.180  11.761  69.453  1.00  0.00    -0.234 A  
HETATM   23  C   UNL     1     -10.597  13.626  68.032  1.00  0.00    -0.256 A  
HETATM   24  C   UNL     1     -10.450  12.282  68.384  1.00  0.00    -0.244 A  
BRANCH  22  25
HETATM   25  S   UNL     1     -10.968  10.072  69.948  1.00  0.00    -0.311 S  
HETATM   26  O   UNL     1     -11.919   9.753  70.992  1.00  0.00    -0.304 OA 
HETATM   27  O   UNL     1     -10.909   9.272  68.742  1.00  0.00    -0.187 OA 
BRANCH  25  28
HETATM   28  N   UNL     1      -9.426  10.045  70.563  1.00  0.00    -0.301 N  
HETATM   29  H   UNL     1      -8.893  10.914  70.548  1.00  0.00     0.000 HD 
BRANCH  28  30
HETATM   30  C   UNL     1      -8.817   8.925  71.094  1.00  0.00    -0.237 C  
HETATM   31  O   UNL     1      -8.012   8.956  72.011  1.00  0.00    -0.350 OA 
BRANCH  30  32
HETATM   32  N   UNL     1      -9.214   7.782  70.471  1.00  0.00    -0.161 N  
HETATM   33  H   UNL     1      -9.048   7.677  69.470  1.00  0.00     0.000 HD 
BRANCH  32  34
HETATM   34  C   UNL     1      -9.869   6.703  71.202  1.00  0.00    -0.181 C  
HETATM   35  C   UNL     1     -11.020   6.096  70.390  1.00  0.00    -0.404 C  
HETATM   36  C   UNL     1     -10.513   5.371  69.145  1.00  0.00    -0.277 C  
HETATM   37  C   UNL     1      -9.452   4.326  69.482  1.00  0.00    -0.257 C  
HETATM   38  C   UNL     1      -8.327   4.872  70.359  1.00  0.00    -0.093 C  
HETATM   39  C   UNL     1      -8.860   5.617  71.582  1.00  0.00    -0.140 C  
ENDBRANCH  32  34
ENDBRANCH  30  32
ENDBRANCH  28  30
ENDBRANCH  25  28
ENDBRANCH  22  25
ENDBRANCH  18  19
ENDBRANCH  17  18
ENDBRANCH  14  17
ENDBRANCH   2   3
TORSDOF 9
ENDMDL
MODEL      116
REMARK 921   NORMALIZED FREE ENERGY PREDICTED BY IDOCK:   -5.13 KCAL/MOL
REMARK 922        TOTAL FREE ENERGY PREDICTED BY IDOCK:   -9.97 KCAL/MOL
REMARK 923 INTER-LIGAND FREE ENERGY PREDICTED BY IDOCK:   -7.30 KCAL/MOL
REMARK 924 INTRA-LIGAND FREE ENERGY PREDICTED BY IDOCK:   -2.67 KCAL/MOL
REMARK 927      BINDING AFFINITY PREDICTED BY RF-SCORE:    0.00 PKD
ROOT
HETATM    1  C   UNL     1      -5.899   7.376  64.382  1.00  0.00    -0.037 C  
HETATM    2  O   UNL     1      -7.257   7.161  64.759  1.00  0.00    -0.064 OA 
ENDROOT
BRANCH   2   3
HETATM    3  C   UNL     1      -7.977   8.293  65.020  1.00  0.00    -0.141 A  
HETATM    4  C   UNL     1      -9.072   8.360  65.873  1.00  0.00    -0.225 A  
HETATM    5  C   UNL     1      -9.709   9.587  66.101  1.00  0.00    -0.324 A  
HETATM    6  C   UNL     1      -9.298  10.757  65.440  1.00  0.00    -0.243 A  
HETATM    7  C   UNL     1      -8.167  10.680  64.613  1.00  0.00    -0.017 A  
HETATM    8  C   UNL     1     -10.034  12.070  65.681  1.00  0.00    -0.270 C  
HETATM    9  C   UNL     1     -11.353  11.843  66.435  1.00  0.00    -0.339 C  
HETATM   10  C   UNL     1      -9.190  12.972  66.608  1.00  0.00    -0.222 C  
HETATM   11  C   UNL     1     -10.326  12.821  64.370  1.00  0.00    -0.388 C  
HETATM   12  C   UNL     1      -7.508   9.462  64.420  1.00  0.00    -0.110 A  
HETATM   13  O   UNL     1     -12.361  12.525  66.266  1.00  0.00    -0.570 OA 
HETATM   14  N   UNL     1     -11.241  10.902  67.442  1.00  0.00    -0.313 N  
HETATM   15  O   UNL     1     -11.036   8.639  67.800  1.00  0.00    -0.079 OA 
HETATM   16  C   UNL     1     -10.727   9.651  67.180  1.00  0.00    -0.188 C  
BRANCH  14  17
HETATM   17  C   UNL     1     -11.895  11.158  68.706  1.00  0.00    -0.320 C  
BRANCH  17  18
HETATM   18  C   UNL     1     -11.001  11.272  69.941  1.00  0.00    -0.096 C  
BRANCH  18  19
HETATM   19  C   UNL     1     -10.958   9.965  70.716  1.00  0.00    -0.407 A  
HETATM   20  C   UNL     1      -9.747   9.314  71.010  1.00  0.00    -0.341 A  
HETATM   21  C   UNL     1      -9.732   8.086  71.669  1.00  0.00    -0.222 A  
HETATM   22  C   UNL     1     -10.932   7.512  72.073  1.00  0.00    -0.242 A  
HETATM   23  C   UNL     1     -12.155   9.383  71.156  1.00  0.00    -0.406 A  
HETATM   24  C   UNL     1     -12.145   8.154  71.821  1.00  0.00    -0.357 A  
BRANCH  22  25
HETATM   25  S   UNL     1     -10.903   5.928  72.868  1.00  0.00    -0.272 S  
HETATM   26  O   UNL     1      -9.984   5.967  73.986  1.00  0.00    -0.189 OA 
HETATM   27  O   UNL     1     -12.278   5.517  73.064  1.00  0.00    -0.011 OA 
BRANCH  25  28
HETATM   28  N   UNL     1     -10.313   4.920  71.688  1.00  0.00    -0.195 N  
HETATM   29  H   UNL     1     -10.871   4.798  70.843  1.00  0.00     0.000 HD 
BRANCH  28  30
HETATM   30  C   UNL     1      -9.117   4.234  71.773  1.00  0.00    -0.123 C  
HETATM   31  O   UNL     1      -9.026   3.052  72.059  1.00  0.00    -0.083 OA 
BRANCH  30  32
HETATM   32  N   UNL     1      -8.048   5.034  71.505  1.00  0.00    -0.111 N  
HETATM   33  H   UNL     1      -7.866   5.839  72.105  1.00  0.00     0.000 HD 
BRANCH  32  34
HETATM   34  C   UNL     1      -7.158   4.766  70.382  1.00  0.00    -0.049 C  
HETATM   35  C   UNL     1      -7.902   4.858  69.044  1.00  0.00    -0.076 C  
HETATM   36  C   UNL     1      -8.361   6.284  68.748  1.00  0.00    -0.120 C  
HETATM   37  C   UNL     1      -7.210   7.285  68.819  1.00  0.00    -0.090 C  
HETATM   38  C   UNL     1      -6.392   7.171  70.104  1.00  0.00    -0.031 C  
HETATM   39  C   UNL     1      -5.969   5.730  70.393  1.00  0.00    -0.025 C  
ENDBRANCH  32  34
ENDBRANCH  30  32
ENDBRANCH  28  30
ENDBRANCH  25  28
ENDBRANCH  22  25
ENDBRANCH  18  19
ENDBRANCH  17  18
ENDBRANCH  14  17
ENDBRANCH   2   3
TORSDOF 9
ENDMDL
MODEL      117
REMARK 921   NORMALIZED FREE ENERGY PREDICTED BY IDOCK:   -5.10 KCAL/MOL
REMARK 922        TOTAL FREE ENERGY PREDICTED BY IDOCK:   -9.94 KCAL/MOL
REMARK 923 INTER-LIGAND FREE ENERGY PREDICTED BY IDOCK:   -8.60 KCAL/MOL
REMARK 924 INTRA-LIGAND FREE ENERGY PREDICTED BY IDOCK:   -1.34 KCAL/MOL
REMARK 927      BINDING AFFINITY PREDICTED BY RF-SCORE:    0.00 PKD
ROOT
HETATM    1  C   UNL     1      -5.726   7.666  66.780  1.00  0.00    -0.028 C  
HETATM    2  O   UNL     1      -5.959   6.547  67.631  1.00  0.00    -0.018 OA 
ENDROOT
BRANCH   2   3
HETATM    3  C   UNL     1      -7.047   6.652  68.451  1.00  0.00    -0.083 A  
HETATM    4  C   UNL     1      -7.495   7.833  69.030  1.00  0.00    -0.095 A  
HETATM    5  C   UNL     1      -8.653   7.830  69.820  1.00  0.00    -0.134 A  
HETATM    6  C   UNL     1      -9.351   6.642  70.089  1.00  0.00    -0.159 A  
HETATM    7  C   UNL     1      -8.909   5.466  69.464  1.00  0.00    -0.118 A  
HETATM    8  C   UNL     1     -10.586   6.665  70.982  1.00  0.00    -0.263 C  
HETATM    9  C   UNL     1     -10.723   8.009  71.713  1.00  0.00    -0.240 C  
HETATM   10  C   UNL     1     -11.856   6.550  70.110  1.00  0.00    -0.331 C  
HETATM   11  C   UNL     1     -10.576   5.527  72.017  1.00  0.00    -0.284 C  
HETATM   12  C   UNL     1      -7.777   5.479  68.642  1.00  0.00    -0.088 A  
HETATM   13  O   UNL     1     -11.199   8.127  72.840  1.00  0.00    -0.381 OA 
HETATM   14  N   UNL     1     -10.412   9.091  70.911  1.00  0.00    -0.232 N  
HETATM   15  O   UNL     1      -8.634  10.182  69.941  1.00  0.00    -0.177 OA 
HETATM   16  C   UNL     1      -9.213   9.142  70.234  1.00  0.00    -0.218 C  
BRANCH  14  17
HETATM   17  C   UNL     1     -11.241  10.273  70.988  1.00  0.00    -0.144 C  
BRANCH  17  18
HETATM   18  C   UNL     1     -12.035  10.647  69.737  1.00  0.00    -0.363 C  
BRANCH  18  19
HETATM   19  C   UNL     1     -11.539  11.952  69.134  1.00  0.00    -0.373 A  
HETATM   20  C   UNL     1     -10.861  11.992  67.903  1.00  0.00    -0.254 A  
HETATM   21  C   UNL     1     -10.359  13.190  67.397  1.00  0.00    -0.239 A  
HETATM   22  C   UNL     1     -10.564  14.370  68.105  1.00  0.00    -0.236 A  
HETATM   23  C   UNL     1     -11.758  13.156  69.819  1.00  0.00    -0.350 A  
HETATM   24  C   UNL     1     -11.261  14.360  69.313  1.00  0.00    -0.308 A  
BRANCH  22  25
HETATM   25  S   UNL     1      -9.880  15.879  67.474  1.00  0.00    -0.232 S  
HETATM   26  O   UNL     1      -9.189  15.611  66.230  1.00  0.00    -0.275 OA 
HETATM   27  O   UNL     1     -10.923  16.883  67.531  1.00  0.00    -0.254 OA 
BRANCH  25  28
HETATM   28  N   UNL     1      -8.787  16.321  68.642  1.00  0.00    -0.215 N  
HETATM   29  H   UNL     1      -9.144  16.518  69.577  1.00  0.00     0.000 HD 
BRANCH  28  30
HETATM   30  C   UNL     1      -7.427  16.440  68.435  1.00  0.00    -0.171 C  
HETATM   31  O   UNL     1      -6.631  15.526  68.579  1.00  0.00    -0.104 OA 
BRANCH  30  32
HETATM   32  N   UNL     1      -7.075  17.698  68.055  1.00  0.00    -0.195 N  
HETATM   33  H   UNL     1      -6.280  17.827  67.430  1.00  0.00     0.000 HD 
BRANCH  32  34
HETATM   34  C   UNL     1      -7.810  18.869  68.523  1.00  0.00    -0.337 C  
HETATM   35  C   UNL     1      -6.865  19.922  69.116  1.00  0.00    -0.342 C  
HETATM   36  C   UNL     1      -5.953  20.528  68.050  1.00  0.00    -0.302 C  
HETATM   37  C   UNL     1      -6.742  21.084  66.867  1.00  0.00    -0.388 C  
HETATM   38  C   UNL     1      -7.754  20.091  66.298  1.00  0.00    -0.323 C  
HETATM   39  C   UNL     1      -8.635  19.478  67.387  1.00  0.00    -0.346 C  
ENDBRANCH  32  34
ENDBRANCH  30  32
ENDBRANCH  28  30
ENDBRANCH  25  28
ENDBRANCH  22  25
ENDBRANCH  18  19
ENDBRANCH  17  18
ENDBRANCH  14  17
ENDBRANCH   2   3
TORSDOF 9
ENDMDL
MODEL      118
REMARK 921   NORMALIZED FREE ENERGY PREDICTED BY IDOCK:   -5.09 KCAL/MOL
REMARK 922        TOTAL FREE ENERGY PREDICTED BY IDOCK:   -9.92 KCAL/MOL
REMARK 923 INTER-LIGAND FREE ENERGY PREDICTED BY IDOCK:   -7.76 KCAL/MOL
REMARK 924 INTRA-LIGAND FREE ENERGY PREDICTED BY IDOCK:   -2.17 KCAL/MOL
REMARK 927      BINDING AFFINITY PREDICTED BY RF-SCORE:    0.00 PKD
ROOT
HETATM    1  C   UNL     1     -12.085  13.036  63.596  1.00  0.00    -0.531 C  
HETATM    2  O   UNL     1     -11.806  13.661  64.846  1.00  0.00    -0.346 OA 
ENDROOT
BRANCH   2   3
HETATM    3  C   UNL     1     -10.784  13.104  65.563  1.00  0.00    -0.283 A  
HETATM    4  C   UNL     1     -10.530  11.741  65.657  1.00  0.00    -0.308 A  
HETATM    5  C   UNL     1      -9.423  11.283  66.386  1.00  0.00    -0.221 A  
HETATM    6  C   UNL     1      -8.585  12.174  67.075  1.00  0.00    -0.191 A  
HETATM    7  C   UNL     1      -8.832  13.548  66.937  1.00  0.00    -0.194 A  
HETATM    8  C   UNL     1      -7.410  11.643  67.890  1.00  0.00    -0.096 C  
HETATM    9  C   UNL     1      -7.493  10.120  68.065  1.00  0.00    -0.087 C  
HETATM   10  C   UNL     1      -6.094  11.889  67.118  1.00  0.00    -0.152 C  
HETATM   11  C   UNL     1      -7.317  12.306  69.275  1.00  0.00     0.183 C  
HETATM   12  C   UNL     1      -9.913  14.004  66.175  1.00  0.00    -0.325 A  
HETATM   13  O   UNL     1      -7.094   9.526  69.065  1.00  0.00    -0.064 OA 
HETATM   14  N   UNL     1      -7.908   9.468  66.919  1.00  0.00    -0.101 N  
HETATM   15  O   UNL     1      -9.767   9.083  65.619  1.00  0.00    -0.243 OA 
HETATM   16  C   UNL     1      -9.067   9.846  66.277  1.00  0.00    -0.155 C  
BRANCH  14  17
HETATM   17  C   UNL     1      -7.251   8.236  66.545  1.00  0.00    -0.076 C  
BRANCH  17  18
HETATM   18  C   UNL     1      -8.135   7.002  66.370  1.00  0.00    -0.112 C  
BRANCH  18  19
HETATM   19  C   UNL     1      -8.562   6.430  67.712  1.00  0.00    -0.116 A  
HETATM   20  C   UNL     1      -9.887   6.034  67.964  1.00  0.00    -0.137 A  
HETATM   21  C   UNL     1     -10.273   5.569  69.221  1.00  0.00    -0.315 A  
HETATM   22  C   UNL     1      -9.323   5.463  70.231  1.00  0.00    -0.154 A  
HETATM   23  C   UNL     1      -7.614   6.290  68.735  1.00  0.00    -0.092 A  
HETATM   24  C   UNL     1      -7.995   5.820  69.996  1.00  0.00    -0.099 A  
BRANCH  22  25
HETATM   25  S   UNL     1      -9.835   4.916  71.837  1.00  0.00    -0.191 S  
HETATM   26  O   UNL     1     -10.392   3.583  71.737  1.00  0.00    -0.053 OA 
HETATM   27  O   UNL     1      -8.747   5.188  72.754  1.00  0.00    -0.119 OA 
BRANCH  25  28
HETATM   28  N   UNL     1     -11.027   5.996  72.247  1.00  0.00    -0.250 N  
HETATM   29  H   UNL     1     -11.991   5.746  72.026  1.00  0.00     0.000 HD 
BRANCH  28  30
HETATM   30  C   UNL     1     -10.803   7.210  72.866  1.00  0.00    -0.323 C  
HETATM   31  O   UNL     1     -10.647   7.344  74.069  1.00  0.00    -0.284 OA 
BRANCH  30  32
HETATM   32  N   UNL     1     -10.782   8.241  71.978  1.00  0.00    -0.273 N  
HETATM   33  H   UNL     1     -10.056   8.953  72.058  1.00  0.00     0.000 HD 
BRANCH  32  34
HETATM   34  C   UNL     1     -11.775   8.352  70.915  1.00  0.00    -0.246 C  
HETATM   35  C   UNL     1     -13.047   9.054  71.407  1.00  0.00    -0.337 C  
HETATM   36  C   UNL     1     -12.787  10.520  71.750  1.00  0.00    -0.559 C  
HETATM   37  C   UNL     1     -12.142  11.275  70.590  1.00  0.00    -0.480 C  
HETATM   38  C   UNL     1     -10.917  10.565  70.016  1.00  0.00    -0.351 C  
HETATM   39  C   UNL     1     -11.194   9.094  69.708  1.00  0.00    -0.073 C  
ENDBRANCH  32  34
ENDBRANCH  30  32
ENDBRANCH  28  30
ENDBRANCH  25  28
ENDBRANCH  22  25
ENDBRANCH  18  19
ENDBRANCH  17  18
ENDBRANCH  14  17
ENDBRANCH   2   3
TORSDOF 9
ENDMDL
MODEL      119
REMARK 921   NORMALIZED FREE ENERGY PREDICTED BY IDOCK:   -5.08 KCAL/MOL
REMARK 922        TOTAL FREE ENERGY PREDICTED BY IDOCK:   -9.90 KCAL/MOL
REMARK 923 INTER-LIGAND FREE ENERGY PREDICTED BY IDOCK:   -8.39 KCAL/MOL
REMARK 924 INTRA-LIGAND FREE ENERGY PREDICTED BY IDOCK:   -1.51 KCAL/MOL
REMARK 927      BINDING AFFINITY PREDICTED BY RF-SCORE:    0.00 PKD
ROOT
HETATM    1  C   UNL     1      -9.838   3.039  62.334  1.00  0.00    -0.092 C  
HETATM    2  O   UNL     1      -8.657   3.669  62.826  1.00  0.00    -0.084 OA 
ENDROOT
BRANCH   2   3
HETATM    3  C   UNL     1      -8.798   4.327  64.015  1.00  0.00    -0.138 A  
HETATM    4  C   UNL     1      -8.316   5.604  64.279  1.00  0.00    -0.081 A  
HETATM    5  C   UNL     1      -8.558   6.200  65.524  1.00  0.00    -0.133 A  
HETATM    6  C   UNL     1      -9.237   5.513  66.543  1.00  0.00    -0.144 A  
HETATM    7  C   UNL     1      -9.751   4.241  66.248  1.00  0.00    -0.225 A  
HETATM    8  C   UNL     1      -9.453   6.174  67.900  1.00  0.00    -0.115 C  
HETATM    9  C   UNL     1      -8.609   7.450  68.041  1.00  0.00    -0.122 C  
HETATM   10  C   UNL     1     -10.919   6.647  68.016  1.00  0.00    -0.332 C  
HETATM   11  C   UNL     1      -9.131   5.225  69.067  1.00  0.00    -0.141 C  
HETATM   12  C   UNL     1      -9.544   3.665  64.990  1.00  0.00    -0.171 A  
HETATM   13  O   UNL     1      -8.133   7.838  69.106  1.00  0.00    -0.120 OA 
HETATM   14  N   UNL     1      -8.580   8.206  66.884  1.00  0.00    -0.122 N  
HETATM   15  O   UNL     1      -7.685   8.252  64.766  1.00  0.00    -0.100 OA 
HETATM   16  C   UNL     1      -8.219   7.637  65.683  1.00  0.00    -0.136 C  
BRANCH  14  17
HETATM   17  C   UNL     1      -8.688   9.644  66.992  1.00  0.00    -0.128 C  
BRANCH  17  18
HETATM   18  C   UNL     1     -10.031  10.270  66.617  1.00  0.00    -0.270 C  
BRANCH  18  19
HETATM   19  C   UNL     1     -10.199  11.643  67.247  1.00  0.00    -0.226 A  
HETATM   20  C   UNL     1     -11.464  12.232  67.421  1.00  0.00    -0.422 A  
HETATM   21  C   UNL     1     -11.593  13.517  67.945  1.00  0.00    -0.377 A  
HETATM   22  C   UNL     1     -10.454  14.214  68.335  1.00  0.00    -0.254 A  
HETATM   23  C   UNL     1      -9.066  12.351  67.671  1.00  0.00    -0.186 A  
HETATM   24  C   UNL     1      -9.190  13.638  68.201  1.00  0.00    -0.204 A  
BRANCH  22  25
HETATM   25  S   UNL     1     -10.628  15.865  68.955  1.00  0.00    -0.268 S  
HETATM   26  O   UNL     1     -11.779  15.932  69.831  1.00  0.00    -0.333 OA 
HETATM   27  O   UNL     1      -9.325  16.290  69.425  1.00  0.00    -0.232 OA 
BRANCH  25  28
HETATM   28  N   UNL     1     -10.908  16.761  67.586  1.00  0.00    -0.298 N  
HETATM   29  H   UNL     1     -11.768  17.308  67.543  1.00  0.00     0.000 HD 
BRANCH  28  30
HETATM   30  C   UNL     1     -10.056  16.815  66.500  1.00  0.00    -0.315 C  
HETATM   31  O   UNL     1     -10.318  16.348  65.403  1.00  0.00    -0.535 OA 
BRANCH  30  32
HETATM   32  N   UNL     1      -8.887  17.444  66.798  1.00  0.00    -0.242 N  
HETATM   33  H   UNL     1      -8.124  16.909  67.211  1.00  0.00     0.000 HD 
BRANCH  32  34
HETATM   34  C   UNL     1      -8.700  18.868  66.538  1.00  0.00    -0.316 C  
HETATM   35  C   UNL     1      -8.951  19.704  67.800  1.00  0.00    -0.385 C  
HETATM   36  C   UNL     1      -7.896  19.438  68.873  1.00  0.00    -0.370 C  
HETATM   37  C   UNL     1      -6.477  19.631  68.344  1.00  0.00    -0.291 C  
HETATM   38  C   UNL     1      -6.212  18.878  67.042  1.00  0.00    -0.192 C  
HETATM   39  C   UNL     1      -7.295  19.138  65.995  1.00  0.00    -0.295 C  
ENDBRANCH  32  34
ENDBRANCH  30  32
ENDBRANCH  28  30
ENDBRANCH  25  28
ENDBRANCH  22  25
ENDBRANCH  18  19
ENDBRANCH  17  18
ENDBRANCH  14  17
ENDBRANCH   2   3
TORSDOF 9
ENDMDL
MODEL      120
REMARK 921   NORMALIZED FREE ENERGY PREDICTED BY IDOCK:   -5.06 KCAL/MOL
REMARK 922        TOTAL FREE ENERGY PREDICTED BY IDOCK:   -9.87 KCAL/MOL
REMARK 923 INTER-LIGAND FREE ENERGY PREDICTED BY IDOCK:   -9.39 KCAL/MOL
REMARK 924 INTRA-LIGAND FREE ENERGY PREDICTED BY IDOCK:   -0.48 KCAL/MOL
REMARK 927      BINDING AFFINITY PREDICTED BY RF-SCORE:    0.00 PKD
ROOT
HETATM    1  C   UNL     1      -5.805  20.233  64.234  1.00  0.00    -0.257 C  
HETATM    2  O   UNL     1      -6.716  20.450  65.309  1.00  0.00    -0.282 OA 
ENDROOT
BRANCH   2   3
HETATM    3  C   UNL     1      -7.087  19.329  65.997  1.00  0.00    -0.269 A  
HETATM    4  C   UNL     1      -8.392  18.863  66.112  1.00  0.00    -0.209 A  
HETATM    5  C   UNL     1      -8.652  17.674  66.806  1.00  0.00    -0.276 A  
HETATM    6  C   UNL     1      -7.623  16.959  67.441  1.00  0.00    -0.185 A  
HETATM    7  C   UNL     1      -6.308  17.422  67.282  1.00  0.00    -0.172 A  
HETATM    8  C   UNL     1      -7.942  15.688  68.220  1.00  0.00    -0.129 C  
HETATM    9  C   UNL     1      -9.455  15.527  68.433  1.00  0.00    -0.196 C  
HETATM   10  C   UNL     1      -7.519  14.455  67.391  1.00  0.00    -0.183 C  
HETATM   11  C   UNL     1      -7.234  15.650  69.585  1.00  0.00    -0.153 C  
HETATM   12  C   UNL     1      -6.046  18.587  66.553  1.00  0.00    -0.187 A  
HETATM   13  O   UNL     1      -9.951  15.005  69.429  1.00  0.00    -0.220 OA 
HETATM   14  N   UNL     1     -10.195  15.877  67.319  1.00  0.00    -0.272 N  
HETATM   15  O   UNL     1     -10.900  17.698  66.104  1.00  0.00    -0.167 OA 
HETATM   16  C   UNL     1     -10.019  17.103  66.716  1.00  0.00    -0.291 C  
BRANCH  14  17
HETATM   17  C   UNL     1     -11.321  15.051  66.948  1.00  0.00    -0.302 C  
BRANCH  17  18
HETATM   18  C   UNL     1     -11.858  14.089  68.008  1.00  0.00    -0.403 C  
BRANCH  18  19
HETATM   19  C   UNL     1     -11.417  12.660  67.735  1.00  0.00    -0.375 A  
HETATM   20  C   UNL     1     -11.568  11.639  68.690  1.00  0.00    -0.373 A  
HETATM   21  C   UNL     1     -11.102  10.349  68.443  1.00  0.00    -0.322 A  
HETATM   22  C   UNL     1     -10.510  10.058  67.219  1.00  0.00    -0.254 A  
HETATM   23  C   UNL     1     -10.842  12.340  66.497  1.00  0.00    -0.297 A  
HETATM   24  C   UNL     1     -10.377  11.046  66.243  1.00  0.00    -0.304 A  
BRANCH  22  25
HETATM   25  S   UNL     1      -9.879   8.426  66.937  1.00  0.00    -0.271 S  
HETATM   26  O   UNL     1     -10.978   7.484  66.903  1.00  0.00    -0.292 OA 
HETATM   27  O   UNL     1      -8.950   8.508  65.828  1.00  0.00    -0.182 OA 
BRANCH  25  28
HETATM   28  N   UNL     1      -8.935   8.144  68.273  1.00  0.00    -0.136 N  
HETATM   29  H   UNL     1      -8.424   8.933  68.669  1.00  0.00     0.000 HD 
BRANCH  28  30
HETATM   30  C   UNL     1      -8.797   6.915  68.886  1.00  0.00    -0.129 C  
HETATM   31  O   UNL     1      -8.279   5.943  68.359  1.00  0.00    -0.108 OA 
BRANCH  30  32
HETATM   32  N   UNL     1      -9.310   6.910  70.147  1.00  0.00    -0.159 N  
HETATM   33  H   UNL     1      -8.819   6.404  70.884  1.00  0.00     0.000 HD 
BRANCH  32  34
HETATM   34  C   UNL     1     -10.548   7.613  70.468  1.00  0.00    -0.226 C  
HETATM   35  C   UNL     1     -11.613   6.651  71.011  1.00  0.00    -0.399 C  
HETATM   36  C   UNL     1     -11.215   6.077  72.369  1.00  0.00    -0.338 C  
HETATM   37  C   UNL     1     -10.879   7.170  73.380  1.00  0.00    -0.360 C  
HETATM   38  C   UNL     1      -9.881   8.197  72.847  1.00  0.00    -0.339 C  
HETATM   39  C   UNL     1     -10.286   8.736  71.475  1.00  0.00    -0.374 C  
ENDBRANCH  32  34
ENDBRANCH  30  32
ENDBRANCH  28  30
ENDBRANCH  25  28
ENDBRANCH  22  25
ENDBRANCH  18  19
ENDBRANCH  17  18
ENDBRANCH  14  17
ENDBRANCH   2   3
TORSDOF 9
ENDMDL
MODEL      121
REMARK 921   NORMALIZED FREE ENERGY PREDICTED BY IDOCK:   -5.05 KCAL/MOL
REMARK 922        TOTAL FREE ENERGY PREDICTED BY IDOCK:   -9.86 KCAL/MOL
REMARK 923 INTER-LIGAND FREE ENERGY PREDICTED BY IDOCK:   -7.71 KCAL/MOL
REMARK 924 INTRA-LIGAND FREE ENERGY PREDICTED BY IDOCK:   -2.15 KCAL/MOL
REMARK 927      BINDING AFFINITY PREDICTED BY RF-SCORE:    0.00 PKD
ROOT
HETATM    1  C   UNL     1      -7.409  20.034  67.875  1.00  0.00    -0.297 C  
HETATM    2  O   UNL     1      -7.856  19.721  66.559  1.00  0.00    -0.270 OA 
ENDROOT
BRANCH   2   3
HETATM    3  C   UNL     1      -8.505  18.524  66.431  1.00  0.00    -0.258 A  
HETATM    4  C   UNL     1      -7.918  17.278  66.615  1.00  0.00    -0.296 A  
HETATM    5  C   UNL     1      -8.692  16.116  66.502  1.00  0.00    -0.337 A  
HETATM    6  C   UNL     1     -10.051  16.175  66.150  1.00  0.00    -0.356 A  
HETATM    7  C   UNL     1     -10.637  17.441  66.007  1.00  0.00    -0.210 A  
HETATM    8  C   UNL     1     -10.858  14.890  65.999  1.00  0.00    -0.328 C  
HETATM    9  C   UNL     1      -9.946  13.654  65.982  1.00  0.00    -0.302 C  
HETATM   10  C   UNL     1     -11.767  14.703  67.234  1.00  0.00    -0.406 C  
HETATM   11  C   UNL     1     -11.725  14.895  64.727  1.00  0.00    -0.402 C  
HETATM   12  C   UNL     1      -9.871  18.602  66.162  1.00  0.00    -0.308 A  
HETATM   13  O   UNL     1     -10.187  12.638  65.333  1.00  0.00    -0.281 OA 
HETATM   14  N   UNL     1      -8.914  13.735  66.898  1.00  0.00    -0.239 N  
HETATM   15  O   UNL     1      -6.910  14.793  67.289  1.00  0.00    -0.255 OA 
HETATM   16  C   UNL     1      -8.079  14.830  66.920  1.00  0.00    -0.048 C  
BRANCH  14  17
HETATM   17  C   UNL     1      -8.571  12.556  67.661  1.00  0.00    -0.178 C  
BRANCH  17  18
HETATM   18  C   UNL     1      -7.349  11.761  67.200  1.00  0.00    -0.146 C  
BRANCH  18  19
HETATM   19  C   UNL     1      -7.068  10.589  68.127  1.00  0.00    -0.082 A  
HETATM   20  C   UNL     1      -6.910   9.279  67.642  1.00  0.00    -0.076 A  
HETATM   21  C   UNL     1      -6.714   8.208  68.514  1.00  0.00    -0.063 A  
HETATM   22  C   UNL     1      -6.638   8.446  69.882  1.00  0.00    -0.038 A  
HETATM   23  C   UNL     1      -6.961  10.811  69.507  1.00  0.00    -0.130 A  
HETATM   24  C   UNL     1      -6.760   9.742  70.384  1.00  0.00    -0.123 A  
BRANCH  22  25
HETATM   25  S   UNL     1      -6.435   7.071  70.982  1.00  0.00    -0.044 S  
HETATM   26  O   UNL     1      -6.220   5.865  70.210  1.00  0.00    -0.028 OA 
HETATM   27  O   UNL     1      -5.484   7.469  72.000  1.00  0.00    -0.036 OA 
BRANCH  25  28
HETATM   28  N   UNL     1      -7.898   6.988  71.763  1.00  0.00    -0.094 N  
HETATM   29  H   UNL     1      -8.036   7.583  72.579  1.00  0.00     0.000 HD 
BRANCH  28  30
HETATM   30  C   UNL     1      -8.941   6.167  71.382  1.00  0.00    -0.143 C  
HETATM   31  O   UNL     1      -9.446   5.324  72.105  1.00  0.00    -0.142 OA 
BRANCH  30  32
HETATM   32  N   UNL     1      -9.337   6.403  70.101  1.00  0.00    -0.157 N  
HETATM   33  H   UNL     1      -8.648   6.357  69.350  1.00  0.00     0.000 HD 
BRANCH  32  34
HETATM   34  C   UNL     1     -10.723   6.721  69.778  1.00  0.00    -0.249 C  
HETATM   35  C   UNL     1     -11.073   8.163  70.169  1.00  0.00    -0.187 C  
HETATM   36  C   UNL     1     -10.311   9.179  69.321  1.00  0.00    -0.223 C  
HETATM   37  C   UNL     1     -10.506   8.941  67.826  1.00  0.00    -0.300 C  
HETATM   38  C   UNL     1     -10.246   7.494  67.408  1.00  0.00    -0.318 C  
HETATM   39  C   UNL     1     -10.997   6.496  68.289  1.00  0.00    -0.362 C  
ENDBRANCH  32  34
ENDBRANCH  30  32
ENDBRANCH  28  30
ENDBRANCH  25  28
ENDBRANCH  22  25
ENDBRANCH  18  19
ENDBRANCH  17  18
ENDBRANCH  14  17
ENDBRANCH   2   3
TORSDOF 9
ENDMDL
MODEL      122
REMARK 921   NORMALIZED FREE ENERGY PREDICTED BY IDOCK:   -5.05 KCAL/MOL
REMARK 922        TOTAL FREE ENERGY PREDICTED BY IDOCK:   -9.86 KCAL/MOL
REMARK 923 INTER-LIGAND FREE ENERGY PREDICTED BY IDOCK:   -8.27 KCAL/MOL
REMARK 924 INTRA-LIGAND FREE ENERGY PREDICTED BY IDOCK:   -1.59 KCAL/MOL
REMARK 927      BINDING AFFINITY PREDICTED BY RF-SCORE:    0.00 PKD
ROOT
HETATM    1  C   UNL     1      -5.814  10.160  64.405  1.00  0.00    -0.131 C  
HETATM    2  O   UNL     1      -7.021   9.927  65.128  1.00  0.00    -0.114 OA 
ENDROOT
BRANCH   2   3
HETATM    3  C   UNL     1      -7.259   8.623  65.463  1.00  0.00    -0.084 A  
HETATM    4  C   UNL     1      -7.010   8.065  66.711  1.00  0.00    -0.073 A  
HETATM    5  C   UNL     1      -7.337   6.725  66.957  1.00  0.00    -0.082 A  
HETATM    6  C   UNL     1      -7.867   5.906  65.947  1.00  0.00    -0.105 A  
HETATM    7  C   UNL     1      -8.149   6.495  64.705  1.00  0.00    -0.112 A  
HETATM    8  C   UNL     1      -8.178   4.441  66.235  1.00  0.00    -0.102 C  
HETATM    9  C   UNL     1      -7.574   3.993  67.574  1.00  0.00    -0.068 C  
HETATM   10  C   UNL     1      -9.703   4.260  66.400  1.00  0.00    -0.228 C  
HETATM   11  C   UNL     1      -7.675   3.510  65.118  1.00  0.00    -0.081 C  
HETATM   12  C   UNL     1      -7.861   7.844  64.475  1.00  0.00    -0.134 A  
HETATM   13  O   UNL     1      -7.159   2.856  67.788  1.00  0.00    -0.048 OA 
HETATM   14  N   UNL     1      -7.697   4.948  68.566  1.00  0.00    -0.077 N  
HETATM   15  O   UNL     1      -6.856   6.977  69.249  1.00  0.00    -0.051 OA 
HETATM   16  C   UNL     1      -7.258   6.237  68.357  1.00  0.00    -0.085 C  
BRANCH  14  17
HETATM   17  C   UNL     1      -8.060   4.521  69.898  1.00  0.00    -0.067 C  
BRANCH  17  18
HETATM   18  C   UNL     1      -9.511   4.095  70.122  1.00  0.00    -0.254 C  
BRANCH  18  19
HETATM   19  C   UNL     1     -10.390   5.283  70.478  1.00  0.00    -0.336 A  
HETATM   20  C   UNL     1     -10.878   6.166  69.500  1.00  0.00    -0.428 A  
HETATM   21  C   UNL     1     -11.632   7.285  69.853  1.00  0.00    -0.021 A  
HETATM   22  C   UNL     1     -11.935   7.510  71.191  1.00  0.00    -0.308 A  
HETATM   23  C   UNL     1     -10.729   5.513  71.819  1.00  0.00    -0.289 A  
HETATM   24  C   UNL     1     -11.488   6.630  72.177  1.00  0.00    -0.323 A  
BRANCH  22  25
HETATM   25  S   UNL     1     -12.854   8.961  71.631  1.00  0.00    -0.362 S  
HETATM   26  O   UNL     1     -14.055   9.033  70.826  1.00  0.00     0.043 OA 
HETATM   27  O   UNL     1     -12.938   8.997  73.077  1.00  0.00    -0.277 OA 
BRANCH  25  28
HETATM   28  N   UNL     1     -11.827  10.201  71.225  1.00  0.00    -0.370 N  
HETATM   29  H   UNL     1     -10.854  10.130  71.522  1.00  0.00     0.000 HD 
BRANCH  28  30
HETATM   30  C   UNL     1     -12.201  11.323  70.511  1.00  0.00    -0.383 C  
HETATM   31  O   UNL     1     -12.449  11.321  69.316  1.00  0.00    -0.331 OA 
BRANCH  30  32
HETATM   32  N   UNL     1     -12.255  12.434  71.295  1.00  0.00    -0.230 N  
HETATM   33  H   UNL     1     -11.684  12.476  72.140  1.00  0.00     0.000 HD 
BRANCH  32  34
HETATM   34  C   UNL     1     -13.109  13.566  70.956  1.00  0.00    -0.148 C  
HETATM   35  C   UNL     1     -13.915  14.044  72.171  1.00  0.00    -0.633 C  
HETATM   36  C   UNL     1     -13.012  14.642  73.248  1.00  0.00    -0.569 C  
HETATM   37  C   UNL     1     -12.118  15.750  72.697  1.00  0.00    -0.591 C  
HETATM   38  C   UNL     1     -11.359  15.340  71.436  1.00  0.00    -0.419 C  
HETATM   39  C   UNL     1     -12.278  14.719  70.386  1.00  0.00    -0.395 C  
ENDBRANCH  32  34
ENDBRANCH  30  32
ENDBRANCH  28  30
ENDBRANCH  25  28
ENDBRANCH  22  25
ENDBRANCH  18  19
ENDBRANCH  17  18
ENDBRANCH  14  17
ENDBRANCH   2   3
TORSDOF 9
ENDMDL
MODEL      123
REMARK 921   NORMALIZED FREE ENERGY PREDICTED BY IDOCK:   -5.05 KCAL/MOL
REMARK 922        TOTAL FREE ENERGY PREDICTED BY IDOCK:   -9.86 KCAL/MOL
REMARK 923 INTER-LIGAND FREE ENERGY PREDICTED BY IDOCK:   -9.68 KCAL/MOL
REMARK 924 INTRA-LIGAND FREE ENERGY PREDICTED BY IDOCK:   -0.18 KCAL/MOL
REMARK 927      BINDING AFFINITY PREDICTED BY RF-SCORE:    0.00 PKD
ROOT
HETATM    1  C   UNL     1      -9.397   3.437  67.467  1.00  0.00    -0.204 C  
HETATM    2  O   UNL     1     -10.215   4.422  66.841  1.00  0.00    -0.181 OA 
ENDROOT
BRANCH   2   3
HETATM    3  C   UNL     1     -10.205   5.653  67.434  1.00  0.00    -0.205 A  
HETATM    4  C   UNL     1     -10.109   6.862  66.755  1.00  0.00    -0.264 A  
HETATM    5  C   UNL     1     -10.154   8.070  67.465  1.00  0.00    -0.281 A  
HETATM    6  C   UNL     1     -10.243   8.090  68.866  1.00  0.00    -0.220 A  
HETATM    7  C   UNL     1     -10.380   6.863  69.533  1.00  0.00    -0.224 A  
HETATM    8  C   UNL     1     -10.253   9.419  69.613  1.00  0.00    -0.225 C  
HETATM    9  C   UNL     1      -9.867  10.584  68.689  1.00  0.00    -0.178 C  
HETATM   10  C   UNL     1     -11.691   9.737  70.081  1.00  0.00    -0.190 C  
HETATM   11  C   UNL     1      -9.314   9.408  70.831  1.00  0.00    -0.263 C  
HETATM   12  C   UNL     1     -10.376   5.660  68.818  1.00  0.00    -0.288 A  
HETATM   13  O   UNL     1      -9.251  11.578  69.067  1.00  0.00    -0.042 OA 
HETATM   14  N   UNL     1     -10.425  10.478  67.429  1.00  0.00    -0.227 N  
HETATM   15  O   UNL     1     -10.256   9.301  65.460  1.00  0.00    -0.026 OA 
HETATM   16  C   UNL     1     -10.269   9.329  66.686  1.00  0.00    -0.253 C  
BRANCH  14  17
HETATM   17  C   UNL     1     -10.957  11.668  66.804  1.00  0.00    -0.290 C  
BRANCH  17  18
HETATM   18  C   UNL     1     -10.070  12.369  65.775  1.00  0.00    -0.273 C  
BRANCH  18  19
HETATM   19  C   UNL     1     -10.147  13.881  65.915  1.00  0.00    -0.331 A  
HETATM   20  C   UNL     1     -10.708  14.693  64.914  1.00  0.00    -0.447 A  
HETATM   21  C   UNL     1     -10.714  16.082  65.034  1.00  0.00    -0.400 A  
HETATM   22  C   UNL     1     -10.186  16.672  66.178  1.00  0.00    -0.348 A  
HETATM   23  C   UNL     1      -9.645  14.493  67.072  1.00  0.00    -0.250 A  
HETATM   24  C   UNL     1      -9.652  15.885  67.199  1.00  0.00    -0.224 A  
BRANCH  22  25
HETATM   25  S   UNL     1     -10.157  18.440  66.296  1.00  0.00    -0.373 S  
HETATM   26  O   UNL     1     -10.804  19.012  65.135  1.00  0.00    -0.478 OA 
HETATM   27  O   UNL     1     -10.602  18.791  67.630  1.00  0.00    -0.415 OA 
BRANCH  25  28
HETATM   28  N   UNL     1      -8.536  18.797  66.272  1.00  0.00    -0.277 N  
HETATM   29  H   UNL     1      -7.917  18.165  65.764  1.00  0.00     0.000 HD 
BRANCH  28  30
HETATM   30  C   UNL     1      -7.968  19.892  66.893  1.00  0.00    -0.306 C  
HETATM   31  O   UNL     1      -8.019  20.099  68.094  1.00  0.00    -0.259 OA 
BRANCH  30  32
HETATM   32  N   UNL     1      -7.349  20.719  66.007  1.00  0.00    -0.501 N  
HETATM   33  H   UNL     1      -7.914  21.317  65.404  1.00  0.00     0.000 HD 
BRANCH  32  34
HETATM   34  C   UNL     1      -5.895  20.770  65.899  1.00  0.00    -0.228 C  
HETATM   35  C   UNL     1      -5.270  19.382  66.092  1.00  0.00    -0.159 C  
HETATM   36  C   UNL     1      -5.638  18.433  64.953  1.00  0.00    -0.168 C  
HETATM   37  C   UNL     1      -5.294  19.017  63.585  1.00  0.00    -0.294 C  
HETATM   38  C   UNL     1      -5.830  20.433  63.383  1.00  0.00    -0.292 C  
HETATM   39  C   UNL     1      -5.473  21.356  64.549  1.00  0.00    -0.096 C  
ENDBRANCH  32  34
ENDBRANCH  30  32
ENDBRANCH  28  30
ENDBRANCH  25  28
ENDBRANCH  22  25
ENDBRANCH  18  19
ENDBRANCH  17  18
ENDBRANCH  14  17
ENDBRANCH   2   3
TORSDOF 9
ENDMDL
MODEL      124
REMARK 921   NORMALIZED FREE ENERGY PREDICTED BY IDOCK:   -5.04 KCAL/MOL
REMARK 922        TOTAL FREE ENERGY PREDICTED BY IDOCK:   -9.83 KCAL/MOL
REMARK 923 INTER-LIGAND FREE ENERGY PREDICTED BY IDOCK:   -9.21 KCAL/MOL
REMARK 924 INTRA-LIGAND FREE ENERGY PREDICTED BY IDOCK:   -0.63 KCAL/MOL
REMARK 927      BINDING AFFINITY PREDICTED BY RF-SCORE:    0.00 PKD
ROOT
HETATM    1  C   UNL     1      -8.828   3.845  65.496  1.00  0.00    -0.124 C  
HETATM    2  O   UNL     1      -9.267   5.177  65.753  1.00  0.00    -0.153 OA 
ENDROOT
BRANCH   2   3
HETATM    3  C   UNL     1      -9.467   5.483  67.069  1.00  0.00    -0.131 A  
HETATM    4  C   UNL     1      -9.438   6.767  67.601  1.00  0.00    -0.126 A  
HETATM    5  C   UNL     1      -9.702   6.969  68.962  1.00  0.00    -0.145 A  
HETATM    6  C   UNL     1      -9.948   5.888  69.825  1.00  0.00    -0.236 A  
HETATM    7  C   UNL     1     -10.014   4.603  69.266  1.00  0.00    -0.231 A  
HETATM    8  C   UNL     1     -10.196   6.136  71.309  1.00  0.00    -0.252 C  
HETATM    9  C   UNL     1      -9.848   7.580  71.702  1.00  0.00    -0.161 C  
HETATM   10  C   UNL     1     -11.704   5.989  71.611  1.00  0.00    -0.209 C  
HETATM   11  C   UNL     1      -9.403   5.165  72.201  1.00  0.00    -0.162 C  
HETATM   12  C   UNL     1      -9.790   4.409  67.899  1.00  0.00    -0.141 A  
HETATM   13  O   UNL     1      -9.399   7.898  72.801  1.00  0.00    -0.185 OA 
HETATM   14  N   UNL     1     -10.247   8.505  70.755  1.00  0.00    -0.192 N  
HETATM   15  O   UNL     1      -9.725   9.304  68.663  1.00  0.00    -0.146 OA 
HETATM   16  C   UNL     1      -9.876   8.365  69.436  1.00  0.00    -0.185 C  
BRANCH  14  17
HETATM   17  C   UNL     1     -10.841   9.744  71.204  1.00  0.00    -0.263 C  
BRANCH  17  18
HETATM   18  C   UNL     1     -11.944  10.342  70.332  1.00  0.00    -0.409 C  
BRANCH  18  19
HETATM   19  C   UNL     1     -11.590  11.749  69.876  1.00  0.00    -0.351 A  
HETATM   20  C   UNL     1     -10.701  11.984  68.812  1.00  0.00    -0.252 A  
HETATM   21  C   UNL     1     -10.341  13.281  68.449  1.00  0.00    -0.254 A  
HETATM   22  C   UNL     1     -10.898  14.360  69.127  1.00  0.00    -0.257 A  
HETATM   23  C   UNL     1     -12.161  12.850  70.529  1.00  0.00    -0.364 A  
HETATM   24  C   UNL     1     -11.806  14.152  70.166  1.00  0.00    -0.382 A  
BRANCH  22  25
HETATM   25  S   UNL     1     -10.396  16.002  68.687  1.00  0.00    -0.255 S  
HETATM   26  O   UNL     1     -11.505  16.912  68.878  1.00  0.00    -0.048 OA 
HETATM   27  O   UNL     1      -9.123  16.252  69.332  1.00  0.00    -0.215 OA 
BRANCH  25  28
HETATM   28  N   UNL     1     -10.044  15.873  67.070  1.00  0.00    -0.262 N  
HETATM   29  H   UNL     1      -9.849  14.943  66.697  1.00  0.00     0.000 HD 
BRANCH  28  30
HETATM   30  C   UNL     1      -9.997  16.939  66.193  1.00  0.00    -0.315 C  
HETATM   31  O   UNL     1     -10.778  17.100  65.270  1.00  0.00    -0.629 OA 
BRANCH  30  32
HETATM   32  N   UNL     1      -8.971  17.788  66.475  1.00  0.00    -0.266 N  
HETATM   33  H   UNL     1      -8.043  17.406  66.658  1.00  0.00     0.000 HD 
BRANCH  32  34
HETATM   34  C   UNL     1      -9.168  19.233  66.520  1.00  0.00    -0.350 C  
HETATM   35  C   UNL     1      -9.592  19.696  67.920  1.00  0.00    -0.459 C  
HETATM   36  C   UNL     1      -8.475  19.498  68.943  1.00  0.00    -0.291 C  
HETATM   37  C   UNL     1      -7.170  20.159  68.505  1.00  0.00    -0.236 C  
HETATM   38  C   UNL     1      -6.755  19.786  67.083  1.00  0.00    -0.230 C  
HETATM   39  C   UNL     1      -7.897  19.966  66.083  1.00  0.00    -0.340 C  
ENDBRANCH  32  34
ENDBRANCH  30  32
ENDBRANCH  28  30
ENDBRANCH  25  28
ENDBRANCH  22  25
ENDBRANCH  18  19
ENDBRANCH  17  18
ENDBRANCH  14  17
ENDBRANCH   2   3
TORSDOF 9
ENDMDL
MODEL      125
REMARK 921   NORMALIZED FREE ENERGY PREDICTED BY IDOCK:   -5.03 KCAL/MOL
REMARK 922        TOTAL FREE ENERGY PREDICTED BY IDOCK:   -9.83 KCAL/MOL
REMARK 923 INTER-LIGAND FREE ENERGY PREDICTED BY IDOCK:   -7.39 KCAL/MOL
REMARK 924 INTRA-LIGAND FREE ENERGY PREDICTED BY IDOCK:   -2.44 KCAL/MOL
REMARK 927      BINDING AFFINITY PREDICTED BY RF-SCORE:    0.00 PKD
ROOT
HETATM    1  C   UNL     1     -10.217   4.085  64.259  1.00  0.00    -0.182 C  
HETATM    2  O   UNL     1      -9.413   3.679  65.364  1.00  0.00    -0.153 OA 
ENDROOT
BRANCH   2   3
HETATM    3  C   UNL     1      -9.607   4.384  66.518  1.00  0.00    -0.197 A  
HETATM    4  C   UNL     1      -8.750   4.369  67.612  1.00  0.00    -0.113 A  
HETATM    5  C   UNL     1      -9.026   5.169  68.729  1.00  0.00    -0.120 A  
HETATM    6  C   UNL     1     -10.188   5.956  68.795  1.00  0.00    -0.243 A  
HETATM    7  C   UNL     1     -11.021   5.991  67.667  1.00  0.00    -0.334 A  
HETATM    8  C   UNL     1     -10.480   6.788  70.039  1.00  0.00    -0.241 C  
HETATM    9  C   UNL     1      -9.551   6.403  71.200  1.00  0.00    -0.174 C  
HETATM   10  C   UNL     1     -10.170   8.273  69.750  1.00  0.00    -0.204 C  
HETATM   11  C   UNL     1     -11.942   6.654  70.498  1.00  0.00    -0.377 C  
HETATM   12  C   UNL     1     -10.722   5.223  66.536  1.00  0.00    -0.290 A  
HETATM   13  O   UNL     1      -9.886   6.439  72.382  1.00  0.00    -0.167 OA 
HETATM   14  N   UNL     1      -8.249   6.173  70.794  1.00  0.00    -0.123 N  
HETATM   15  O   UNL     1      -6.936   4.649  69.680  1.00  0.00    -0.047 OA 
HETATM   16  C   UNL     1      -7.978   5.288  69.774  1.00  0.00    -0.080 C  
BRANCH  14  17
HETATM   17  C   UNL     1      -7.169   6.679  71.610  1.00  0.00    -0.085 C  
BRANCH  17  18
HETATM   18  C   UNL     1      -6.025   7.391  70.888  1.00  0.00    -0.035 C  
BRANCH  18  19
HETATM   19  C   UNL     1      -6.548   8.451  69.931  1.00  0.00    -0.038 A  
HETATM   20  C   UNL     1      -6.967   9.715  70.380  1.00  0.00    -0.128 A  
HETATM   21  C   UNL     1      -7.501  10.652  69.496  1.00  0.00    -0.132 A  
HETATM   22  C   UNL     1      -7.586  10.343  68.143  1.00  0.00    -0.091 A  
HETATM   23  C   UNL     1      -6.617   8.169  68.560  1.00  0.00    -0.058 A  
HETATM   24  C   UNL     1      -7.147   9.106  67.668  1.00  0.00    -0.082 A  
BRANCH  22  25
HETATM   25  S   UNL     1      -8.309  11.524  67.036  1.00  0.00    -0.170 S  
HETATM   26  O   UNL     1      -7.666  12.808  67.215  1.00  0.00    -0.163 OA 
HETATM   27  O   UNL     1      -8.367  10.909  65.725  1.00  0.00    -0.166 OA 
BRANCH  25  28
HETATM   28  N   UNL     1      -9.887  11.608  67.545  1.00  0.00    -0.186 N  
HETATM   29  H   UNL     1     -10.133  11.133  68.414  1.00  0.00     0.000 HD 
BRANCH  28  30
HETATM   30  C   UNL     1     -10.891  12.277  66.872  1.00  0.00    -0.251 C  
HETATM   31  O   UNL     1     -12.056  11.915  66.849  1.00  0.00    -0.599 OA 
BRANCH  30  32
HETATM   32  N   UNL     1     -10.427  13.384  66.231  1.00  0.00    -0.284 N  
HETATM   33  H   UNL     1      -9.613  13.303  65.622  1.00  0.00     0.000 HD 
BRANCH  32  34
HETATM   34  C   UNL     1     -11.068  14.684  66.396  1.00  0.00    -0.334 C  
HETATM   35  C   UNL     1     -11.110  15.105  67.870  1.00  0.00    -0.322 C  
HETATM   36  C   UNL     1      -9.711  15.371  68.422  1.00  0.00    -0.211 C  
HETATM   37  C   UNL     1      -8.941  16.380  67.573  1.00  0.00    -0.197 C  
HETATM   38  C   UNL     1      -8.944  16.039  66.084  1.00  0.00    -0.381 C  
HETATM   39  C   UNL     1     -10.351  15.749  65.562  1.00  0.00    -0.430 C  
ENDBRANCH  32  34
ENDBRANCH  30  32
ENDBRANCH  28  30
ENDBRANCH  25  28
ENDBRANCH  22  25
ENDBRANCH  18  19
ENDBRANCH  17  18
ENDBRANCH  14  17
ENDBRANCH   2   3
TORSDOF 9
ENDMDL
MODEL      126
REMARK 921   NORMALIZED FREE ENERGY PREDICTED BY IDOCK:   -5.02 KCAL/MOL
REMARK 922        TOTAL FREE ENERGY PREDICTED BY IDOCK:   -9.81 KCAL/MOL
REMARK 923 INTER-LIGAND FREE ENERGY PREDICTED BY IDOCK:   -7.48 KCAL/MOL
REMARK 924 INTRA-LIGAND FREE ENERGY PREDICTED BY IDOCK:   -2.33 KCAL/MOL
REMARK 927      BINDING AFFINITY PREDICTED BY RF-SCORE:    0.00 PKD
ROOT
HETATM    1  C   UNL     1      -8.912  19.714  66.507  1.00  0.00    -0.369 C  
HETATM    2  O   UNL     1      -7.912  18.787  66.093  1.00  0.00    -0.349 OA 
ENDROOT
BRANCH   2   3
HETATM    3  C   UNL     1      -8.108  17.496  66.495  1.00  0.00    -0.270 A  
HETATM    4  C   UNL     1      -9.321  16.819  66.432  1.00  0.00    -0.305 A  
HETATM    5  C   UNL     1      -9.396  15.478  66.831  1.00  0.00    -0.252 A  
HETATM    6  C   UNL     1      -8.276  14.807  67.350  1.00  0.00    -0.216 A  
HETATM    7  C   UNL     1      -7.052  15.491  67.369  1.00  0.00    -0.235 A  
HETATM    8  C   UNL     1      -8.399  13.359  67.810  1.00  0.00    -0.178 C  
HETATM    9  C   UNL     1      -9.868  12.921  67.899  1.00  0.00    -0.227 C  
HETATM   10  C   UNL     1      -7.764  12.426  66.754  1.00  0.00     0.115 C  
HETATM   11  C   UNL     1      -7.719  13.122  69.170  1.00  0.00     0.303 C  
HETATM   12  C   UNL     1      -6.970  16.817  66.931  1.00  0.00    -0.257 A  
HETATM   13  O   UNL     1     -10.292  12.116  68.726  1.00  0.00    -0.215 OA 
HETATM   14  N   UNL     1     -10.634  13.395  66.850  1.00  0.00    -0.271 N  
HETATM   15  O   UNL     1     -11.604  15.312  66.029  1.00  0.00    -0.175 OA 
HETATM   16  C   UNL     1     -10.650  14.737  66.543  1.00  0.00    -0.299 C  
BRANCH  14  17
HETATM   17  C   UNL     1     -11.603  12.510  66.244  1.00  0.00    -0.394 C  
BRANCH  17  18
HETATM   18  C   UNL     1     -11.231  11.889  64.897  1.00  0.00    -0.350 C  
BRANCH  18  19
HETATM   19  C   UNL     1     -10.354  10.661  65.076  1.00  0.00    -0.341 A  
HETATM   20  C   UNL     1     -10.449   9.837  66.211  1.00  0.00    -0.160 A  
HETATM   21  C   UNL     1      -9.593   8.750  66.385  1.00  0.00    -0.316 A  
HETATM   22  C   UNL     1      -8.654   8.456  65.403  1.00  0.00    -0.167 A  
HETATM   23  C   UNL     1      -9.418  10.331  64.085  1.00  0.00    -0.358 A  
HETATM   24  C   UNL     1      -8.561   9.240  64.252  1.00  0.00    -0.214 A  
BRANCH  22  25
HETATM   25  S   UNL     1      -7.541   7.100  65.658  1.00  0.00    -0.098 S  
HETATM   26  O   UNL     1      -7.552   6.241  64.493  1.00  0.00    -0.084 OA 
HETATM   27  O   UNL     1      -6.295   7.651  66.150  1.00  0.00    -0.041 OA 
BRANCH  25  28
HETATM   28  N   UNL     1      -8.203   6.301  66.954  1.00  0.00    -0.109 N  
HETATM   29  H   UNL     1      -9.112   5.857  66.825  1.00  0.00     0.000 HD 
BRANCH  28  30
HETATM   30  C   UNL     1      -7.606   6.196  68.195  1.00  0.00    -0.098 C  
HETATM   31  O   UNL     1      -6.823   5.312  68.504  1.00  0.00    -0.052 OA 
BRANCH  30  32
HETATM   32  N   UNL     1      -7.998   7.190  69.037  1.00  0.00    -0.118 N  
HETATM   33  H   UNL     1      -7.984   8.156  68.709  1.00  0.00     0.000 HD 
BRANCH  32  34
HETATM   34  C   UNL     1      -8.437   6.907  70.399  1.00  0.00    -0.134 C  
HETATM   35  C   UNL     1      -8.984   8.166  71.084  1.00  0.00    -0.174 C  
HETATM   36  C   UNL     1     -10.276   8.649  70.430  1.00  0.00    -0.218 C  
HETATM   37  C   UNL     1     -11.331   7.548  70.358  1.00  0.00    -0.253 C  
HETATM   38  C   UNL     1     -10.803   6.248  69.754  1.00  0.00    -0.399 C  
HETATM   39  C   UNL     1      -9.495   5.799  70.406  1.00  0.00    -0.201 C  
ENDBRANCH  32  34
ENDBRANCH  30  32
ENDBRANCH  28  30
ENDBRANCH  25  28
ENDBRANCH  22  25
ENDBRANCH  18  19
ENDBRANCH  17  18
ENDBRANCH  14  17
ENDBRANCH   2   3
TORSDOF 9
ENDMDL
MODEL      127
REMARK 921   NORMALIZED FREE ENERGY PREDICTED BY IDOCK:   -5.00 KCAL/MOL
REMARK 922        TOTAL FREE ENERGY PREDICTED BY IDOCK:   -9.79 KCAL/MOL
REMARK 923 INTER-LIGAND FREE ENERGY PREDICTED BY IDOCK:   -8.68 KCAL/MOL
REMARK 924 INTRA-LIGAND FREE ENERGY PREDICTED BY IDOCK:   -1.10 KCAL/MOL
REMARK 927      BINDING AFFINITY PREDICTED BY RF-SCORE:    0.00 PKD
ROOT
HETATM    1  C   UNL     1     -10.632   4.582  74.285  1.00  0.00    -0.262 C  
HETATM    2  O   UNL     1     -11.039   5.639  73.419  1.00  0.00    -0.269 OA 
ENDROOT
BRANCH   2   3
HETATM    3  C   UNL     1     -10.613   5.532  72.125  1.00  0.00    -0.226 A  
HETATM    4  C   UNL     1     -10.672   6.551  71.182  1.00  0.00    -0.285 A  
HETATM    5  C   UNL     1     -10.162   6.344  69.893  1.00  0.00    -0.224 A  
HETATM    6  C   UNL     1      -9.635   5.100  69.508  1.00  0.00    -0.226 A  
HETATM    7  C   UNL     1      -9.547   4.095  70.483  1.00  0.00    -0.261 A  
HETATM    8  C   UNL     1      -9.123   4.893  68.088  1.00  0.00    -0.134 C  
HETATM    9  C   UNL     1      -9.536   6.052  67.168  1.00  0.00    -0.123 C  
HETATM   10  C   UNL     1      -7.578   4.912  68.089  1.00  0.00    -0.082 C  
HETATM   11  C   UNL     1      -9.613   3.568  67.480  1.00  0.00    -0.177 C  
HETATM   12  C   UNL     1     -10.018   4.318  71.781  1.00  0.00    -0.254 A  
HETATM   13  O   UNL     1      -9.787   5.918  65.973  1.00  0.00    -0.071 OA 
HETATM   14  N   UNL     1      -9.436   7.287  67.782  1.00  0.00    -0.131 N  
HETATM   15  O   UNL     1     -10.449   8.619  69.360  1.00  0.00    -0.216 OA 
HETATM   16  C   UNL     1     -10.047   7.520  68.995  1.00  0.00    -0.192 C  
BRANCH  14  17
HETATM   17  C   UNL     1      -8.899   8.395  67.026  1.00  0.00    -0.134 C  
BRANCH  17  18
HETATM   18  C   UNL     1      -9.808   9.023  65.969  1.00  0.00    -0.312 C  
BRANCH  18  19
HETATM   19  C   UNL     1      -9.890  10.532  66.133  1.00  0.00    -0.271 A  
HETATM   20  C   UNL     1      -9.519  11.172  67.329  1.00  0.00    -0.178 A  
HETATM   21  C   UNL     1      -9.659  12.551  67.481  1.00  0.00    -0.187 A  
HETATM   22  C   UNL     1     -10.141  13.309  66.419  1.00  0.00    -0.290 A  
HETATM   23  C   UNL     1     -10.348  11.318  65.067  1.00  0.00    -0.359 A  
HETATM   24  C   UNL     1     -10.486  12.701  65.212  1.00  0.00    -0.312 A  
BRANCH  22  25
HETATM   25  S   UNL     1     -10.359  15.054  66.641  1.00  0.00    -0.286 S  
HETATM   26  O   UNL     1     -10.218  15.723  65.365  1.00  0.00    -0.357 OA 
HETATM   27  O   UNL     1     -11.553  15.242  67.439  1.00  0.00    -0.303 OA 
BRANCH  25  28
HETATM   28  N   UNL     1      -9.100  15.473  67.639  1.00  0.00    -0.181 N  
HETATM   29  H   UNL     1      -9.279  15.505  68.643  1.00  0.00     0.000 HD 
BRANCH  28  30
HETATM   30  C   UNL     1      -7.826  15.780  67.203  1.00  0.00    -0.212 C  
HETATM   31  O   UNL     1      -6.897  14.989  67.196  1.00  0.00    -0.260 OA 
BRANCH  30  32
HETATM   32  N   UNL     1      -7.725  17.072  66.788  1.00  0.00    -0.212 N  
HETATM   33  H   UNL     1      -8.576  17.610  66.620  1.00  0.00     0.000 HD 
BRANCH  32  34
HETATM   34  C   UNL     1      -6.428  17.707  66.579  1.00  0.00    -0.222 C  
HETATM   35  C   UNL     1      -6.493  18.757  65.463  1.00  0.00    -0.317 C  
HETATM   36  C   UNL     1      -7.366  19.947  65.857  1.00  0.00    -0.335 C  
HETATM   37  C   UNL     1      -6.931  20.565  67.184  1.00  0.00    -0.343 C  
HETATM   38  C   UNL     1      -6.776  19.537  68.303  1.00  0.00    -0.301 C  
HETATM   39  C   UNL     1      -5.922  18.343  67.876  1.00  0.00    -0.179 C  
ENDBRANCH  32  34
ENDBRANCH  30  32
ENDBRANCH  28  30
ENDBRANCH  25  28
ENDBRANCH  22  25
ENDBRANCH  18  19
ENDBRANCH  17  18
ENDBRANCH  14  17
ENDBRANCH   2   3
TORSDOF 9
ENDMDL
MODEL      128
REMARK 921   NORMALIZED FREE ENERGY PREDICTED BY IDOCK:   -5.00 KCAL/MOL
REMARK 922        TOTAL FREE ENERGY PREDICTED BY IDOCK:   -9.78 KCAL/MOL
REMARK 923 INTER-LIGAND FREE ENERGY PREDICTED BY IDOCK:   -8.26 KCAL/MOL
REMARK 924 INTRA-LIGAND FREE ENERGY PREDICTED BY IDOCK:   -1.52 KCAL/MOL
REMARK 927      BINDING AFFINITY PREDICTED BY RF-SCORE:    0.00 PKD
ROOT
HETATM    1  C   UNL     1      -7.351   1.584  70.667  1.00  0.00    -0.033 C  
HETATM    2  O   UNL     1      -7.096   2.549  71.685  1.00  0.00    -0.030 OA 
ENDROOT
BRANCH   2   3
HETATM    3  C   UNL     1      -7.649   3.781  71.474  1.00  0.00    -0.056 A  
HETATM    4  C   UNL     1      -7.239   4.679  70.495  1.00  0.00    -0.049 A  
HETATM    5  C   UNL     1      -7.910   5.899  70.339  1.00  0.00    -0.105 A  
HETATM    6  C   UNL     1      -8.964   6.267  71.192  1.00  0.00    -0.146 A  
HETATM    7  C   UNL     1      -9.390   5.334  72.148  1.00  0.00    -0.159 A  
HETATM    8  C   UNL     1      -9.649   7.618  71.021  1.00  0.00    -0.169 C  
HETATM    9  C   UNL     1      -8.859   8.532  70.072  1.00  0.00    -0.141 C  
HETATM   10  C   UNL     1     -11.021   7.418  70.338  1.00  0.00    -0.269 C  
HETATM   11  C   UNL     1      -9.852   8.341  72.364  1.00  0.00    -0.375 C  
HETATM   12  C   UNL     1      -8.746   4.098  72.274  1.00  0.00    -0.118 A  
HETATM   13  O   UNL     1      -8.809   9.754  70.187  1.00  0.00    -0.218 OA 
HETATM   14  N   UNL     1      -8.347   7.857  68.979  1.00  0.00    -0.129 N  
HETATM   15  O   UNL     1      -6.705   6.366  68.370  1.00  0.00    -0.062 OA 
HETATM   16  C   UNL     1      -7.583   6.724  69.149  1.00  0.00    -0.100 C  
BRANCH  14  17
HETATM   17  C   UNL     1      -8.413   8.490  67.681  1.00  0.00    -0.129 C  
BRANCH  17  18
HETATM   18  C   UNL     1      -9.803   8.822  67.139  1.00  0.00    -0.268 C  
BRANCH  18  19
HETATM   19  C   UNL     1     -10.053  10.321  67.132  1.00  0.00    -0.259 A  
HETATM   20  C   UNL     1     -11.299  10.869  67.483  1.00  0.00    -0.309 A  
HETATM   21  C   UNL     1     -11.526  12.243  67.412  1.00  0.00    -0.422 A  
HETATM   22  C   UNL     1     -10.493  13.087  67.021  1.00  0.00    -0.247 A  
HETATM   23  C   UNL     1      -9.016  11.192  66.767  1.00  0.00    -0.169 A  
HETATM   24  C   UNL     1      -9.238  12.570  66.698  1.00  0.00    -0.223 A  
BRANCH  22  25
HETATM   25  S   UNL     1     -10.808  14.827  66.889  1.00  0.00    -0.322 S  
HETATM   26  O   UNL     1     -10.190  15.338  65.684  1.00  0.00    -0.315 OA 
HETATM   27  O   UNL     1     -12.222  15.029  67.129  1.00  0.00    -0.046 OA 
BRANCH  25  28
HETATM   28  N   UNL     1     -10.047  15.456  68.224  1.00  0.00    -0.216 N  
HETATM   29  H   UNL     1      -9.166  15.031  68.513  1.00  0.00     0.000 HD 
BRANCH  28  30
HETATM   30  C   UNL     1     -10.527  16.515  68.969  1.00  0.00    -0.303 C  
HETATM   31  O   UNL     1     -10.755  16.459  70.167  1.00  0.00    -0.299 OA 
BRANCH  30  32
HETATM   32  N   UNL     1     -10.721  17.628  68.211  1.00  0.00    -0.331 N  
HETATM   33  H   UNL     1     -11.396  17.599  67.447  1.00  0.00     0.000 HD 
BRANCH  32  34
HETATM   34  C   UNL     1      -9.987  18.862  68.467  1.00  0.00    -0.406 C  
HETATM   35  C   UNL     1      -8.471  18.636  68.400  1.00  0.00    -0.366 C  
HETATM   36  C   UNL     1      -8.013  18.284  66.986  1.00  0.00    -0.237 C  
HETATM   37  C   UNL     1      -8.471  19.318  65.960  1.00  0.00    -0.174 C  
HETATM   38  C   UNL     1      -9.963  19.632  66.048  1.00  0.00    -0.508 C  
HETATM   39  C   UNL     1     -10.402  19.953  67.476  1.00  0.00    -0.557 C  
ENDBRANCH  32  34
ENDBRANCH  30  32
ENDBRANCH  28  30
ENDBRANCH  25  28
ENDBRANCH  22  25
ENDBRANCH  18  19
ENDBRANCH  17  18
ENDBRANCH  14  17
ENDBRANCH   2   3
TORSDOF 9
ENDMDL
MODEL      129
REMARK 921   NORMALIZED FREE ENERGY PREDICTED BY IDOCK:   -4.98 KCAL/MOL
REMARK 922        TOTAL FREE ENERGY PREDICTED BY IDOCK:   -9.74 KCAL/MOL
REMARK 923 INTER-LIGAND FREE ENERGY PREDICTED BY IDOCK:   -7.31 KCAL/MOL
REMARK 924 INTRA-LIGAND FREE ENERGY PREDICTED BY IDOCK:   -2.44 KCAL/MOL
REMARK 927      BINDING AFFINITY PREDICTED BY RF-SCORE:    0.00 PKD
ROOT
HETATM    1  C   UNL     1      -6.283   9.173  64.123  1.00  0.00    -0.076 C  
HETATM    2  O   UNL     1      -7.595   8.792  64.527  1.00  0.00    -0.102 OA 
ENDROOT
BRANCH   2   3
HETATM    3  C   UNL     1      -7.661   7.705  65.352  1.00  0.00    -0.104 A  
HETATM    4  C   UNL     1      -7.261   7.692  66.683  1.00  0.00    -0.087 A  
HETATM    5  C   UNL     1      -7.417   6.529  67.449  1.00  0.00    -0.092 A  
HETATM    6  C   UNL     1      -7.923   5.346  66.886  1.00  0.00    -0.101 A  
HETATM    7  C   UNL     1      -8.358   5.387  65.553  1.00  0.00    -0.133 A  
HETATM    8  C   UNL     1      -8.046   4.086  67.736  1.00  0.00    -0.090 C  
HETATM    9  C   UNL     1      -7.300   4.236  69.071  1.00  0.00    -0.055 C  
HETATM   10  C   UNL     1      -9.525   3.867  68.124  1.00  0.00    -0.219 C  
HETATM   11  C   UNL     1      -7.523   2.838  67.004  1.00  0.00    -0.069 C  
HETATM   12  C   UNL     1      -8.241   6.562  64.802  1.00  0.00    -0.073 A  
HETATM   13  O   UNL     1      -6.746   3.304  69.651  1.00  0.00    -0.033 OA 
HETATM   14  N   UNL     1      -7.458   5.487  69.637  1.00  0.00    -0.069 N  
HETATM   15  O   UNL     1      -6.803   7.680  69.410  1.00  0.00    -0.046 OA 
HETATM   16  C   UNL     1      -7.183   6.625  68.912  1.00  0.00    -0.091 C  
BRANCH  14  17
HETATM   17  C   UNL     1      -7.674   5.580  71.064  1.00  0.00    -0.103 C  
BRANCH  17  18
HETATM   18  C   UNL     1      -9.118   5.727  71.541  1.00  0.00    -0.149 C  
BRANCH  18  19
HETATM   19  C   UNL     1      -9.728   7.038  71.071  1.00  0.00    -0.175 A  
HETATM   20  C   UNL     1     -10.649   7.092  70.010  1.00  0.00    -0.248 A  
HETATM   21  C   UNL     1     -11.150   8.311  69.554  1.00  0.00     0.039 A  
HETATM   22  C   UNL     1     -10.759   9.488  70.182  1.00  0.00    -0.257 A  
HETATM   23  C   UNL     1      -9.367   8.234  71.708  1.00  0.00    -0.266 A  
HETATM   24  C   UNL     1      -9.870   9.458  71.257  1.00  0.00    -0.245 A  
BRANCH  22  25
HETATM   25  S   UNL     1     -11.366  11.034  69.561  1.00  0.00    -0.313 S  
HETATM   26  O   UNL     1     -12.147  10.799  68.365  1.00  0.00    -0.501 OA 
HETATM   27  O   UNL     1     -11.938  11.754  70.681  1.00  0.00    -0.350 OA 
BRANCH  25  28
HETATM   28  N   UNL     1      -9.980  11.862  69.176  1.00  0.00    -0.406 N  
HETATM   29  H   UNL     1      -9.531  12.408  69.912  1.00  0.00     0.000 HD 
BRANCH  28  30
HETATM   30  C   UNL     1      -9.391  11.862  67.927  1.00  0.00    -0.187 C  
HETATM   31  O   UNL     1      -8.299  11.375  67.686  1.00  0.00    -0.123 OA 
BRANCH  30  32
HETATM   32  N   UNL     1     -10.170  12.476  66.995  1.00  0.00    -0.221 N  
HETATM   33  H   UNL     1     -10.524  11.934  66.206  1.00  0.00     0.000 HD 
BRANCH  32  34
HETATM   34  C   UNL     1     -10.511  13.891  67.097  1.00  0.00    -0.269 C  
HETATM   35  C   UNL     1      -9.890  14.700  65.952  1.00  0.00    -0.358 C  
HETATM   36  C   UNL     1     -10.498  14.327  64.601  1.00  0.00    -0.325 C  
HETATM   37  C   UNL     1     -12.020  14.439  64.606  1.00  0.00    -0.475 C  
HETATM   38  C   UNL     1     -12.674  13.712  65.780  1.00  0.00    -0.470 C  
HETATM   39  C   UNL     1     -12.030  14.081  67.117  1.00  0.00    -0.465 C  
ENDBRANCH  32  34
ENDBRANCH  30  32
ENDBRANCH  28  30
ENDBRANCH  25  28
ENDBRANCH  22  25
ENDBRANCH  18  19
ENDBRANCH  17  18
ENDBRANCH  14  17
ENDBRANCH   2   3
TORSDOF 9
ENDMDL
MODEL      130
REMARK 921   NORMALIZED FREE ENERGY PREDICTED BY IDOCK:   -4.97 KCAL/MOL
REMARK 922        TOTAL FREE ENERGY PREDICTED BY IDOCK:   -9.74 KCAL/MOL
REMARK 923 INTER-LIGAND FREE ENERGY PREDICTED BY IDOCK:   -7.34 KCAL/MOL
REMARK 924 INTRA-LIGAND FREE ENERGY PREDICTED BY IDOCK:   -2.40 KCAL/MOL
REMARK 927      BINDING AFFINITY PREDICTED BY RF-SCORE:    0.00 PKD
ROOT
HETATM    1  C   UNL     1     -12.449  12.928  64.982  1.00  0.00    -0.492 C  
HETATM    2  O   UNL     1     -12.294  12.762  66.389  1.00  0.00    -0.500 OA 
ENDROOT
BRANCH   2   3
HETATM    3  C   UNL     1     -11.129  12.166  66.783  1.00  0.00    -0.300 A  
HETATM    4  C   UNL     1     -10.859  10.807  66.684  1.00  0.00    -0.228 A  
HETATM    5  C   UNL     1      -9.609  10.311  67.079  1.00  0.00    -0.205 A  
HETATM    6  C   UNL     1      -8.629  11.154  67.628  1.00  0.00    -0.126 A  
HETATM    7  C   UNL     1      -8.903  12.529  67.684  1.00  0.00    -0.179 A  
HETATM    8  C   UNL     1      -7.292  10.579  68.083  1.00  0.00    -0.088 C  
HETATM    9  C   UNL     1      -7.329   9.044  68.128  1.00  0.00    -0.083 C  
HETATM   10  C   UNL     1      -6.202  10.925  67.044  1.00  0.00    -0.076 C  
HETATM   11  C   UNL     1      -6.868  11.114  69.462  1.00  0.00    -0.127 C  
HETATM   12  C   UNL     1     -10.136  13.027  67.251  1.00  0.00    -0.235 A  
HETATM   13  O   UNL     1      -6.700   8.370  68.941  1.00  0.00    -0.051 OA 
HETATM   14  N   UNL     1      -8.008   8.491  67.058  1.00  0.00    -0.099 N  
HETATM   15  O   UNL     1     -10.125   8.183  66.212  1.00  0.00    -0.197 OA 
HETATM   16  C   UNL     1      -9.288   8.898  66.752  1.00  0.00    -0.175 C  
BRANCH  14  17
HETATM   17  C   UNL     1      -7.460   7.314  66.422  1.00  0.00    -0.084 C  
BRANCH  17  18
HETATM   18  C   UNL     1      -8.325   6.054  66.427  1.00  0.00    -0.118 C  
BRANCH  18  19
HETATM   19  C   UNL     1      -8.453   5.474  67.826  1.00  0.00    -0.098 A  
HETATM   20  C   UNL     1      -7.344   4.970  68.527  1.00  0.00    -0.063 A  
HETATM   21  C   UNL     1      -7.491   4.386  69.785  1.00  0.00    -0.050 A  
HETATM   22  C   UNL     1      -8.752   4.335  70.370  1.00  0.00    -0.078 A  
HETATM   23  C   UNL     1      -9.710   5.437  68.445  1.00  0.00    -0.179 A  
HETATM   24  C   UNL     1      -9.863   4.857  69.708  1.00  0.00    -0.292 A  
BRANCH  22  25
HETATM   25  S   UNL     1      -8.934   3.548  71.948  1.00  0.00    -0.109 S  
HETATM   26  O   UNL     1     -10.146   2.757  71.955  1.00  0.00    -0.160 OA 
HETATM   27  O   UNL     1      -7.660   2.941  72.277  1.00  0.00    -0.050 OA 
BRANCH  25  28
HETATM   28  N   UNL     1      -9.089   4.826  72.996  1.00  0.00    -0.120 N  
HETATM   29  H   UNL     1      -8.241   5.322  73.271  1.00  0.00     0.000 HD 
BRANCH  28  30
HETATM   30  C   UNL     1     -10.288   5.263  73.522  1.00  0.00    -0.220 C  
HETATM   31  O   UNL     1     -10.774   4.842  74.559  1.00  0.00    -0.355 OA 
BRANCH  30  32
HETATM   32  N   UNL     1     -10.870   6.217  72.745  1.00  0.00    -0.241 N  
HETATM   33  H   UNL     1     -11.301   5.946  71.862  1.00  0.00     0.000 HD 
BRANCH  32  34
HETATM   34  C   UNL     1     -10.892   7.619  73.147  1.00  0.00    -0.382 C  
HETATM   35  C   UNL     1      -9.565   8.316  72.818  1.00  0.00    -0.338 C  
HETATM   36  C   UNL     1      -9.342   8.424  71.311  1.00  0.00    -0.239 C  
HETATM   37  C   UNL     1     -10.517   9.092  70.602  1.00  0.00    -0.305 C  
HETATM   38  C   UNL     1     -11.868   8.478  70.967  1.00  0.00    -0.290 C  
HETATM   39  C   UNL     1     -12.056   8.355  72.479  1.00  0.00    -0.403 C  
ENDBRANCH  32  34
ENDBRANCH  30  32
ENDBRANCH  28  30
ENDBRANCH  25  28
ENDBRANCH  22  25
ENDBRANCH  18  19
ENDBRANCH  17  18
ENDBRANCH  14  17
ENDBRANCH   2   3
TORSDOF 9
ENDMDL
MODEL      131
REMARK 921   NORMALIZED FREE ENERGY PREDICTED BY IDOCK:   -4.95 KCAL/MOL
REMARK 922        TOTAL FREE ENERGY PREDICTED BY IDOCK:   -9.71 KCAL/MOL
REMARK 923 INTER-LIGAND FREE ENERGY PREDICTED BY IDOCK:   -8.05 KCAL/MOL
REMARK 924 INTRA-LIGAND FREE ENERGY PREDICTED BY IDOCK:   -1.66 KCAL/MOL
REMARK 927      BINDING AFFINITY PREDICTED BY RF-SCORE:    0.00 PKD
ROOT
HETATM    1  C   UNL     1     -13.046  15.648  73.310  1.00  0.00    -0.564 C  
HETATM    2  O   UNL     1     -12.153  16.380  72.474  1.00  0.00    -0.516 OA 
ENDROOT
BRANCH   2   3
HETATM    3  C   UNL     1     -11.879  15.804  71.265  1.00  0.00    -0.437 A  
HETATM    4  C   UNL     1     -10.684  15.944  70.570  1.00  0.00    -0.204 A  
HETATM    5  C   UNL     1     -10.496  15.269  69.356  1.00  0.00    -0.253 A  
HETATM    6  C   UNL     1     -11.516  14.489  68.790  1.00  0.00    -0.322 A  
HETATM    7  C   UNL     1     -12.702  14.326  69.522  1.00  0.00     0.158 A  
HETATM    8  C   UNL     1     -11.295  13.796  67.449  1.00  0.00    -0.348 C  
HETATM    9  C   UNL     1     -10.024  14.310  66.756  1.00  0.00    -0.265 C  
HETATM   10  C   UNL     1     -11.046  12.290  67.682  1.00  0.00    -0.318 C  
HETATM   11  C   UNL     1     -12.493  13.972  66.500  1.00  0.00    -0.351 C  
HETATM   12  C   UNL     1     -12.871  14.967  70.754  1.00  0.00    -0.447 A  
HETATM   13  O   UNL     1      -9.902  14.403  65.537  1.00  0.00    -0.324 OA 
HETATM   14  N   UNL     1      -8.973  14.501  67.634  1.00  0.00    -0.185 N  
HETATM   15  O   UNL     1      -8.228  15.901  69.299  1.00  0.00    -0.226 OA 
HETATM   16  C   UNL     1      -9.134  15.271  68.765  1.00  0.00    -0.200 C  
BRANCH  14  17
HETATM   17  C   UNL     1      -7.647  14.093  67.227  1.00  0.00    -0.080 C  
BRANCH  17  18
HETATM   18  C   UNL     1      -6.922  13.090  68.124  1.00  0.00    -0.105 C  
BRANCH  18  19
HETATM   19  C   UNL     1      -7.509  11.695  67.984  1.00  0.00    -0.100 A  
HETATM   20  C   UNL     1      -7.639  11.065  66.734  1.00  0.00    -0.139 A  
HETATM   21  C   UNL     1      -8.236   9.810  66.619  1.00  0.00    -0.120 A  
HETATM   22  C   UNL     1      -8.677   9.156  67.765  1.00  0.00    -0.121 A  
HETATM   23  C   UNL     1      -7.935  11.007  69.129  1.00  0.00    -0.081 A  
HETATM   24  C   UNL     1      -8.530   9.747  69.020  1.00  0.00    -0.137 A  
BRANCH  22  25
HETATM   25  S   UNL     1      -9.477   7.583  67.601  1.00  0.00    -0.140 S  
HETATM   26  O   UNL     1     -10.810   7.773  67.070  1.00  0.00    -0.316 OA 
HETATM   27  O   UNL     1      -8.545   6.692  66.939  1.00  0.00    -0.112 OA 
BRANCH  25  28
HETATM   28  N   UNL     1      -9.564   7.034  69.165  1.00  0.00    -0.149 N  
HETATM   29  H   UNL     1     -10.410   7.242  69.695  1.00  0.00     0.000 HD 
BRANCH  28  30
HETATM   30  C   UNL     1      -8.570   6.314  69.797  1.00  0.00    -0.137 C  
HETATM   31  O   UNL     1      -7.377   6.526  69.653  1.00  0.00    -0.079 OA 
BRANCH  30  32
HETATM   32  N   UNL     1      -9.075   5.335  70.596  1.00  0.00    -0.139 N  
HETATM   33  H   UNL     1      -9.718   4.649  70.198  1.00  0.00     0.000 HD 
BRANCH  32  34
HETATM   34  C   UNL     1      -8.720   5.243  72.007  1.00  0.00    -0.130 C  
HETATM   35  C   UNL     1      -9.486   6.274  72.846  1.00  0.00    -0.147 C  
HETATM   36  C   UNL     1     -10.984   5.976  72.878  1.00  0.00    -0.303 C  
HETATM   37  C   UNL     1     -11.276   4.550  73.339  1.00  0.00    -0.404 C  
HETATM   38  C   UNL     1     -10.469   3.496  72.582  1.00  0.00    -0.184 C  
HETATM   39  C   UNL     1      -8.979   3.831  72.539  1.00  0.00    -0.127 C  
ENDBRANCH  32  34
ENDBRANCH  30  32
ENDBRANCH  28  30
ENDBRANCH  25  28
ENDBRANCH  22  25
ENDBRANCH  18  19
ENDBRANCH  17  18
ENDBRANCH  14  17
ENDBRANCH   2   3
TORSDOF 9
ENDMDL
MODEL      132
REMARK 921   NORMALIZED FREE ENERGY PREDICTED BY IDOCK:   -4.95 KCAL/MOL
REMARK 922        TOTAL FREE ENERGY PREDICTED BY IDOCK:   -9.70 KCAL/MOL
REMARK 923 INTER-LIGAND FREE ENERGY PREDICTED BY IDOCK:   -8.57 KCAL/MOL
REMARK 924 INTRA-LIGAND FREE ENERGY PREDICTED BY IDOCK:   -1.13 KCAL/MOL
REMARK 927      BINDING AFFINITY PREDICTED BY RF-SCORE:    0.00 PKD
ROOT
HETATM    1  C   UNL     1      -5.286   4.682  63.597  1.00  0.00    -0.009 C  
HETATM    2  O   UNL     1      -5.194   4.846  65.010  1.00  0.00    -0.012 OA 
ENDROOT
BRANCH   2   3
HETATM    3  C   UNL     1      -6.312   5.348  65.615  1.00  0.00    -0.035 A  
HETATM    4  C   UNL     1      -6.382   5.760  66.940  1.00  0.00    -0.038 A  
HETATM    5  C   UNL     1      -7.572   6.304  67.443  1.00  0.00    -0.093 A  
HETATM    6  C   UNL     1      -8.725   6.396  66.648  1.00  0.00    -0.127 A  
HETATM    7  C   UNL     1      -8.627   6.013  65.302  1.00  0.00    -0.103 A  
HETATM    8  C   UNL     1     -10.016   6.958  67.234  1.00  0.00    -0.224 C  
HETATM    9  C   UNL     1      -9.927   7.086  68.762  1.00  0.00    -0.160 C  
HETATM   10  C   UNL     1     -10.231   8.399  66.721  1.00  0.00    -0.376 C  
HETATM   11  C   UNL     1     -11.241   6.101  66.871  1.00  0.00    -0.157 C  
HETATM   12  C   UNL     1      -7.426   5.509  64.791  1.00  0.00    -0.071 A  
HETATM   13  O   UNL     1     -10.887   6.940  69.516  1.00  0.00    -0.233 OA 
HETATM   14  N   UNL     1      -8.697   7.548  69.192  1.00  0.00    -0.136 N  
HETATM   15  O   UNL     1      -6.505   6.903  69.456  1.00  0.00    -0.041 OA 
HETATM   16  C   UNL     1      -7.535   6.928  68.790  1.00  0.00    -0.099 C  
BRANCH  14  17
HETATM   17  C   UNL     1      -8.656   8.524  70.258  1.00  0.00    -0.137 C  
BRANCH  17  18
HETATM   18  C   UNL     1      -9.970   9.219  70.615  1.00  0.00    -0.336 C  
BRANCH  18  19
HETATM   19  C   UNL     1     -10.230  10.413  69.710  1.00  0.00    -0.228 A  
HETATM   20  C   UNL     1     -11.497  11.017  69.622  1.00  0.00    -0.375 A  
HETATM   21  C   UNL     1     -11.730  12.072  68.741  1.00  0.00    -0.377 A  
HETATM   22  C   UNL     1     -10.685  12.557  67.963  1.00  0.00    -0.221 A  
HETATM   23  C   UNL     1      -9.184  10.934  68.937  1.00  0.00    -0.168 A  
HETATM   24  C   UNL     1      -9.412  11.994  68.055  1.00  0.00    -0.199 A  
BRANCH  22  25
HETATM   25  S   UNL     1     -11.007  13.867  66.812  1.00  0.00    -0.303 S  
HETATM   26  O   UNL     1      -9.758  14.492  66.434  1.00  0.00    -0.269 OA 
HETATM   27  O   UNL     1     -11.900  13.342  65.799  1.00  0.00    -0.342 OA 
BRANCH  25  28
HETATM   28  N   UNL     1     -11.927  14.931  67.693  1.00  0.00    -0.492 N  
HETATM   29  H   UNL     1     -12.940  14.885  67.587  1.00  0.00     0.000 HD 
BRANCH  28  30
HETATM   30  C   UNL     1     -11.413  15.875  68.560  1.00  0.00    -0.377 C  
HETATM   31  O   UNL     1     -11.360  15.733  69.771  1.00  0.00    -0.287 OA 
BRANCH  30  32
HETATM   32  N   UNL     1     -10.978  16.987  67.907  1.00  0.00    -0.298 N  
HETATM   33  H   UNL     1     -11.382  17.222  67.000  1.00  0.00     0.000 HD 
BRANCH  32  34
HETATM   34  C   UNL     1      -9.949  17.851  68.475  1.00  0.00    -0.379 C  
HETATM   35  C   UNL     1      -8.586  17.605  67.816  1.00  0.00    -0.228 C  
HETATM   36  C   UNL     1      -8.582  18.032  66.350  1.00  0.00    -0.253 C  
HETATM   37  C   UNL     1      -9.038  19.478  66.171  1.00  0.00    -0.349 C  
HETATM   38  C   UNL     1     -10.355  19.786  66.882  1.00  0.00    -0.601 C  
HETATM   39  C   UNL     1     -10.344  19.324  68.339  1.00  0.00    -0.435 C  
ENDBRANCH  32  34
ENDBRANCH  30  32
ENDBRANCH  28  30
ENDBRANCH  25  28
ENDBRANCH  22  25
ENDBRANCH  18  19
ENDBRANCH  17  18
ENDBRANCH  14  17
ENDBRANCH   2   3
TORSDOF 9
ENDMDL
MODEL      133
REMARK 921   NORMALIZED FREE ENERGY PREDICTED BY IDOCK:   -4.93 KCAL/MOL
REMARK 922        TOTAL FREE ENERGY PREDICTED BY IDOCK:   -9.67 KCAL/MOL
REMARK 923 INTER-LIGAND FREE ENERGY PREDICTED BY IDOCK:   -7.60 KCAL/MOL
REMARK 924 INTRA-LIGAND FREE ENERGY PREDICTED BY IDOCK:   -2.06 KCAL/MOL
REMARK 927      BINDING AFFINITY PREDICTED BY RF-SCORE:    0.00 PKD
ROOT
HETATM    1  C   UNL     1     -12.267  14.991  73.426  1.00  0.00    -0.408 C  
HETATM    2  O   UNL     1     -11.959  16.102  72.588  1.00  0.00    -0.488 OA 
ENDROOT
BRANCH   2   3
HETATM    3  C   UNL     1     -11.693  15.795  71.283  1.00  0.00    -0.440 A  
HETATM    4  C   UNL     1     -10.425  15.565  70.763  1.00  0.00     0.048 A  
HETATM    5  C   UNL     1     -10.274  15.211  69.415  1.00  0.00    -0.244 A  
HETATM    6  C   UNL     1     -11.379  15.134  68.552  1.00  0.00    -0.321 A  
HETATM    7  C   UNL     1     -12.655  15.330  69.102  1.00  0.00     0.176 A  
HETATM    8  C   UNL     1     -11.179  14.783  67.082  1.00  0.00    -0.346 C  
HETATM    9  C   UNL     1      -9.695  14.842  66.689  1.00  0.00    -0.267 C  
HETATM   10  C   UNL     1     -11.601  13.317  66.840  1.00  0.00    -0.408 C  
HETATM   11  C   UNL     1     -11.984  15.704  66.150  1.00  0.00     0.777 C  
HETATM   12  C   UNL     1     -12.807  15.642  70.457  1.00  0.00    -0.334 A  
HETATM   13  O   UNL     1      -9.297  15.179  65.576  1.00  0.00    -0.204 OA 
HETATM   14  N   UNL     1      -8.861  14.319  67.660  1.00  0.00    -0.185 N  
HETATM   15  O   UNL     1      -7.983  14.770  69.737  1.00  0.00    -0.030 OA 
HETATM   16  C   UNL     1      -8.933  14.763  68.962  1.00  0.00    -0.135 C  
BRANCH  14  17
HETATM   17  C   UNL     1      -7.753  13.487  67.247  1.00  0.00    -0.077 C  
BRANCH  17  18
HETATM   18  C   UNL     1      -8.083  12.071  66.777  1.00  0.00    -0.081 C  
BRANCH  18  19
HETATM   19  C   UNL     1      -8.785  11.275  67.866  1.00  0.00    -0.138 A  
HETATM   20  C   UNL     1     -10.186  11.173  67.926  1.00  0.00    -0.202 A  
HETATM   21  C   UNL     1     -10.814  10.490  68.967  1.00  0.00    -0.272 A  
HETATM   22  C   UNL     1     -10.040   9.869  69.941  1.00  0.00    -0.257 A  
HETATM   23  C   UNL     1      -8.023  10.620  68.843  1.00  0.00    -0.132 A  
HETATM   24  C   UNL     1      -8.647   9.930  69.886  1.00  0.00    -0.216 A  
BRANCH  22  25
HETATM   25  S   UNL     1     -10.850   9.044  71.285  1.00  0.00    -0.345 S  
HETATM   26  O   UNL     1      -9.857   8.544  72.212  1.00  0.00    -0.285 OA 
HETATM   27  O   UNL     1     -11.912   9.914  71.748  1.00  0.00    -0.381 OA 
BRANCH  25  28
HETATM   28  N   UNL     1     -11.621   7.774  70.544  1.00  0.00    -0.430 N  
HETATM   29  H   UNL     1     -12.551   7.941  70.161  1.00  0.00     0.000 HD 
BRANCH  28  30
HETATM   30  C   UNL     1     -11.087   6.507  70.411  1.00  0.00    -0.332 C  
HETATM   31  O   UNL     1     -11.324   5.583  71.173  1.00  0.00    -0.080 OA 
BRANCH  30  32
HETATM   32  N   UNL     1     -10.261   6.410  69.334  1.00  0.00    -0.182 N  
HETATM   33  H   UNL     1      -9.260   6.561  69.459  1.00  0.00     0.000 HD 
BRANCH  32  34
HETATM   34  C   UNL     1     -10.775   6.095  68.006  1.00  0.00    -0.295 C  
HETATM   35  C   UNL     1     -10.731   7.320  67.084  1.00  0.00    -0.413 C  
HETATM   36  C   UNL     1      -9.297   7.745  66.775  1.00  0.00    -0.227 C  
HETATM   37  C   UNL     1      -8.464   6.593  66.216  1.00  0.00    -0.130 C  
HETATM   38  C   UNL     1      -8.547   5.325  67.065  1.00  0.00    -0.105 C  
HETATM   39  C   UNL     1      -9.990   4.937  67.384  1.00  0.00    -0.209 C  
ENDBRANCH  32  34
ENDBRANCH  30  32
ENDBRANCH  28  30
ENDBRANCH  25  28
ENDBRANCH  22  25
ENDBRANCH  18  19
ENDBRANCH  17  18
ENDBRANCH  14  17
ENDBRANCH   2   3
TORSDOF 9
ENDMDL
MODEL      134
REMARK 921   NORMALIZED FREE ENERGY PREDICTED BY IDOCK:   -4.90 KCAL/MOL
REMARK 922        TOTAL FREE ENERGY PREDICTED BY IDOCK:   -9.63 KCAL/MOL
REMARK 923 INTER-LIGAND FREE ENERGY PREDICTED BY IDOCK:   -9.00 KCAL/MOL
REMARK 924 INTRA-LIGAND FREE ENERGY PREDICTED BY IDOCK:   -0.63 KCAL/MOL
REMARK 927      BINDING AFFINITY PREDICTED BY RF-SCORE:    0.00 PKD
ROOT
HETATM    1  C   UNL     1     -14.040   7.500  71.593  1.00  0.00    -0.440 C  
HETATM    2  O   UNL     1     -13.274   6.325  71.845  1.00  0.00     0.010 OA 
ENDROOT
BRANCH   2   3
HETATM    3  C   UNL     1     -11.988   6.354  71.383  1.00  0.00    -0.247 A  
HETATM    4  C   UNL     1     -11.605   6.805  70.125  1.00  0.00    -0.397 A  
HETATM    5  C   UNL     1     -10.249   6.832  69.773  1.00  0.00    -0.207 A  
HETATM    6  C   UNL     1      -9.258   6.361  70.650  1.00  0.00    -0.162 A  
HETATM    7  C   UNL     1      -9.657   5.947  71.930  1.00  0.00    -0.169 A  
HETATM    8  C   UNL     1      -7.794   6.369  70.225  1.00  0.00    -0.103 C  
HETATM    9  C   UNL     1      -7.649   6.649  68.721  1.00  0.00    -0.104 C  
HETATM   10  C   UNL     1      -7.060   7.536  70.923  1.00  0.00    -0.059 C  
HETATM   11  C   UNL     1      -7.083   5.047  70.563  1.00  0.00    -0.053 C  
HETATM   12  C   UNL     1     -11.007   5.960  72.293  1.00  0.00    -0.313 A  
HETATM   13  O   UNL     1      -6.758   6.171  68.022  1.00  0.00    -0.059 OA 
HETATM   14  N   UNL     1      -8.521   7.622  68.269  1.00  0.00    -0.125 N  
HETATM   15  O   UNL     1     -10.738   7.990  67.782  1.00  0.00    -0.198 OA 
HETATM   16  C   UNL     1      -9.873   7.522  68.513  1.00  0.00    -0.165 C  
BRANCH  14  17
HETATM   17  C   UNL     1      -8.033   8.607  67.330  1.00  0.00    -0.101 C  
BRANCH  17  18
HETATM   18  C   UNL     1      -8.672   8.619  65.941  1.00  0.00    -0.201 C  
BRANCH  18  19
HETATM   19  C   UNL     1      -9.417   9.919  65.685  1.00  0.00    -0.295 A  
HETATM   20  C   UNL     1     -10.119  10.151  64.489  1.00  0.00    -0.158 A  
HETATM   21  C   UNL     1     -10.745  11.373  64.247  1.00  0.00    -0.420 A  
HETATM   22  C   UNL     1     -10.704  12.366  65.220  1.00  0.00    -0.287 A  
HETATM   23  C   UNL     1      -9.411  10.923  66.664  1.00  0.00    -0.204 A  
HETATM   24  C   UNL     1     -10.041  12.148  66.428  1.00  0.00    -0.242 A  
BRANCH  22  25
HETATM   25  S   UNL     1     -11.464  13.931  64.882  1.00  0.00    -0.369 S  
HETATM   26  O   UNL     1     -10.436  14.931  64.680  1.00  0.00    -0.337 OA 
HETATM   27  O   UNL     1     -12.479  13.710  63.872  1.00  0.00    -0.680 OA 
BRANCH  25  28
HETATM   28  N   UNL     1     -12.303  14.259  66.276  1.00  0.00    -0.428 N  
HETATM   29  H   UNL     1     -13.319  14.174  66.250  1.00  0.00     0.000 HD 
BRANCH  28  30
HETATM   30  C   UNL     1     -11.719  14.637  67.469  1.00  0.00    -0.379 C  
HETATM   31  O   UNL     1     -11.834  14.016  68.513  1.00  0.00    -0.332 OA 
BRANCH  30  32
HETATM   32  N   UNL     1     -11.004  15.788  67.346  1.00  0.00    -0.308 N  
HETATM   33  H   UNL     1     -11.205  16.420  66.571  1.00  0.00     0.000 HD 
BRANCH  32  34
HETATM   34  C   UNL     1      -9.957  16.141  68.298  1.00  0.00    -0.226 C  
HETATM   35  C   UNL     1      -8.836  15.094  68.310  1.00  0.00    -0.173 C  
HETATM   36  C   UNL     1      -8.067  15.074  66.990  1.00  0.00    -0.225 C  
HETATM   37  C   UNL     1      -7.540  16.455  66.610  1.00  0.00    -0.288 C  
HETATM   38  C   UNL     1      -8.611  17.544  66.666  1.00  0.00    -0.284 C  
HETATM   39  C   UNL     1      -9.384  17.525  67.984  1.00  0.00    -0.272 C  
ENDBRANCH  32  34
ENDBRANCH  30  32
ENDBRANCH  28  30
ENDBRANCH  25  28
ENDBRANCH  22  25
ENDBRANCH  18  19
ENDBRANCH  17  18
ENDBRANCH  14  17
ENDBRANCH   2   3
TORSDOF 9
ENDMDL
MODEL      135
REMARK 921   NORMALIZED FREE ENERGY PREDICTED BY IDOCK:   -4.88 KCAL/MOL
REMARK 922        TOTAL FREE ENERGY PREDICTED BY IDOCK:   -9.59 KCAL/MOL
REMARK 923 INTER-LIGAND FREE ENERGY PREDICTED BY IDOCK:   -7.27 KCAL/MOL
REMARK 924 INTRA-LIGAND FREE ENERGY PREDICTED BY IDOCK:   -2.33 KCAL/MOL
REMARK 927      BINDING AFFINITY PREDICTED BY RF-SCORE:    0.00 PKD
ROOT
HETATM    1  C   UNL     1     -10.138  18.804  67.064  1.00  0.00    -0.358 C  
HETATM    2  O   UNL     1     -10.180  18.189  65.779  1.00  0.00    -0.580 OA 
ENDROOT
BRANCH   2   3
HETATM    3  C   UNL     1     -10.175  16.822  65.785  1.00  0.00    -0.291 A  
HETATM    4  C   UNL     1      -9.485  16.034  66.698  1.00  0.00    -0.259 A  
HETATM    5  C   UNL     1      -9.588  14.637  66.636  1.00  0.00    -0.294 A  
HETATM    6  C   UNL     1     -10.337  14.004  65.631  1.00  0.00    -0.342 A  
HETATM    7  C   UNL     1     -11.058  14.815  64.741  1.00  0.00    -0.393 A  
HETATM    8  C   UNL     1     -10.400  12.482  65.567  1.00  0.00    -0.303 C  
HETATM    9  C   UNL     1      -9.357  11.839  66.494  1.00  0.00    -0.210 C  
HETATM   10  C   UNL     1     -11.767  12.000  66.103  1.00  0.00    -0.313 C  
HETATM   11  C   UNL     1     -10.199  11.951  64.137  1.00  0.00    -0.364 C  
HETATM   12  C   UNL     1     -10.987  16.209  64.831  1.00  0.00    -0.364 A  
HETATM   13  O   UNL     1      -8.791  10.776  66.250  1.00  0.00    -0.161 OA 
HETATM   14  N   UNL     1      -9.243  12.491  67.708  1.00  0.00    -0.190 N  
HETATM   15  O   UNL     1      -8.420  14.412  68.669  1.00  0.00    -0.162 OA 
HETATM   16  C   UNL     1      -9.017  13.849  67.757  1.00  0.00    -0.188 C  
BRANCH  14  17
HETATM   17  C   UNL     1      -9.115  11.699  68.911  1.00  0.00     0.072 C  
BRANCH  17  18
HETATM   18  C   UNL     1     -10.347  10.916  69.362  1.00  0.00    -0.174 C  
BRANCH  18  19
HETATM   19  C   UNL     1     -10.018   9.450  69.596  1.00  0.00    -0.209 A  
HETATM   20  C   UNL     1     -10.979   8.538  70.066  1.00  0.00    -0.197 A  
HETATM   21  C   UNL     1     -10.642   7.211  70.332  1.00  0.00    -0.242 A  
HETATM   22  C   UNL     1      -9.343   6.776  70.094  1.00  0.00    -0.159 A  
HETATM   23  C   UNL     1      -8.721   8.984  69.337  1.00  0.00    -0.142 A  
HETATM   24  C   UNL     1      -8.380   7.654  69.598  1.00  0.00    -0.130 A  
BRANCH  22  25
HETATM   25  S   UNL     1      -8.916   5.099  70.481  1.00  0.00    -0.137 S  
HETATM   26  O   UNL     1      -8.569   5.002  71.883  1.00  0.00    -0.125 OA 
HETATM   27  O   UNL     1      -9.947   4.250  69.921  1.00  0.00    -0.221 OA 
BRANCH  25  28
HETATM   28  N   UNL     1      -7.572   4.822  69.547  1.00  0.00    -0.059 N  
HETATM   29  H   UNL     1      -6.663   5.076  69.935  1.00  0.00     0.000 HD 
BRANCH  28  30
HETATM   30  C   UNL     1      -7.600   4.272  68.281  1.00  0.00    -0.067 C  
HETATM   31  O   UNL     1      -7.648   3.073  68.058  1.00  0.00    -0.056 OA 
BRANCH  30  32
HETATM   32  N   UNL     1      -7.561   5.223  67.309  1.00  0.00    -0.091 N  
HETATM   33  H   UNL     1      -6.974   6.046  67.440  1.00  0.00     0.000 HD 
BRANCH  32  34
HETATM   34  C   UNL     1      -8.340   5.091  66.082  1.00  0.00    -0.113 C  
HETATM   35  C   UNL     1      -9.843   5.025  66.377  1.00  0.00    -0.218 C  
HETATM   36  C   UNL     1     -10.367   6.343  66.943  1.00  0.00    -0.306 C  
HETATM   37  C   UNL     1     -10.024   7.530  66.045  1.00  0.00     0.340 C  
HETATM   38  C   UNL     1      -8.546   7.586  65.660  1.00  0.00    -0.131 C  
HETATM   39  C   UNL     1      -8.039   6.247  65.124  1.00  0.00    -0.130 C  
ENDBRANCH  32  34
ENDBRANCH  30  32
ENDBRANCH  28  30
ENDBRANCH  25  28
ENDBRANCH  22  25
ENDBRANCH  18  19
ENDBRANCH  17  18
ENDBRANCH  14  17
ENDBRANCH   2   3
TORSDOF 9
ENDMDL
MODEL      136
REMARK 921   NORMALIZED FREE ENERGY PREDICTED BY IDOCK:   -4.87 KCAL/MOL
REMARK 922        TOTAL FREE ENERGY PREDICTED BY IDOCK:   -9.58 KCAL/MOL
REMARK 923 INTER-LIGAND FREE ENERGY PREDICTED BY IDOCK:   -7.60 KCAL/MOL
REMARK 924 INTRA-LIGAND FREE ENERGY PREDICTED BY IDOCK:   -1.98 KCAL/MOL
REMARK 927      BINDING AFFINITY PREDICTED BY RF-SCORE:    0.00 PKD
ROOT
HETATM    1  C   UNL     1     -13.685  14.943  71.638  1.00  0.00    -0.439 C  
HETATM    2  O   UNL     1     -12.278  15.148  71.737  1.00  0.00    -0.308 OA 
ENDROOT
BRANCH   2   3
HETATM    3  C   UNL     1     -11.618  15.255  70.545  1.00  0.00    -0.306 A  
HETATM    4  C   UNL     1     -10.256  15.498  70.410  1.00  0.00    -0.036 A  
HETATM    5  C   UNL     1      -9.675  15.543  69.135  1.00  0.00    -0.252 A  
HETATM    6  C   UNL     1     -10.452  15.400  67.974  1.00  0.00    -0.257 A  
HETATM    7  C   UNL     1     -11.818  15.117  68.129  1.00  0.00    -0.252 A  
HETATM    8  C   UNL     1      -9.798  15.491  66.600  1.00  0.00    -0.268 C  
HETATM    9  C   UNL     1      -8.362  16.027  66.698  1.00  0.00    -0.296 C  
HETATM   10  C   UNL     1      -9.659  14.073  66.000  1.00  0.00    -0.230 C  
HETATM   11  C   UNL     1     -10.602  16.375  65.631  1.00  0.00    -0.337 C  
HETATM   12  C   UNL     1     -12.387  15.031  69.404  1.00  0.00    -0.161 A  
HETATM   13  O   UNL     1      -7.833  16.721  65.832  1.00  0.00    -0.324 OA 
HETATM   14  N   UNL     1      -7.668  15.512  67.777  1.00  0.00    -0.130 N  
HETATM   15  O   UNL     1      -7.515  15.642  70.068  1.00  0.00    -0.024 OA 
HETATM   16  C   UNL     1      -8.194  15.584  69.048  1.00  0.00    -0.227 C  
BRANCH  14  17
HETATM   17  C   UNL     1      -6.287  15.125  67.593  1.00  0.00    -0.139 C  
BRANCH  17  18
HETATM   18  C   UNL     1      -5.844  13.807  68.228  1.00  0.00    -0.109 C  
BRANCH  18  19
HETATM   19  C   UNL     1      -6.806  12.679  67.894  1.00  0.00    -0.112 A  
HETATM   20  C   UNL     1      -7.935  12.405  68.685  1.00  0.00    -0.041 A  
HETATM   21  C   UNL     1      -8.771  11.327  68.397  1.00  0.00    -0.159 A  
HETATM   22  C   UNL     1      -8.503  10.532  67.288  1.00  0.00    -0.122 A  
HETATM   23  C   UNL     1      -6.568  11.881  66.766  1.00  0.00    -0.020 A  
HETATM   24  C   UNL     1      -7.406  10.802  66.470  1.00  0.00    -0.139 A  
BRANCH  22  25
HETATM   25  S   UNL     1      -9.546   9.136  66.960  1.00  0.00    -0.184 S  
HETATM   26  O   UNL     1     -10.872   9.394  67.481  1.00  0.00    -0.269 OA 
HETATM   27  O   UNL     1      -9.362   8.777  65.569  1.00  0.00    -0.192 OA 
BRANCH  25  28
HETATM   28  N   UNL     1      -8.829   7.912  67.822  1.00  0.00    -0.123 N  
HETATM   29  H   UNL     1      -8.612   7.046  67.329  1.00  0.00     0.000 HD 
BRANCH  28  30
HETATM   30  C   UNL     1      -8.507   7.986  69.163  1.00  0.00    -0.136 C  
HETATM   31  O   UNL     1      -7.373   7.873  69.600  1.00  0.00    -0.084 OA 
BRANCH  30  32
HETATM   32  N   UNL     1      -9.603   8.193  69.943  1.00  0.00    -0.174 N  
HETATM   33  H   UNL     1      -9.784   9.127  70.311  1.00  0.00     0.000 HD 
BRANCH  32  34
HETATM   34  C   UNL     1     -10.526   7.110  70.264  1.00  0.00    -0.217 C  
HETATM   35  C   UNL     1      -9.851   6.037  71.126  1.00  0.00    -0.214 C  
HETATM   36  C   UNL     1      -9.494   6.568  72.513  1.00  0.00    -0.148 C  
HETATM   37  C   UNL     1     -10.699   7.180  73.222  1.00  0.00    -0.403 C  
HETATM   38  C   UNL     1     -11.449   8.197  72.363  1.00  0.00    -0.462 C  
HETATM   39  C   UNL     1     -11.770   7.653  70.972  1.00  0.00    -0.306 C  
ENDBRANCH  32  34
ENDBRANCH  30  32
ENDBRANCH  28  30
ENDBRANCH  25  28
ENDBRANCH  22  25
ENDBRANCH  18  19
ENDBRANCH  17  18
ENDBRANCH  14  17
ENDBRANCH   2   3
TORSDOF 9
ENDMDL
MODEL      137
REMARK 921   NORMALIZED FREE ENERGY PREDICTED BY IDOCK:   -4.86 KCAL/MOL
REMARK 922        TOTAL FREE ENERGY PREDICTED BY IDOCK:   -9.57 KCAL/MOL
REMARK 923 INTER-LIGAND FREE ENERGY PREDICTED BY IDOCK:   -9.11 KCAL/MOL
REMARK 924 INTRA-LIGAND FREE ENERGY PREDICTED BY IDOCK:   -0.46 KCAL/MOL
REMARK 927      BINDING AFFINITY PREDICTED BY RF-SCORE:    0.00 PKD
ROOT
HETATM    1  C   UNL     1      -7.753   3.925  69.018  1.00  0.00    -0.053 C  
HETATM    2  O   UNL     1      -8.575   4.752  68.198  1.00  0.00    -0.101 OA 
ENDROOT
BRANCH   2   3
HETATM    3  C   UNL     1      -9.341   5.664  68.869  1.00  0.00    -0.120 A  
HETATM    4  C   UNL     1      -9.370   7.028  68.602  1.00  0.00    -0.136 A  
HETATM    5  C   UNL     1     -10.228   7.866  69.325  1.00  0.00    -0.216 A  
HETATM    6  C   UNL     1     -11.032   7.366  70.363  1.00  0.00    -0.269 A  
HETATM    7  C   UNL     1     -11.020   5.982  70.594  1.00  0.00    -0.376 A  
HETATM    8  C   UNL     1     -11.929   8.309  71.158  1.00  0.00    -0.290 C  
HETATM    9  C   UNL     1     -11.592   9.780  70.869  1.00  0.00    -0.361 C  
HETATM   10  C   UNL     1     -13.394   8.135  70.700  1.00  0.00     0.648 C  
HETATM   11  C   UNL     1     -11.837   8.059  72.673  1.00  0.00    -0.380 C  
HETATM   12  C   UNL     1     -10.193   5.142  69.842  1.00  0.00    -0.361 A  
HETATM   13  O   UNL     1     -11.691  10.679  71.701  1.00  0.00    -0.002 OA 
HETATM   14  N   UNL     1     -11.325  10.017  69.533  1.00  0.00    -0.206 N  
HETATM   15  O   UNL     1      -9.730   9.681  67.911  1.00  0.00    -0.142 OA 
HETATM   16  C   UNL     1     -10.386   9.267  68.860  1.00  0.00    -0.214 C  
BRANCH  14  17
HETATM   17  C   UNL     1     -11.857  11.214  68.922  1.00  0.00    -0.337 C  
BRANCH  17  18
HETATM   18  C   UNL     1     -11.688  11.358  67.410  1.00  0.00    -0.172 C  
BRANCH  18  19
HETATM   19  C   UNL     1     -11.356  12.789  67.022  1.00  0.00    -0.364 A  
HETATM   20  C   UNL     1     -10.830  13.115  65.759  1.00  0.00    -0.289 A  
HETATM   21  C   UNL     1     -10.473  14.425  65.444  1.00  0.00    -0.391 A  
HETATM   22  C   UNL     1     -10.675  15.432  66.382  1.00  0.00    -0.311 A  
HETATM   23  C   UNL     1     -11.576  13.823  67.943  1.00  0.00    -0.376 A  
HETATM   24  C   UNL     1     -11.224  15.139  67.630  1.00  0.00    -0.329 A  
BRANCH  22  25
HETATM   25  S   UNL     1     -10.174  17.086  65.987  1.00  0.00    -0.278 S  
HETATM   26  O   UNL     1      -8.739  17.122  65.795  1.00  0.00    -0.527 OA 
HETATM   27  O   UNL     1     -11.064  17.571  64.951  1.00  0.00    -0.860 OA 
BRANCH  25  28
HETATM   28  N   UNL     1     -10.583  17.945  67.347  1.00  0.00    -0.383 N  
HETATM   29  H   UNL     1     -11.501  17.776  67.758  1.00  0.00     0.000 HD 
BRANCH  28  30
HETATM   30  C   UNL     1      -9.764  18.872  67.961  1.00  0.00    -0.337 C  
HETATM   31  O   UNL     1     -10.159  19.928  68.429  1.00  0.00    -0.428 OA 
BRANCH  30  32
HETATM   32  N   UNL     1      -8.463  18.475  67.977  1.00  0.00    -0.276 N  
HETATM   33  H   UNL     1      -7.909  18.544  67.123  1.00  0.00     0.000 HD 
BRANCH  32  34
HETATM   34  C   UNL     1      -7.841  17.951  69.189  1.00  0.00     0.018 C  
HETATM   35  C   UNL     1      -7.759  16.420  69.159  1.00  0.00    -0.220 C  
HETATM   36  C   UNL     1      -6.804  15.925  68.076  1.00  0.00    -0.137 C  
HETATM   37  C   UNL     1      -5.419  16.558  68.197  1.00  0.00    -0.117 C  
HETATM   38  C   UNL     1      -5.462  18.081  68.312  1.00  0.00    -0.160 C  
HETATM   39  C   UNL     1      -6.446  18.551  69.383  1.00  0.00    -0.257 C  
ENDBRANCH  32  34
ENDBRANCH  30  32
ENDBRANCH  28  30
ENDBRANCH  25  28
ENDBRANCH  22  25
ENDBRANCH  18  19
ENDBRANCH  17  18
ENDBRANCH  14  17
ENDBRANCH   2   3
TORSDOF 9
ENDMDL
MODEL      138
REMARK 921   NORMALIZED FREE ENERGY PREDICTED BY IDOCK:   -4.85 KCAL/MOL
REMARK 922        TOTAL FREE ENERGY PREDICTED BY IDOCK:   -9.55 KCAL/MOL
REMARK 923 INTER-LIGAND FREE ENERGY PREDICTED BY IDOCK:   -8.52 KCAL/MOL
REMARK 924 INTRA-LIGAND FREE ENERGY PREDICTED BY IDOCK:   -1.03 KCAL/MOL
REMARK 927      BINDING AFFINITY PREDICTED BY RF-SCORE:    0.00 PKD
ROOT
HETATM    1  C   UNL     1     -14.166  15.057  72.066  1.00  0.00    -0.555 C  
HETATM    2  O   UNL     1     -12.813  14.612  72.004  1.00  0.00    -0.308 OA 
ENDROOT
BRANCH   2   3
HETATM    3  C   UNL     1     -12.157  14.895  70.839  1.00  0.00    -0.317 A  
HETATM    4  C   UNL     1     -12.300  14.184  69.654  1.00  0.00    -0.304 A  
HETATM    5  C   UNL     1     -11.609  14.592  68.504  1.00  0.00    -0.346 A  
HETATM    6  C   UNL     1     -10.725  15.682  68.533  1.00  0.00    -0.264 A  
HETATM    7  C   UNL     1     -10.622  16.413  69.726  1.00  0.00    -0.288 A  
HETATM    8  C   UNL     1      -9.959  16.080  67.276  1.00  0.00    -0.242 C  
HETATM    9  C   UNL     1     -10.070  15.001  66.188  1.00  0.00    -0.294 C  
HETATM   10  C   UNL     1     -10.602  17.342  66.658  1.00  0.00    -0.179 C  
HETATM   11  C   UNL     1      -8.473  16.356  67.563  1.00  0.00    -0.182 C  
HETATM   12  C   UNL     1     -11.345  16.029  70.861  1.00  0.00    -0.421 A  
HETATM   13  O   UNL     1      -9.176  14.751  65.382  1.00  0.00     0.141 OA 
HETATM   14  N   UNL     1     -11.337  14.454  66.100  1.00  0.00    -0.343 N  
HETATM   15  O   UNL     1     -12.782  13.032  67.186  1.00  0.00     0.090 OA 
HETATM   16  C   UNL     1     -11.959  13.941  67.217  1.00  0.00    -0.411 C  
BRANCH  14  17
HETATM   17  C   UNL     1     -11.894  14.203  64.790  1.00  0.00    -0.417 C  
BRANCH  17  18
HETATM   18  C   UNL     1     -12.291  12.763  64.467  1.00  0.00    -0.515 C  
BRANCH  18  19
HETATM   19  C   UNL     1     -11.078  11.846  64.438  1.00  0.00    -0.395 A  
HETATM   20  C   UNL     1     -10.640  11.156  65.582  1.00  0.00    -0.286 A  
HETATM   21  C   UNL     1      -9.490  10.369  65.551  1.00  0.00    -0.267 A  
HETATM   22  C   UNL     1      -8.785  10.236  64.359  1.00  0.00    -0.198 A  
HETATM   23  C   UNL     1     -10.369  11.678  63.241  1.00  0.00    -0.444 A  
HETATM   24  C   UNL     1      -9.218  10.886  63.203  1.00  0.00    -0.314 A  
BRANCH  22  25
HETATM   25  S   UNL     1      -7.298   9.271  64.344  1.00  0.00    -0.109 S  
HETATM   26  O   UNL     1      -7.636   7.869  64.214  1.00  0.00    -0.102 OA 
HETATM   27  O   UNL     1      -6.387   9.895  63.407  1.00  0.00    -0.113 OA 
BRANCH  25  28
HETATM   28  N   UNL     1      -6.642   9.556  65.842  1.00  0.00    -0.076 N  
HETATM   29  H   UNL     1      -6.450  10.524  66.101  1.00  0.00     0.000 HD 
BRANCH  28  30
HETATM   30  C   UNL     1      -6.339   8.572  66.762  1.00  0.00    -0.056 C  
HETATM   31  O   UNL     1      -5.550   7.664  66.556  1.00  0.00    -0.024 OA 
BRANCH  30  32
HETATM   32  N   UNL     1      -7.027   8.730  67.926  1.00  0.00    -0.077 N  
HETATM   33  H   UNL     1      -6.754   9.471  68.570  1.00  0.00     0.000 HD 
BRANCH  32  34
HETATM   34  C   UNL     1      -8.148   7.862  68.271  1.00  0.00    -0.123 C  
HETATM   35  C   UNL     1      -7.784   6.905  69.413  1.00  0.00    -0.105 C  
HETATM   36  C   UNL     1      -7.548   7.652  70.724  1.00  0.00    -0.080 C  
HETATM   37  C   UNL     1      -8.729   8.546  71.097  1.00  0.00    -0.215 C  
HETATM   38  C   UNL     1      -9.176   9.459  69.956  1.00  0.00    -0.245 C  
HETATM   39  C   UNL     1      -9.378   8.693  68.649  1.00  0.00    -0.142 C  
ENDBRANCH  32  34
ENDBRANCH  30  32
ENDBRANCH  28  30
ENDBRANCH  25  28
ENDBRANCH  22  25
ENDBRANCH  18  19
ENDBRANCH  17  18
ENDBRANCH  14  17
ENDBRANCH   2   3
TORSDOF 9
ENDMDL
MODEL      139
REMARK 921   NORMALIZED FREE ENERGY PREDICTED BY IDOCK:   -4.85 KCAL/MOL
REMARK 922        TOTAL FREE ENERGY PREDICTED BY IDOCK:   -9.55 KCAL/MOL
REMARK 923 INTER-LIGAND FREE ENERGY PREDICTED BY IDOCK:   -8.75 KCAL/MOL
REMARK 924 INTRA-LIGAND FREE ENERGY PREDICTED BY IDOCK:   -0.80 KCAL/MOL
REMARK 927      BINDING AFFINITY PREDICTED BY RF-SCORE:    0.00 PKD
ROOT
HETATM    1  C   UNL     1     -14.065  14.466  72.045  1.00  0.00    -0.530 C  
HETATM    2  O   UNL     1     -12.640  14.495  72.050  1.00  0.00    -0.319 OA 
ENDROOT
BRANCH   2   3
HETATM    3  C   UNL     1     -12.059  14.869  70.871  1.00  0.00    -0.317 A  
HETATM    4  C   UNL     1     -12.180  14.180  69.670  1.00  0.00    -0.376 A  
HETATM    5  C   UNL     1     -11.575  14.682  68.510  1.00  0.00    -0.346 A  
HETATM    6  C   UNL     1     -10.796  15.850  68.540  1.00  0.00    -0.298 A  
HETATM    7  C   UNL     1     -10.717  16.555  69.750  1.00  0.00    -0.298 A  
HETATM    8  C   UNL     1     -10.121  16.352  67.269  1.00  0.00    -0.270 C  
HETATM    9  C   UNL     1     -10.171  15.296  66.153  1.00  0.00    -0.304 C  
HETATM   10  C   UNL     1     -10.902  17.563  66.712  1.00  0.00     0.009 C  
HETATM   11  C   UNL     1      -8.657  16.759  67.510  1.00  0.00    -0.203 C  
HETATM   12  C   UNL     1     -11.356  16.074  70.898  1.00  0.00    -0.421 A  
HETATM   13  O   UNL     1      -9.290  15.154  65.309  1.00  0.00    -0.006 OA 
HETATM   14  N   UNL     1     -11.384  14.635  66.094  1.00  0.00    -0.349 N  
HETATM   15  O   UNL     1     -12.647  13.054  67.188  1.00  0.00    -0.118 OA 
HETATM   16  C   UNL     1     -11.912  14.036  67.216  1.00  0.00    -0.413 C  
BRANCH  14  17
HETATM   17  C   UNL     1     -11.965  14.368  64.798  1.00  0.00    -0.447 C  
BRANCH  17  18
HETATM   18  C   UNL     1     -12.434  12.938  64.527  1.00  0.00    -0.468 C  
BRANCH  18  19
HETATM   19  C   UNL     1     -11.256  11.991  64.360  1.00  0.00    -0.406 A  
HETATM   20  C   UNL     1     -10.987  10.969  65.287  1.00  0.00    -0.097 A  
HETATM   21  C   UNL     1      -9.867  10.149  65.149  1.00  0.00    -0.394 A  
HETATM   22  C   UNL     1      -9.023  10.324  64.057  1.00  0.00    -0.237 A  
HETATM   23  C   UNL     1     -10.409  12.132  63.252  1.00  0.00    -0.352 A  
HETATM   24  C   UNL     1      -9.287  11.311  63.107  1.00  0.00    -0.325 A  
BRANCH  22  25
HETATM   25  S   UNL     1      -7.578   9.307  63.919  1.00  0.00    -0.119 S  
HETATM   26  O   UNL     1      -7.604   8.602  62.655  1.00  0.00    -0.107 OA 
HETATM   27  O   UNL     1      -6.438  10.126  64.277  1.00  0.00    -0.127 OA 
BRANCH  25  28
HETATM   28  N   UNL     1      -7.747   8.229  65.169  1.00  0.00    -0.096 N  
HETATM   29  H   UNL     1      -7.937   7.255  64.936  1.00  0.00     0.000 HD 
BRANCH  28  30
HETATM   30  C   UNL     1      -7.648   8.562  66.506  1.00  0.00    -0.088 C  
HETATM   31  O   UNL     1      -7.858   7.783  67.421  1.00  0.00    -0.113 OA 
BRANCH  30  32
HETATM   32  N   UNL     1      -7.294   9.864  66.684  1.00  0.00    -0.097 N  
HETATM   33  H   UNL     1      -7.123  10.450  65.868  1.00  0.00     0.000 HD 
BRANCH  32  34
HETATM   34  C   UNL     1      -7.154  10.440  68.017  1.00  0.00    -0.082 C  
HETATM   35  C   UNL     1      -5.920  11.346  68.109  1.00  0.00    -0.045 C  
HETATM   36  C   UNL     1      -6.068  12.593  67.240  1.00  0.00    -0.086 C  
HETATM   37  C   UNL     1      -7.351  13.361  67.551  1.00  0.00    -0.165 C  
HETATM   38  C   UNL     1      -8.596  12.476  67.550  1.00  0.00    -0.183 C  
HETATM   39  C   UNL     1      -8.413  11.221  68.403  1.00  0.00    -0.153 C  
ENDBRANCH  32  34
ENDBRANCH  30  32
ENDBRANCH  28  30
ENDBRANCH  25  28
ENDBRANCH  22  25
ENDBRANCH  18  19
ENDBRANCH  17  18
ENDBRANCH  14  17
ENDBRANCH   2   3
TORSDOF 9
ENDMDL
MODEL      140
REMARK 921   NORMALIZED FREE ENERGY PREDICTED BY IDOCK:   -4.83 KCAL/MOL
REMARK 922        TOTAL FREE ENERGY PREDICTED BY IDOCK:   -9.52 KCAL/MOL
REMARK 923 INTER-LIGAND FREE ENERGY PREDICTED BY IDOCK:   -9.34 KCAL/MOL
REMARK 924 INTRA-LIGAND FREE ENERGY PREDICTED BY IDOCK:   -0.18 KCAL/MOL
REMARK 927      BINDING AFFINITY PREDICTED BY RF-SCORE:    0.00 PKD
ROOT
HETATM    1  C   UNL     1      -5.243   5.065  63.973  1.00  0.00    -0.009 C  
HETATM    2  O   UNL     1      -5.129   5.444  65.342  1.00  0.00    -0.009 OA 
ENDROOT
BRANCH   2   3
HETATM    3  C   UNL     1      -6.302   5.781  65.956  1.00  0.00    -0.039 A  
HETATM    4  C   UNL     1      -6.436   6.080  67.306  1.00  0.00    -0.047 A  
HETATM    5  C   UNL     1      -7.684   6.459  67.820  1.00  0.00    -0.103 A  
HETATM    6  C   UNL     1      -8.828   6.493  67.006  1.00  0.00    -0.116 A  
HETATM    7  C   UNL     1      -8.669   6.227  65.638  1.00  0.00    -0.122 A  
HETATM    8  C   UNL     1     -10.179   6.873  67.602  1.00  0.00    -0.235 C  
HETATM    9  C   UNL     1     -10.129   6.892  69.137  1.00  0.00    -0.173 C  
HETATM   10  C   UNL     1     -10.535   8.319  67.193  1.00  0.00    -0.386 C  
HETATM   11  C   UNL     1     -11.303   5.925  67.146  1.00  0.00     0.309 C  
HETATM   12  C   UNL     1      -7.414   5.890  65.120  1.00  0.00    -0.079 A  
HETATM   13  O   UNL     1     -11.081   6.590  69.854  1.00  0.00    -0.302 OA 
HETATM   14  N   UNL     1      -8.961   7.443  69.630  1.00  0.00    -0.141 N  
HETATM   15  O   UNL     1      -6.718   7.007  69.897  1.00  0.00    -0.046 OA 
HETATM   16  C   UNL     1      -7.734   6.978  69.210  1.00  0.00    -0.109 C  
BRANCH  14  17
HETATM   17  C   UNL     1      -9.039   8.333  70.766  1.00  0.00    -0.150 C  
BRANCH  17  18
HETATM   18  C   UNL     1     -10.384   9.013  71.026  1.00  0.00    -0.348 C  
BRANCH  18  19
HETATM   19  C   UNL     1     -10.666  10.095  69.996  1.00  0.00    -0.356 A  
HETATM   20  C   UNL     1     -11.935  10.686  69.868  1.00  0.00    -0.385 A  
HETATM   21  C   UNL     1     -12.191  11.634  68.878  1.00  0.00    -0.112 A  
HETATM   22  C   UNL     1     -11.164  12.025  68.025  1.00  0.00    -0.258 A  
HETATM   23  C   UNL     1      -9.638  10.523  69.145  1.00  0.00    -0.214 A  
HETATM   24  C   UNL     1      -9.888  11.475  68.153  1.00  0.00    -0.197 A  
BRANCH  22  25
HETATM   25  S   UNL     1     -11.514  13.195  66.740  1.00  0.00    -0.362 S  
HETATM   26  O   UNL     1     -10.273  13.757  66.250  1.00  0.00    -0.282 OA 
HETATM   27  O   UNL     1     -12.445  12.566  65.826  1.00  0.00    -0.626 OA 
BRANCH  25  28
HETATM   28  N   UNL     1     -12.395  14.366  67.519  1.00  0.00    -0.600 N  
HETATM   29  H   UNL     1     -13.367  14.495  67.238  1.00  0.00     0.000 HD 
BRANCH  28  30
HETATM   30  C   UNL     1     -11.902  15.177  68.522  1.00  0.00    -0.281 C  
HETATM   31  O   UNL     1     -11.189  16.148  68.327  1.00  0.00    -0.352 OA 
BRANCH  30  32
HETATM   32  N   UNL     1     -12.299  14.763  69.756  1.00  0.00    -0.492 N  
HETATM   33  H   UNL     1     -12.102  13.806  70.049  1.00  0.00     0.000 HD 
BRANCH  32  34
HETATM   34  C   UNL     1     -13.001  15.657  70.671  1.00  0.00    -0.290 C  
HETATM   35  C   UNL     1     -14.193  14.956  71.335  1.00  0.00    -0.558 C  
HETATM   36  C   UNL     1     -13.741  13.838  72.272  1.00  0.00    -0.673 C  
HETATM   37  C   UNL     1     -12.731  14.328  73.307  1.00  0.00    -0.259 C  
HETATM   38  C   UNL     1     -11.567  15.104  72.692  1.00  0.00    -0.419 C  
HETATM   39  C   UNL     1     -12.044  16.198  71.738  1.00  0.00    -0.517 C  
ENDBRANCH  32  34
ENDBRANCH  30  32
ENDBRANCH  28  30
ENDBRANCH  25  28
ENDBRANCH  22  25
ENDBRANCH  18  19
ENDBRANCH  17  18
ENDBRANCH  14  17
ENDBRANCH   2   3
TORSDOF 9
ENDMDL
MODEL      141
REMARK 921   NORMALIZED FREE ENERGY PREDICTED BY IDOCK:   -4.81 KCAL/MOL
REMARK 922        TOTAL FREE ENERGY PREDICTED BY IDOCK:   -9.49 KCAL/MOL
REMARK 923 INTER-LIGAND FREE ENERGY PREDICTED BY IDOCK:   -7.44 KCAL/MOL
REMARK 924 INTRA-LIGAND FREE ENERGY PREDICTED BY IDOCK:   -2.05 KCAL/MOL
REMARK 927      BINDING AFFINITY PREDICTED BY RF-SCORE:    0.00 PKD
ROOT
HETATM    1  C   UNL     1     -14.129   8.672  71.933  1.00  0.00    -0.443 C  
HETATM    2  O   UNL     1     -13.339   9.688  72.545  1.00  0.00    -0.390 OA 
ENDROOT
BRANCH   2   3
HETATM    3  C   UNL     1     -12.755  10.573  71.682  1.00  0.00    -0.445 A  
HETATM    4  C   UNL     1     -11.767  10.249  70.759  1.00  0.00    -0.453 A  
HETATM    5  C   UNL     1     -11.271  11.231  69.891  1.00  0.00    -0.264 A  
HETATM    6  C   UNL     1     -11.713  12.562  69.966  1.00  0.00    -0.297 A  
HETATM    7  C   UNL     1     -12.738  12.863  70.875  1.00  0.00    -0.291 A  
HETATM    8  C   UNL     1     -11.128  13.616  69.032  1.00  0.00    -0.295 C  
HETATM    9  C   UNL     1      -9.882  13.090  68.304  1.00  0.00    -0.225 C  
HETATM   10  C   UNL     1     -12.144  13.935  67.913  1.00  0.00    -0.318 C  
HETATM   11  C   UNL     1     -10.767  14.914  69.775  1.00  0.00    -0.223 C  
HETATM   12  C   UNL     1     -13.261  11.872  71.712  1.00  0.00    -0.426 A  
HETATM   13  O   UNL     1      -8.927  13.796  67.989  1.00  0.00    -0.171 OA 
HETATM   14  N   UNL     1     -10.015  11.777  67.891  1.00  0.00    -0.177 N  
HETATM   15  O   UNL     1     -10.053   9.618  68.683  1.00  0.00    -0.167 OA 
HETATM   16  C   UNL     1     -10.384  10.794  68.783  1.00  0.00    -0.192 C  
BRANCH  14  17
HETATM   17  C   UNL     1      -9.525  11.409  66.582  1.00  0.00    -0.189 C  
BRANCH  17  18
HETATM   18  C   UNL     1      -8.033  11.104  66.458  1.00  0.00    -0.158 C  
BRANCH  18  19
HETATM   19  C   UNL     1      -7.790   9.633  66.161  1.00  0.00    -0.101 A  
HETATM   20  C   UNL     1      -6.513   9.054  66.264  1.00  0.00    -0.066 A  
HETATM   21  C   UNL     1      -6.299   7.718  65.928  1.00  0.00    -0.042 A  
HETATM   22  C   UNL     1      -7.374   6.937  65.517  1.00  0.00    -0.079 A  
HETATM   23  C   UNL     1      -8.864   8.821  65.771  1.00  0.00    -0.233 A  
HETATM   24  C   UNL     1      -8.656   7.480  65.436  1.00  0.00    -0.069 A  
BRANCH  22  25
HETATM   25  S   UNL     1      -7.081   5.253  65.047  1.00  0.00    -0.063 S  
HETATM   26  O   UNL     1      -6.605   5.210  63.680  1.00  0.00    -0.029 OA 
HETATM   27  O   UNL     1      -6.313   4.635  66.109  1.00  0.00    -0.034 OA 
BRANCH  25  28
HETATM   28  N   UNL     1      -8.587   4.562  65.142  1.00  0.00    -0.126 N  
HETATM   29  H   UNL     1      -9.250   4.760  64.392  1.00  0.00     0.000 HD 
BRANCH  28  30
HETATM   30  C   UNL     1      -9.004   3.736  66.167  1.00  0.00    -0.135 C  
HETATM   31  O   UNL     1      -9.052   2.519  66.088  1.00  0.00    -0.143 OA 
BRANCH  30  32
HETATM   32  N   UNL     1      -9.363   4.439  67.276  1.00  0.00    -0.144 N  
HETATM   33  H   UNL     1     -10.060   5.179  67.193  1.00  0.00     0.000 HD 
BRANCH  32  34
HETATM   34  C   UNL     1      -8.775   4.157  68.581  1.00  0.00    -0.097 C  
HETATM   35  C   UNL     1      -7.688   5.179  68.936  1.00  0.00    -0.081 C  
HETATM   36  C   UNL     1      -8.271   6.575  69.149  1.00  0.00    -0.116 C  
HETATM   37  C   UNL     1      -9.400   6.575  70.177  1.00  0.00    -0.162 C  
HETATM   38  C   UNL     1     -10.464   5.514  69.903  1.00  0.00    -0.386 C  
HETATM   39  C   UNL     1      -9.853   4.133  69.667  1.00  0.00    -0.208 C  
ENDBRANCH  32  34
ENDBRANCH  30  32
ENDBRANCH  28  30
ENDBRANCH  25  28
ENDBRANCH  22  25
ENDBRANCH  18  19
ENDBRANCH  17  18
ENDBRANCH  14  17
ENDBRANCH   2   3
TORSDOF 9
ENDMDL
MODEL      142
REMARK 921   NORMALIZED FREE ENERGY PREDICTED BY IDOCK:   -4.79 KCAL/MOL
REMARK 922        TOTAL FREE ENERGY PREDICTED BY IDOCK:   -9.45 KCAL/MOL
REMARK 923 INTER-LIGAND FREE ENERGY PREDICTED BY IDOCK:   -5.93 KCAL/MOL
REMARK 924 INTRA-LIGAND FREE ENERGY PREDICTED BY IDOCK:   -3.52 KCAL/MOL
REMARK 927      BINDING AFFINITY PREDICTED BY RF-SCORE:    0.00 PKD
ROOT
HETATM    1  C   UNL     1     -12.498  11.169  71.189  1.00  0.00    -0.393 C  
HETATM    2  O   UNL     1     -12.255  10.125  70.249  1.00  0.00    -0.248 OA 
ENDROOT
BRANCH   2   3
HETATM    3  C   UNL     1     -11.711   8.985  70.770  1.00  0.00    -0.242 A  
HETATM    4  C   UNL     1     -11.574   7.784  70.084  1.00  0.00     0.029 A  
HETATM    5  C   UNL     1     -10.958   6.689  70.704  1.00  0.00    -0.329 A  
HETATM    6  C   UNL     1     -10.517   6.757  72.036  1.00  0.00    -0.226 A  
HETATM    7  C   UNL     1     -10.626   7.988  72.701  1.00  0.00    -0.419 A  
HETATM    8  C   UNL     1      -9.884   5.537  72.696  1.00  0.00    -0.185 C  
HETATM    9  C   UNL     1     -10.088   4.273  71.848  1.00  0.00    -0.167 C  
HETATM   10  C   UNL     1      -8.353   5.728  72.772  1.00  0.00    -0.119 C  
HETATM   11  C   UNL     1     -10.436   5.290  74.111  1.00  0.00    -0.319 C  
HETATM   12  C   UNL     1     -11.204   9.092  72.065  1.00  0.00    -0.379 A  
HETATM   13  O   UNL     1     -10.227   3.148  72.323  1.00  0.00    -0.161 OA 
HETATM   14  N   UNL     1      -9.932   4.503  70.493  1.00  0.00    -0.223 N  
HETATM   15  O   UNL     1     -10.967   5.477  68.685  1.00  0.00    -0.131 OA 
HETATM   16  C   UNL     1     -10.638   5.506  69.866  1.00  0.00    -0.317 C  
BRANCH  14  17
HETATM   17  C   UNL     1      -9.215   3.528  69.702  1.00  0.00    -0.153 C  
BRANCH  17  18
HETATM   18  C   UNL     1      -7.723   3.773  69.482  1.00  0.00    -0.052 C  
BRANCH  18  19
HETATM   19  C   UNL     1      -7.458   4.407  68.126  1.00  0.00    -0.065 A  
HETATM   20  C   UNL     1      -6.267   5.101  67.849  1.00  0.00    -0.035 A  
HETATM   21  C   UNL     1      -6.069   5.728  66.620  1.00  0.00    -0.026 A  
HETATM   22  C   UNL     1      -7.052   5.637  65.640  1.00  0.00    -0.067 A  
HETATM   23  C   UNL     1      -8.424   4.304  67.116  1.00  0.00    -0.100 A  
HETATM   24  C   UNL     1      -8.229   4.927  65.880  1.00  0.00    -0.113 A  
BRANCH  22  25
HETATM   25  S   UNL     1      -6.808   6.478  64.099  1.00  0.00    -0.047 S  
HETATM   26  O   UNL     1      -5.555   6.054  63.511  1.00  0.00    -0.017 OA 
HETATM   27  O   UNL     1      -8.043   6.371  63.349  1.00  0.00    -0.105 OA 
BRANCH  25  28
HETATM   28  N   UNL     1      -6.710   8.074  64.546  1.00  0.00    -0.059 N  
HETATM   29  H   UNL     1      -5.794   8.522  64.513  1.00  0.00     0.000 HD 
BRANCH  28  30
HETATM   30  C   UNL     1      -7.784   8.836  64.961  1.00  0.00    -0.105 C  
HETATM   31  O   UNL     1      -8.638   9.279  64.210  1.00  0.00    -0.185 OA 
BRANCH  30  32
HETATM   32  N   UNL     1      -7.776   9.043  66.306  1.00  0.00    -0.095 N  
HETATM   33  H   UNL     1      -6.992   9.539  66.730  1.00  0.00     0.000 HD 
BRANCH  32  34
HETATM   34  C   UNL     1      -8.863   8.571  67.157  1.00  0.00    -0.129 C  
HETATM   35  C   UNL     1      -8.329   7.896  68.426  1.00  0.00    -0.124 C  
HETATM   36  C   UNL     1      -7.623   8.893  69.342  1.00  0.00    -0.081 C  
HETATM   37  C   UNL     1      -8.506  10.093  69.675  1.00  0.00    -0.172 C  
HETATM   38  C   UNL     1      -9.124  10.746  68.440  1.00  0.00    -0.164 C  
HETATM   39  C   UNL     1      -9.800   9.724  67.525  1.00  0.00    -0.209 C  
ENDBRANCH  32  34
ENDBRANCH  30  32
ENDBRANCH  28  30
ENDBRANCH  25  28
ENDBRANCH  22  25
ENDBRANCH  18  19
ENDBRANCH  17  18
ENDBRANCH  14  17
ENDBRANCH   2   3
TORSDOF 9
ENDMDL
MODEL      143
REMARK 921   NORMALIZED FREE ENERGY PREDICTED BY IDOCK:   -4.78 KCAL/MOL
REMARK 922        TOTAL FREE ENERGY PREDICTED BY IDOCK:   -9.44 KCAL/MOL
REMARK 923 INTER-LIGAND FREE ENERGY PREDICTED BY IDOCK:   -6.71 KCAL/MOL
REMARK 924 INTRA-LIGAND FREE ENERGY PREDICTED BY IDOCK:   -2.73 KCAL/MOL
REMARK 927      BINDING AFFINITY PREDICTED BY RF-SCORE:    0.00 PKD
ROOT
HETATM    1  C   UNL     1      -5.982  18.476  68.251  1.00  0.00    -0.197 C  
HETATM    2  O   UNL     1      -7.383  18.619  68.029  1.00  0.00    -0.239 OA 
ENDROOT
BRANCH   2   3
HETATM    3  C   UNL     1      -8.093  17.452  68.006  1.00  0.00    -0.227 A  
HETATM    4  C   UNL     1      -9.018  17.103  67.028  1.00  0.00    -0.244 A  
HETATM    5  C   UNL     1      -9.656  15.857  67.081  1.00  0.00    -0.224 A  
HETATM    6  C   UNL     1      -9.424  14.961  68.137  1.00  0.00    -0.202 A  
HETATM    7  C   UNL     1      -8.459  15.311  69.094  1.00  0.00    -0.234 A  
HETATM    8  C   UNL     1     -10.161  13.628  68.186  1.00  0.00    -0.247 C  
HETATM    9  C   UNL     1     -11.311  13.586  67.168  1.00  0.00    -0.321 C  
HETATM   10  C   UNL     1      -9.204  12.493  67.760  1.00  0.00    -0.198 C  
HETATM   11  C   UNL     1     -10.719  13.323  69.588  1.00  0.00     0.338 C  
HETATM   12  C   UNL     1      -7.792  16.539  69.016  1.00  0.00    -0.226 A  
HETATM   13  O   UNL     1     -12.362  12.976  67.350  1.00  0.00    -0.249 OA 
HETATM   14  N   UNL     1     -10.977  14.163  65.957  1.00  0.00    -0.301 N  
HETATM   15  O   UNL     1     -10.611  16.202  64.955  1.00  0.00    -0.588 OA 
HETATM   16  C   UNL     1     -10.464  15.441  65.906  1.00  0.00    -0.340 C  
BRANCH  14  17
HETATM   17  C   UNL     1     -11.402  13.513  64.738  1.00  0.00    -0.347 C  
BRANCH  17  18
HETATM   18  C   UNL     1     -10.308  12.932  63.842  1.00  0.00    -0.264 C  
BRANCH  18  19
HETATM   19  C   UNL     1      -9.816  11.592  64.365  1.00  0.00    -0.253 A  
HETATM   20  C   UNL     1      -8.480  11.180  64.214  1.00  0.00     0.341 A  
HETATM   21  C   UNL     1      -8.062   9.922  64.646  1.00  0.00    -0.152 A  
HETATM   22  C   UNL     1      -8.973   9.076  65.269  1.00  0.00    -0.183 A  
HETATM   23  C   UNL     1     -10.712  10.735  65.020  1.00  0.00    -0.160 A  
HETATM   24  C   UNL     1     -10.297   9.475  65.459  1.00  0.00     0.308 A  
BRANCH  22  25
HETATM   25  S   UNL     1      -8.441   7.462  65.771  1.00  0.00    -0.129 S  
HETATM   26  O   UNL     1      -8.199   6.648  64.599  1.00  0.00    -0.112 OA 
HETATM   27  O   UNL     1      -7.403   7.639  66.767  1.00  0.00    -0.085 OA 
BRANCH  25  28
HETATM   28  N   UNL     1      -9.747   6.871  66.608  1.00  0.00    -0.244 N  
HETATM   29  H   UNL     1     -10.677   7.051  66.227  1.00  0.00     0.000 HD 
BRANCH  28  30
HETATM   30  C   UNL     1      -9.662   6.153  67.784  1.00  0.00    -0.116 C  
HETATM   31  O   UNL     1      -9.691   4.934  67.844  1.00  0.00    -0.145 OA 
BRANCH  30  32
HETATM   32  N   UNL     1      -9.548   6.963  68.872  1.00  0.00    -0.139 N  
HETATM   33  H   UNL     1      -8.802   6.791  69.545  1.00  0.00     0.000 HD 
BRANCH  32  34
HETATM   34  C   UNL     1     -10.469   8.072  69.096  1.00  0.00    -0.208 C  
HETATM   35  C   UNL     1     -11.288   7.869  70.378  1.00  0.00    -0.201 C  
HETATM   36  C   UNL     1     -10.409   7.931  71.625  1.00  0.00    -0.250 C  
HETATM   37  C   UNL     1      -9.585   9.215  71.684  1.00  0.00    -0.226 C  
HETATM   38  C   UNL     1      -8.817   9.496  70.393  1.00  0.00    -0.279 C  
HETATM   39  C   UNL     1      -9.711   9.400  69.158  1.00  0.00    -0.165 C  
ENDBRANCH  32  34
ENDBRANCH  30  32
ENDBRANCH  28  30
ENDBRANCH  25  28
ENDBRANCH  22  25
ENDBRANCH  18  19
ENDBRANCH  17  18
ENDBRANCH  14  17
ENDBRANCH   2   3
TORSDOF 9
ENDMDL
MODEL      144
REMARK 921   NORMALIZED FREE ENERGY PREDICTED BY IDOCK:   -4.76 KCAL/MOL
REMARK 922        TOTAL FREE ENERGY PREDICTED BY IDOCK:   -9.40 KCAL/MOL
REMARK 923 INTER-LIGAND FREE ENERGY PREDICTED BY IDOCK:   -8.25 KCAL/MOL
REMARK 924 INTRA-LIGAND FREE ENERGY PREDICTED BY IDOCK:   -1.16 KCAL/MOL
REMARK 927      BINDING AFFINITY PREDICTED BY RF-SCORE:    0.00 PKD
ROOT
HETATM    1  C   UNL     1      -8.090  20.662  67.585  1.00  0.00    -0.148 C  
HETATM    2  O   UNL     1      -7.970  19.967  66.346  1.00  0.00    -0.298 OA 
ENDROOT
BRANCH   2   3
HETATM    3  C   UNL     1      -8.563  18.737  66.305  1.00  0.00    -0.234 A  
HETATM    4  C   UNL     1      -7.903  17.529  66.496  1.00  0.00    -0.312 A  
HETATM    5  C   UNL     1      -8.623  16.326  66.477  1.00  0.00    -0.332 A  
HETATM    6  C   UNL     1     -10.002  16.306  66.214  1.00  0.00    -0.335 A  
HETATM    7  C   UNL     1     -10.660  17.535  66.063  1.00  0.00    -0.217 A  
HETATM    8  C   UNL     1     -10.751  14.979  66.163  1.00  0.00    -0.328 C  
HETATM    9  C   UNL     1      -9.780  13.788  66.132  1.00  0.00    -0.264 C  
HETATM   10  C   UNL     1     -11.568  14.797  67.462  1.00  0.00    -0.379 C  
HETATM   11  C   UNL     1     -11.696  14.890  64.952  1.00  0.00    -0.371 C  
HETATM   12  C   UNL     1      -9.946  18.737  66.124  1.00  0.00    -0.378 A  
HETATM   13  O   UNL     1     -10.010  12.736  65.539  1.00  0.00    -0.271 OA 
HETATM   14  N   UNL     1      -8.698  13.956  66.975  1.00  0.00    -0.220 N  
HETATM   15  O   UNL     1      -6.729  15.124  67.193  1.00  0.00    -0.279 OA 
HETATM   16  C   UNL     1      -7.919  15.090  66.901  1.00  0.00    -0.074 C  
BRANCH  14  17
HETATM   17  C   UNL     1      -8.246  12.827  67.757  1.00  0.00    -0.176 C  
BRANCH  17  18
HETATM   18  C   UNL     1      -6.998  12.094  67.264  1.00  0.00    -0.148 C  
BRANCH  18  19
HETATM   19  C   UNL     1      -7.206  10.589  67.253  1.00  0.00    -0.090 A  
HETATM   20  C   UNL     1      -6.136   9.689  67.395  1.00  0.00    -0.059 A  
HETATM   21  C   UNL     1      -6.339   8.311  67.320  1.00  0.00    -0.057 A  
HETATM   22  C   UNL     1      -7.627   7.820  67.137  1.00  0.00    -0.100 A  
HETATM   23  C   UNL     1      -8.500  10.072  67.097  1.00  0.00    -0.125 A  
HETATM   24  C   UNL     1      -8.710   8.692  67.025  1.00  0.00    -0.135 A  
BRANCH  22  25
HETATM   25  S   UNL     1      -7.865   6.069  66.997  1.00  0.00    -0.102 S  
HETATM   26  O   UNL     1      -9.124   5.806  66.332  1.00  0.00    -0.138 OA 
HETATM   27  O   UNL     1      -6.634   5.505  66.482  1.00  0.00    -0.052 OA 
BRANCH  25  28
HETATM   28  N   UNL     1      -7.946   5.566  68.576  1.00  0.00    -0.088 N  
HETATM   29  H   UNL     1      -7.069   5.365  69.057  1.00  0.00     0.000 HD 
BRANCH  28  30
HETATM   30  C   UNL     1      -9.119   5.402  69.285  1.00  0.00    -0.108 C  
HETATM   31  O   UNL     1      -9.818   4.402  69.228  1.00  0.00    -0.194 OA 
BRANCH  30  32
HETATM   32  N   UNL     1      -9.411   6.488  70.051  1.00  0.00    -0.156 N  
HETATM   33  H   UNL     1      -8.746   6.789  70.763  1.00  0.00     0.000 HD 
BRANCH  32  34
HETATM   34  C   UNL     1     -10.654   7.233  69.876  1.00  0.00    -0.231 C  
HETATM   35  C   UNL     1     -11.814   6.568  70.627  1.00  0.00    -0.398 C  
HETATM   36  C   UNL     1     -11.619   6.633  72.141  1.00  0.00    -0.335 C  
HETATM   37  C   UNL     1     -11.378   8.059  72.629  1.00  0.00    -0.469 C  
HETATM   38  C   UNL     1     -10.282   8.785  71.850  1.00  0.00    -0.415 C  
HETATM   39  C   UNL     1     -10.485   8.682  70.339  1.00  0.00    -0.233 C  
ENDBRANCH  32  34
ENDBRANCH  30  32
ENDBRANCH  28  30
ENDBRANCH  25  28
ENDBRANCH  22  25
ENDBRANCH  18  19
ENDBRANCH  17  18
ENDBRANCH  14  17
ENDBRANCH   2   3
TORSDOF 9
ENDMDL
MODEL      145
REMARK 921   NORMALIZED FREE ENERGY PREDICTED BY IDOCK:   -4.74 KCAL/MOL
REMARK 922        TOTAL FREE ENERGY PREDICTED BY IDOCK:   -9.38 KCAL/MOL
REMARK 923 INTER-LIGAND FREE ENERGY PREDICTED BY IDOCK:   -6.42 KCAL/MOL
REMARK 924 INTRA-LIGAND FREE ENERGY PREDICTED BY IDOCK:   -2.96 KCAL/MOL
REMARK 927      BINDING AFFINITY PREDICTED BY RF-SCORE:    0.00 PKD
ROOT
HETATM    1  C   UNL     1      -8.849  13.146  68.324  1.00  0.00    -0.175 C  
HETATM    2  O   UNL     1      -9.277  11.880  67.828  1.00  0.00    -0.172 OA 
ENDROOT
BRANCH   2   3
HETATM    3  C   UNL     1     -10.016  11.130  68.700  1.00  0.00    -0.205 A  
HETATM    4  C   UNL     1      -9.505  10.134  69.523  1.00  0.00    -0.235 A  
HETATM    5  C   UNL     1     -10.351   9.458  70.413  1.00  0.00    -0.318 A  
HETATM    6  C   UNL     1     -11.728   9.728  70.459  1.00  0.00    -0.343 A  
HETATM    7  C   UNL     1     -12.221  10.764  69.651  1.00  0.00    -0.325 A  
HETATM    8  C   UNL     1     -12.629   8.951  71.412  1.00  0.00    -0.351 C  
HETATM    9  C   UNL     1     -11.899   7.737  72.008  1.00  0.00    -0.307 C  
HETATM   10  C   UNL     1     -12.987   9.839  72.624  1.00  0.00     0.029 C  
HETATM   11  C   UNL     1     -13.924   8.475  70.730  1.00  0.00     0.400 C  
HETATM   12  C   UNL     1     -11.367  11.465  68.793  1.00  0.00    -0.334 A  
HETATM   13  O   UNL     1     -12.456   6.680  72.295  1.00  0.00    -0.207 OA 
HETATM   14  N   UNL     1     -10.586   8.011  72.343  1.00  0.00    -0.281 N  
HETATM   15  O   UNL     1      -8.513   8.380  71.417  1.00  0.00    -0.127 OA 
HETATM   16  C   UNL     1      -9.726   8.563  71.419  1.00  0.00    -0.220 C  
BRANCH  14  17
HETATM   17  C   UNL     1     -10.064   7.486  73.585  1.00  0.00    -0.288 C  
BRANCH  17  18
HETATM   18  C   UNL     1     -10.269   5.995  73.851  1.00  0.00    -0.270 C  
BRANCH  18  19
HETATM   19  C   UNL     1      -9.540   5.143  72.825  1.00  0.00    -0.165 A  
HETATM   20  C   UNL     1      -8.153   5.247  72.623  1.00  0.00    -0.110 A  
HETATM   21  C   UNL     1      -7.511   4.500  71.636  1.00  0.00    -0.073 A  
HETATM   22  C   UNL     1      -8.251   3.613  70.862  1.00  0.00    -0.066 A  
HETATM   23  C   UNL     1     -10.263   4.223  72.053  1.00  0.00    -0.220 A  
HETATM   24  C   UNL     1      -9.624   3.469  71.065  1.00  0.00    -0.243 A  
BRANCH  22  25
HETATM   25  S   UNL     1      -7.433   2.705  69.578  1.00  0.00    -0.043 S  
HETATM   26  O   UNL     1      -6.395   1.880  70.158  1.00  0.00    -0.023 OA 
HETATM   27  O   UNL     1      -8.460   2.112  68.746  1.00  0.00    -0.055 OA 
BRANCH  25  28
HETATM   28  N   UNL     1      -6.751   3.895  68.643  1.00  0.00    -0.045 N  
HETATM   29  H   UNL     1      -5.918   4.363  69.001  1.00  0.00     0.000 HD 
BRANCH  28  30
HETATM   30  C   UNL     1      -7.234   4.295  67.413  1.00  0.00    -0.068 C  
HETATM   31  O   UNL     1      -6.643   4.126  66.359  1.00  0.00    -0.040 OA 
BRANCH  30  32
HETATM   32  N   UNL     1      -8.446   4.907  67.513  1.00  0.00    -0.105 N  
HETATM   33  H   UNL     1      -9.224   4.568  66.948  1.00  0.00     0.000 HD 
BRANCH  32  34
HETATM   34  C   UNL     1      -8.657   6.037  68.412  1.00  0.00    -0.111 C  
HETATM   35  C   UNL     1      -8.238   7.359  67.756  1.00  0.00    -0.119 C  
HETATM   36  C   UNL     1      -9.144   7.718  66.580  1.00  0.00    -0.208 C  
HETATM   37  C   UNL     1     -10.619   7.730  66.973  1.00  0.00    -0.396 C  
HETATM   38  C   UNL     1     -11.057   6.461  67.703  1.00  0.00    -0.388 C  
HETATM   39  C   UNL     1     -10.120   6.107  68.857  1.00  0.00    -0.211 C  
ENDBRANCH  32  34
ENDBRANCH  30  32
ENDBRANCH  28  30
ENDBRANCH  25  28
ENDBRANCH  22  25
ENDBRANCH  18  19
ENDBRANCH  17  18
ENDBRANCH  14  17
ENDBRANCH   2   3
TORSDOF 9
ENDMDL
MODEL      146
REMARK 921   NORMALIZED FREE ENERGY PREDICTED BY IDOCK:   -4.73 KCAL/MOL
REMARK 922        TOTAL FREE ENERGY PREDICTED BY IDOCK:   -9.37 KCAL/MOL
REMARK 923 INTER-LIGAND FREE ENERGY PREDICTED BY IDOCK:   -8.68 KCAL/MOL
REMARK 924 INTRA-LIGAND FREE ENERGY PREDICTED BY IDOCK:   -0.69 KCAL/MOL
REMARK 927      BINDING AFFINITY PREDICTED BY RF-SCORE:    0.00 PKD
ROOT
HETATM    1  C   UNL     1     -10.853   3.839  74.313  1.00  0.00    -0.089 C  
HETATM    2  O   UNL     1     -11.062   5.006  73.522  1.00  0.00    -0.304 OA 
ENDROOT
BRANCH   2   3
HETATM    3  C   UNL     1     -10.584   4.940  72.243  1.00  0.00    -0.185 A  
HETATM    4  C   UNL     1     -10.703   5.950  71.296  1.00  0.00    -0.325 A  
HETATM    5  C   UNL     1     -10.133   5.791  70.026  1.00  0.00    -0.279 A  
HETATM    6  C   UNL     1      -9.482   4.600  69.662  1.00  0.00    -0.232 A  
HETATM    7  C   UNL     1      -9.336   3.606  70.642  1.00  0.00    -0.228 A  
HETATM    8  C   UNL     1      -8.904   4.442  68.260  1.00  0.00    -0.128 C  
HETATM    9  C   UNL     1      -9.390   5.560  67.325  1.00  0.00    -0.114 C  
HETATM   10  C   UNL     1      -7.368   4.601  68.314  1.00  0.00    -0.065 C  
HETATM   11  C   UNL     1      -9.252   3.078  67.639  1.00  0.00    -0.240 C  
HETATM   12  C   UNL     1      -9.870   3.785  71.922  1.00  0.00    -0.248 A  
HETATM   13  O   UNL     1      -9.587   5.404  66.121  1.00  0.00    -0.156 OA 
HETATM   14  N   UNL     1      -9.423   6.798  67.939  1.00  0.00    -0.119 N  
HETATM   15  O   UNL     1     -10.606   8.031  69.478  1.00  0.00    -0.227 OA 
HETATM   16  C   UNL     1     -10.094   6.973  69.129  1.00  0.00    -0.180 C  
BRANCH  14  17
HETATM   17  C   UNL     1      -8.963   7.951  67.199  1.00  0.00    -0.129 C  
BRANCH  17  18
HETATM   18  C   UNL     1      -9.672   8.260  65.880  1.00  0.00     0.019 C  
BRANCH  18  19
HETATM   19  C   UNL     1     -10.069   9.725  65.794  1.00  0.00    -0.308 A  
HETATM   20  C   UNL     1     -10.958  10.310  66.712  1.00  0.00    -0.082 A  
HETATM   21  C   UNL     1     -11.358  11.639  66.580  1.00  0.00    -0.338 A  
HETATM   22  C   UNL     1     -10.841  12.408  65.543  1.00  0.00    -0.281 A  
HETATM   23  C   UNL     1      -9.539  10.525  64.772  1.00  0.00    -0.342 A  
HETATM   24  C   UNL     1      -9.933  11.859  64.637  1.00  0.00    -0.257 A  
BRANCH  22  25
HETATM   25  S   UNL     1     -11.393  14.082  65.358  1.00  0.00    -0.327 S  
HETATM   26  O   UNL     1     -10.262  14.931  65.048  1.00  0.00    -0.380 OA 
HETATM   27  O   UNL     1     -12.553  14.061  64.490  1.00  0.00    -0.635 OA 
BRANCH  25  28
HETATM   28  N   UNL     1     -11.984  14.458  66.863  1.00  0.00    -0.419 N  
HETATM   29  H   UNL     1     -12.996  14.537  66.971  1.00  0.00     0.000 HD 
BRANCH  28  30
HETATM   30  C   UNL     1     -11.200  14.672  67.979  1.00  0.00    -0.293 C  
HETATM   31  O   UNL     1     -11.437  14.204  69.081  1.00  0.00    -0.260 OA 
BRANCH  30  32
HETATM   32  N   UNL     1     -10.133  15.473  67.709  1.00  0.00    -0.230 N  
HETATM   33  H   UNL     1      -9.971  15.782  66.751  1.00  0.00     0.000 HD 
BRANCH  32  34
HETATM   34  C   UNL     1      -9.215  15.899  68.760  1.00  0.00    -0.218 C  
HETATM   35  C   UNL     1      -8.020  14.945  68.880  1.00  0.00    -0.163 C  
HETATM   36  C   UNL     1      -7.127  14.997  67.641  1.00  0.00    -0.206 C  
HETATM   37  C   UNL     1      -6.678  16.420  67.316  1.00  0.00    -0.221 C  
HETATM   38  C   UNL     1      -7.833  17.419  67.267  1.00  0.00    -0.218 C  
HETATM   39  C   UNL     1      -8.727  17.328  68.504  1.00  0.00    -0.273 C  
ENDBRANCH  32  34
ENDBRANCH  30  32
ENDBRANCH  28  30
ENDBRANCH  25  28
ENDBRANCH  22  25
ENDBRANCH  18  19
ENDBRANCH  17  18
ENDBRANCH  14  17
ENDBRANCH   2   3
TORSDOF 9
ENDMDL
MODEL      147
REMARK 921   NORMALIZED FREE ENERGY PREDICTED BY IDOCK:   -4.73 KCAL/MOL
REMARK 922        TOTAL FREE ENERGY PREDICTED BY IDOCK:   -9.37 KCAL/MOL
REMARK 923 INTER-LIGAND FREE ENERGY PREDICTED BY IDOCK:   -7.34 KCAL/MOL
REMARK 924 INTRA-LIGAND FREE ENERGY PREDICTED BY IDOCK:   -2.03 KCAL/MOL
REMARK 927      BINDING AFFINITY PREDICTED BY RF-SCORE:    0.00 PKD
ROOT
HETATM    1  C   UNL     1     -11.158  16.236  69.673  1.00  0.00    -0.333 C  
HETATM    2  O   UNL     1     -11.729  15.906  68.409  1.00  0.00    -0.358 OA 
ENDROOT
BRANCH   2   3
HETATM    3  C   UNL     1     -11.228  14.781  67.817  1.00  0.00    -0.313 A  
HETATM    4  C   UNL     1      -9.958  14.263  68.042  1.00  0.00    -0.220 A  
HETATM    5  C   UNL     1      -9.565  13.074  67.412  1.00  0.00    -0.211 A  
HETATM    6  C   UNL     1     -10.411  12.413  66.507  1.00  0.00    -0.254 A  
HETATM    7  C   UNL     1     -11.704  12.927  66.322  1.00  0.00    -0.457 A  
HETATM    8  C   UNL     1      -9.941  11.142  65.809  1.00  0.00    -0.292 C  
HETATM    9  C   UNL     1      -8.433  10.921  66.003  1.00  0.00    -0.167 C  
HETATM   10  C   UNL     1     -10.615   9.915  66.464  1.00  0.00    -0.156 C  
HETATM   11  C   UNL     1     -10.260  11.153  64.304  1.00  0.00    -0.399 C  
HETATM   12  C   UNL     1     -12.108  14.091  66.984  1.00  0.00    -0.455 A  
HETATM   13  O   UNL     1      -7.708  10.394  65.162  1.00  0.00    -0.145 OA 
HETATM   14  N   UNL     1      -8.006  11.223  67.282  1.00  0.00    -0.134 N  
HETATM   15  O   UNL     1      -7.587  12.995  68.688  1.00  0.00    -0.129 OA 
HETATM   16  C   UNL     1      -8.292  12.446  67.848  1.00  0.00    -0.165 C  
BRANCH  14  17
HETATM   17  C   UNL     1      -7.051  10.345  67.919  1.00  0.00    -0.083 C  
BRANCH  17  18
HETATM   18  C   UNL     1      -7.582   9.408  69.004  1.00  0.00    -0.074 C  
BRANCH  18  19
HETATM   19  C   UNL     1      -8.057   8.090  68.415  1.00  0.00    -0.122 A  
HETATM   20  C   UNL     1      -7.235   7.306  67.586  1.00  0.00    -0.091 A  
HETATM   21  C   UNL     1      -7.710   6.131  67.006  1.00  0.00    -0.100 A  
HETATM   22  C   UNL     1      -9.006   5.709  67.280  1.00  0.00    -0.111 A  
HETATM   23  C   UNL     1      -9.352   7.633  68.700  1.00  0.00    -0.147 A  
HETATM   24  C   UNL     1      -9.831   6.453  68.124  1.00  0.00    -0.127 A  
BRANCH  22  25
HETATM   25  S   UNL     1      -9.614   4.238  66.498  1.00  0.00    -0.212 S  
HETATM   26  O   UNL     1     -10.855   4.534  65.815  1.00  0.00    -0.247 OA 
HETATM   27  O   UNL     1      -8.506   3.642  65.780  1.00  0.00    -0.107 OA 
BRANCH  25  28
HETATM   28  N   UNL     1      -9.902   3.218  67.776  1.00  0.00    -0.170 N  
HETATM   29  H   UNL     1     -10.801   2.737  67.807  1.00  0.00     0.000 HD 
BRANCH  28  30
HETATM   30  C   UNL     1      -9.007   2.976  68.799  1.00  0.00    -0.135 C  
HETATM   31  O   UNL     1      -7.842   2.654  68.627  1.00  0.00    -0.053 OA 
BRANCH  30  32
HETATM   32  N   UNL     1      -9.577   3.131  70.025  1.00  0.00    -0.140 N  
HETATM   33  H   UNL     1     -10.554   2.869  70.157  1.00  0.00     0.000 HD 
BRANCH  32  34
HETATM   34  C   UNL     1      -8.823   3.663  71.155  1.00  0.00    -0.082 C  
HETATM   35  C   UNL     1      -9.143   5.144  71.395  1.00  0.00    -0.171 C  
HETATM   36  C   UNL     1     -10.585   5.342  71.857  1.00  0.00    -0.288 C  
HETATM   37  C   UNL     1     -10.919   4.491  73.080  1.00  0.00    -0.346 C  
HETATM   38  C   UNL     1     -10.539   3.021  72.912  1.00  0.00    -0.209 C  
HETATM   39  C   UNL     1      -9.101   2.850  72.422  1.00  0.00    -0.136 C  
ENDBRANCH  32  34
ENDBRANCH  30  32
ENDBRANCH  28  30
ENDBRANCH  25  28
ENDBRANCH  22  25
ENDBRANCH  18  19
ENDBRANCH  17  18
ENDBRANCH  14  17
ENDBRANCH   2   3
TORSDOF 9
ENDMDL
MODEL      148
REMARK 921   NORMALIZED FREE ENERGY PREDICTED BY IDOCK:   -4.73 KCAL/MOL
REMARK 922        TOTAL FREE ENERGY PREDICTED BY IDOCK:   -9.37 KCAL/MOL
REMARK 923 INTER-LIGAND FREE ENERGY PREDICTED BY IDOCK:   -9.76 KCAL/MOL
REMARK 924 INTRA-LIGAND FREE ENERGY PREDICTED BY IDOCK:    0.40 KCAL/MOL
REMARK 927      BINDING AFFINITY PREDICTED BY RF-SCORE:    0.00 PKD
ROOT
HETATM    1  C   UNL     1     -10.236   3.713  64.393  1.00  0.00    -0.202 C  
HETATM    2  O   UNL     1      -9.222   4.616  64.826  1.00  0.00    -0.156 OA 
ENDROOT
BRANCH   2   3
HETATM    3  C   UNL     1      -9.237   4.917  66.159  1.00  0.00    -0.146 A  
HETATM    4  C   UNL     1      -9.082   6.193  66.688  1.00  0.00    -0.146 A  
HETATM    5  C   UNL     1      -9.160   6.391  68.073  1.00  0.00    -0.113 A  
HETATM    6  C   UNL     1      -9.340   5.314  68.956  1.00  0.00    -0.171 A  
HETATM    7  C   UNL     1      -9.534   4.039  68.404  1.00  0.00    -0.211 A  
HETATM    8  C   UNL     1      -9.384   5.557  70.460  1.00  0.00    -0.195 C  
HETATM    9  C   UNL     1      -8.924   6.980  70.811  1.00  0.00    -0.150 C  
HETATM   10  C   UNL     1     -10.845   5.473  70.954  1.00  0.00    -0.246 C  
HETATM   11  C   UNL     1      -8.526   4.543  71.238  1.00  0.00    -0.116 C  
HETATM   12  C   UNL     1      -9.498   3.850  67.018  1.00  0.00    -0.226 A  
HETATM   13  O   UNL     1      -8.323   7.266  71.845  1.00  0.00    -0.106 OA 
HETATM   14  N   UNL     1      -9.399   7.931  69.929  1.00  0.00    -0.157 N  
HETATM   15  O   UNL     1      -9.116   8.729  67.790  1.00  0.00    -0.135 OA 
HETATM   16  C   UNL     1      -9.208   7.789  68.572  1.00  0.00    -0.137 C  
BRANCH  14  17
HETATM   17  C   UNL     1      -9.875   9.190  70.457  1.00  0.00    -0.233 C  
BRANCH  17  18
HETATM   18  C   UNL     1     -11.390   9.378  70.548  1.00  0.00    -0.328 C  
BRANCH  18  19
HETATM   19  C   UNL     1     -11.757  10.841  70.740  1.00  0.00    -0.400 A  
HETATM   20  C   UNL     1     -12.757  11.245  71.641  1.00  0.00    -0.448 A  
HETATM   21  C   UNL     1     -13.122  12.585  71.757  1.00  0.00    -0.450 A  
HETATM   22  C   UNL     1     -12.460  13.542  70.996  1.00  0.00    -0.369 A  
HETATM   23  C   UNL     1     -11.083  11.824  70.001  1.00  0.00     0.154 A  
HETATM   24  C   UNL     1     -11.442  13.170  70.117  1.00  0.00    -0.020 A  
BRANCH  22  25
HETATM   25  S   UNL     1     -12.965  15.237  71.118  1.00  0.00    -0.484 S  
HETATM   26  O   UNL     1     -14.388  15.297  71.379  1.00  0.00    -0.510 OA 
HETATM   27  O   UNL     1     -12.030  15.903  72.001  1.00  0.00    -0.420 OA 
BRANCH  25  28
HETATM   28  N   UNL     1     -12.643  15.842  69.607  1.00  0.00    -0.493 N  
HETATM   29  H   UNL     1     -13.345  16.444  69.175  1.00  0.00     0.000 HD 
BRANCH  28  30
HETATM   30  C   UNL     1     -11.488  15.588  68.894  1.00  0.00    -0.354 C  
HETATM   31  O   UNL     1     -10.373  15.558  69.387  1.00  0.00    -0.223 OA 
BRANCH  30  32
HETATM   32  N   UNL     1     -11.738  15.380  67.572  1.00  0.00    -0.213 N  
HETATM   33  H   UNL     1     -12.460  15.932  67.108  1.00  0.00     0.000 HD 
BRANCH  32  34
HETATM   34  C   UNL     1     -10.998  14.386  66.803  1.00  0.00    -0.314 C  
HETATM   35  C   UNL     1     -11.927  13.295  66.256  1.00  0.00    -0.471 C  
HETATM   36  C   UNL     1     -12.892  13.849  65.209  1.00  0.00    -0.437 C  
HETATM   37  C   UNL     1     -12.163  14.580  64.084  1.00  0.00    -0.372 C  
HETATM   38  C   UNL     1     -11.166  15.620  64.591  1.00  0.00    -0.380 C  
HETATM   39  C   UNL     1     -10.230  15.051  65.657  1.00  0.00    -0.386 C  
ENDBRANCH  32  34
ENDBRANCH  30  32
ENDBRANCH  28  30
ENDBRANCH  25  28
ENDBRANCH  22  25
ENDBRANCH  18  19
ENDBRANCH  17  18
ENDBRANCH  14  17
ENDBRANCH   2   3
TORSDOF 9
ENDMDL
MODEL      149
REMARK 921   NORMALIZED FREE ENERGY PREDICTED BY IDOCK:   -4.73 KCAL/MOL
REMARK 922        TOTAL FREE ENERGY PREDICTED BY IDOCK:   -9.36 KCAL/MOL
REMARK 923 INTER-LIGAND FREE ENERGY PREDICTED BY IDOCK:   -7.30 KCAL/MOL
REMARK 924 INTRA-LIGAND FREE ENERGY PREDICTED BY IDOCK:   -2.07 KCAL/MOL
REMARK 927      BINDING AFFINITY PREDICTED BY RF-SCORE:    0.00 PKD
ROOT
HETATM    1  C   UNL     1      -6.349  12.534  69.036  1.00  0.00    -0.092 C  
HETATM    2  O   UNL     1      -5.659  11.365  69.469  1.00  0.00    -0.052 OA 
ENDROOT
BRANCH   2   3
HETATM    3  C   UNL     1      -6.406  10.479  70.195  1.00  0.00    -0.132 A  
HETATM    4  C   UNL     1      -7.767  10.261  70.023  1.00  0.00    -0.090 A  
HETATM    5  C   UNL     1      -8.424   9.293  70.795  1.00  0.00    -0.244 A  
HETATM    6  C   UNL     1      -7.745   8.566  71.787  1.00  0.00    -0.154 A  
HETATM    7  C   UNL     1      -6.363   8.770  71.920  1.00  0.00    -0.072 A  
HETATM    8  C   UNL     1      -8.495   7.546  72.636  1.00  0.00    -0.150 C  
HETATM    9  C   UNL     1     -10.015   7.675  72.455  1.00  0.00    -0.203 C  
HETATM   10  C   UNL     1      -8.152   6.119  72.152  1.00  0.00    -0.110 C  
HETATM   11  C   UNL     1      -8.153   7.670  74.131  1.00  0.00    -0.242 C  
HETATM   12  C   UNL     1      -5.702   9.707  71.119  1.00  0.00    -0.075 A  
HETATM   13  O   UNL     1     -10.830   7.451  73.348  1.00  0.00    -0.388 OA 
HETATM   14  N   UNL     1     -10.382   7.907  71.142  1.00  0.00    -0.199 N  
HETATM   15  O   UNL     1     -10.387   9.535  69.517  1.00  0.00    -0.195 OA 
HETATM   16  C   UNL     1      -9.819   8.942  70.428  1.00  0.00    -0.189 C  
BRANCH  14  17
HETATM   17  C   UNL     1     -11.534   7.213  70.612  1.00  0.00    -0.308 C  
BRANCH  17  18
HETATM   18  C   UNL     1     -11.266   6.031  69.680  1.00  0.00    -0.428 C  
BRANCH  18  19
HETATM   19  C   UNL     1     -10.305   6.411  68.565  1.00  0.00    -0.227 A  
HETATM   20  C   UNL     1     -10.725   7.134  67.435  1.00  0.00    -0.368 A  
HETATM   21  C   UNL     1      -9.842   7.419  66.394  1.00  0.00    -0.137 A  
HETATM   22  C   UNL     1      -8.516   7.011  66.492  1.00  0.00    -0.125 A  
HETATM   23  C   UNL     1      -8.958   6.032  68.656  1.00  0.00    -0.118 A  
HETATM   24  C   UNL     1      -8.068   6.319  67.618  1.00  0.00    -0.117 A  
BRANCH  22  25
HETATM   25  S   UNL     1      -7.415   7.338  65.141  1.00  0.00    -0.094 S  
HETATM   26  O   UNL     1      -6.214   6.546  65.297  1.00  0.00    -0.032 OA 
HETATM   27  O   UNL     1      -8.193   7.259  63.922  1.00  0.00    -0.060 OA 
BRANCH  25  28
HETATM   28  N   UNL     1      -7.056   8.949  65.323  1.00  0.00    -0.079 N  
HETATM   29  H   UNL     1      -6.517   9.227  66.143  1.00  0.00     0.000 HD 
BRANCH  28  30
HETATM   30  C   UNL     1      -7.437   9.938  64.438  1.00  0.00    -0.137 C  
HETATM   31  O   UNL     1      -7.180   9.925  63.246  1.00  0.00    -0.121 OA 
BRANCH  30  32
HETATM   32  N   UNL     1      -8.130  10.936  65.054  1.00  0.00    -0.368 N  
HETATM   33  H   UNL     1      -7.661  11.819  65.253  1.00  0.00     0.000 HD 
BRANCH  32  34
HETATM   34  C   UNL     1      -9.528  10.770  65.434  1.00  0.00    -0.214 C  
HETATM   35  C   UNL     1      -9.933  11.768  66.526  1.00  0.00    -0.229 C  
HETATM   36  C   UNL     1      -9.914  13.207  66.013  1.00  0.00    -0.283 C  
HETATM   37  C   UNL     1     -10.762  13.378  64.754  1.00  0.00    -0.403 C  
HETATM   38  C   UNL     1     -10.445  12.349  63.671  1.00  0.00    -0.460 C  
HETATM   39  C   UNL     1     -10.442  10.921  64.215  1.00  0.00    -0.405 C  
ENDBRANCH  32  34
ENDBRANCH  30  32
ENDBRANCH  28  30
ENDBRANCH  25  28
ENDBRANCH  22  25
ENDBRANCH  18  19
ENDBRANCH  17  18
ENDBRANCH  14  17
ENDBRANCH   2   3
TORSDOF 9
ENDMDL
MODEL      150
REMARK 921   NORMALIZED FREE ENERGY PREDICTED BY IDOCK:   -4.73 KCAL/MOL
REMARK 922        TOTAL FREE ENERGY PREDICTED BY IDOCK:   -9.36 KCAL/MOL
REMARK 923 INTER-LIGAND FREE ENERGY PREDICTED BY IDOCK:   -8.67 KCAL/MOL
REMARK 924 INTRA-LIGAND FREE ENERGY PREDICTED BY IDOCK:   -0.69 KCAL/MOL
REMARK 927      BINDING AFFINITY PREDICTED BY RF-SCORE:    0.00 PKD
ROOT
HETATM    1  C   UNL     1     -14.353   8.251  71.596  1.00  0.00    -0.467 C  
HETATM    2  O   UNL     1     -13.819   6.969  71.919  1.00  0.00    -0.297 OA 
ENDROOT
BRANCH   2   3
HETATM    3  C   UNL     1     -12.532   6.753  71.513  1.00  0.00    -0.341 A  
HETATM    4  C   UNL     1     -11.947   7.320  70.388  1.00  0.00    -0.124 A  
HETATM    5  C   UNL     1     -10.601   7.062  70.092  1.00  0.00    -0.249 A  
HETATM    6  C   UNL     1      -9.834   6.192  70.885  1.00  0.00    -0.215 A  
HETATM    7  C   UNL     1     -10.428   5.660  72.039  1.00  0.00    -0.270 A  
HETATM    8  C   UNL     1      -8.383   5.902  70.517  1.00  0.00    -0.123 C  
HETATM    9  C   UNL     1      -8.049   6.416  69.108  1.00  0.00    -0.111 C  
HETATM   10  C   UNL     1      -7.445   6.684  71.463  1.00  0.00    -0.088 C  
HETATM   11  C   UNL     1      -8.051   4.402  70.599  1.00  0.00    -0.067 C  
HETATM   12  C   UNL     1     -11.759   5.952  72.354  1.00  0.00    -0.307 A  
HETATM   13  O   UNL     1      -7.248   5.866  68.354  1.00  0.00    -0.078 OA 
HETATM   14  N   UNL     1      -8.612   7.649  68.838  1.00  0.00    -0.129 N  
HETATM   15  O   UNL     1     -10.622   8.664  68.367  1.00  0.00    -0.197 OA 
HETATM   16  C   UNL     1      -9.963   7.857  69.014  1.00  0.00    -0.187 C  
BRANCH  14  17
HETATM   17  C   UNL     1      -7.820   8.635  68.137  1.00  0.00    -0.103 C  
BRANCH  17  18
HETATM   18  C   UNL     1      -8.374   9.157  66.811  1.00  0.00    -0.123 C  
BRANCH  18  19
HETATM   19  C   UNL     1      -8.686  10.643  66.887  1.00  0.00    -0.133 A  
HETATM   20  C   UNL     1      -9.523  11.275  65.952  1.00  0.00    -0.247 A  
HETATM   21  C   UNL     1      -9.749  12.650  66.002  1.00  0.00    -0.232 A  
HETATM   22  C   UNL     1      -9.164  13.402  67.015  1.00  0.00    -0.242 A  
HETATM   23  C   UNL     1      -8.128  11.414  67.916  1.00  0.00    -0.126 A  
HETATM   24  C   UNL     1      -8.354  12.792  67.974  1.00  0.00    -0.173 A  
BRANCH  22  25
HETATM   25  S   UNL     1      -9.420  15.156  67.040  1.00  0.00    -0.235 S  
HETATM   26  O   UNL     1      -8.138  15.829  67.052  1.00  0.00    -0.192 OA 
HETATM   27  O   UNL     1     -10.400  15.464  66.019  1.00  0.00    -0.287 OA 
BRANCH  25  28
HETATM   28  N   UNL     1     -10.202  15.407  68.482  1.00  0.00    -0.215 N  
HETATM   29  H   UNL     1     -10.365  14.599  69.083  1.00  0.00     0.000 HD 
BRANCH  28  30
HETATM   30  C   UNL     1     -10.648  16.637  68.925  1.00  0.00    -0.337 C  
HETATM   31  O   UNL     1     -10.978  16.870  70.077  1.00  0.00    -0.189 OA 
BRANCH  30  32
HETATM   32  N   UNL     1     -10.684  17.559  67.925  1.00  0.00    -0.380 N  
HETATM   33  H   UNL     1     -10.751  17.243  66.958  1.00  0.00     0.000 HD 
BRANCH  32  34
HETATM   34  C   UNL     1     -10.629  18.990  68.205  1.00  0.00    -0.241 C  
HETATM   35  C   UNL     1      -9.346  19.364  68.957  1.00  0.00    -0.355 C  
HETATM   36  C   UNL     1      -8.104  19.164  68.091  1.00  0.00    -0.351 C  
HETATM   37  C   UNL     1      -8.208  19.902  66.759  1.00  0.00    -0.357 C  
HETATM   38  C   UNL     1      -9.511  19.619  66.014  1.00  0.00    -0.358 C  
HETATM   39  C   UNL     1     -10.737  19.798  66.909  1.00  0.00    -0.541 C  
ENDBRANCH  32  34
ENDBRANCH  30  32
ENDBRANCH  28  30
ENDBRANCH  25  28
ENDBRANCH  22  25
ENDBRANCH  18  19
ENDBRANCH  17  18
ENDBRANCH  14  17
ENDBRANCH   2   3
TORSDOF 9
ENDMDL
MODEL      151
REMARK 921   NORMALIZED FREE ENERGY PREDICTED BY IDOCK:   -4.72 KCAL/MOL
REMARK 922        TOTAL FREE ENERGY PREDICTED BY IDOCK:   -9.35 KCAL/MOL
REMARK 923 INTER-LIGAND FREE ENERGY PREDICTED BY IDOCK:   -8.67 KCAL/MOL
REMARK 924 INTRA-LIGAND FREE ENERGY PREDICTED BY IDOCK:   -0.68 KCAL/MOL
REMARK 927      BINDING AFFINITY PREDICTED BY RF-SCORE:    0.00 PKD
ROOT
HETATM    1  C   UNL     1     -12.877  15.455  73.705  1.00  0.00    -0.548 C  
HETATM    2  O   UNL     1     -13.150  14.404  72.782  1.00  0.00    -0.454 OA 
ENDROOT
BRANCH   2   3
HETATM    3  C   UNL     1     -12.437  14.448  71.617  1.00  0.00    -0.352 A  
HETATM    4  C   UNL     1     -12.351  13.409  70.698  1.00  0.00    -0.423 A  
HETATM    5  C   UNL     1     -11.625  13.582  69.511  1.00  0.00    -0.355 A  
HETATM    6  C   UNL     1     -10.929  14.773  69.249  1.00  0.00    -0.275 A  
HETATM    7  C   UNL     1     -11.058  15.825  70.168  1.00  0.00    -0.360 A  
HETATM    8  C   UNL     1     -10.117  14.918  67.966  1.00  0.00    -0.221 C  
HETATM    9  C   UNL     1      -9.951  13.567  67.253  1.00  0.00    -0.236 C  
HETATM   10  C   UNL     1     -10.887  15.809  66.966  1.00  0.00    -0.273 C  
HETATM   11  C   UNL     1      -8.727  15.526  68.223  1.00  0.00    -0.170 C  
HETATM   12  C   UNL     1     -11.818  15.665  71.331  1.00  0.00    -0.482 A  
HETATM   13  O   UNL     1      -8.956  13.257  66.602  1.00  0.00    -0.214 OA 
HETATM   14  N   UNL     1     -11.103  12.802  67.277  1.00  0.00    -0.265 N  
HETATM   15  O   UNL     1     -12.405  11.523  68.676  1.00  0.00    -0.445 OA 
HETATM   16  C   UNL     1     -11.742  12.533  68.467  1.00  0.00    -0.324 C  
BRANCH  14  17
HETATM   17  C   UNL     1     -11.484  12.085  66.081  1.00  0.00    -0.339 C  
BRANCH  17  18
HETATM   18  C   UNL     1     -10.354  11.550  65.201  1.00  0.00    -0.329 C  
BRANCH  18  19
HETATM   19  C   UNL     1     -10.015  10.110  65.548  1.00  0.00    -0.363 A  
HETATM   20  C   UNL     1     -10.748   9.383  66.503  1.00  0.00    -0.012 A  
HETATM   21  C   UNL     1     -10.383   8.083  66.853  1.00  0.00    -0.408 A  
HETATM   22  C   UNL     1      -9.298   7.484  66.221  1.00  0.00    -0.120 A  
HETATM   23  C   UNL     1      -8.942   9.478  64.904  1.00  0.00    -0.264 A  
HETATM   24  C   UNL     1      -8.575   8.175  65.248  1.00  0.00    -0.132 A  
BRANCH  22  25
HETATM   25  S   UNL     1      -8.816   5.850  66.708  1.00  0.00    -0.121 S  
HETATM   26  O   UNL     1      -9.759   5.339  67.681  1.00  0.00    -0.130 OA 
HETATM   27  O   UNL     1      -8.535   5.104  65.498  1.00  0.00    -0.126 OA 
BRANCH  25  28
HETATM   28  N   UNL     1      -7.338   6.085  67.425  1.00  0.00    -0.076 N  
HETATM   29  H   UNL     1      -6.504   5.906  66.866  1.00  0.00     0.000 HD 
BRANCH  28  30
HETATM   30  C   UNL     1      -7.160   6.507  68.728  1.00  0.00    -0.082 C  
HETATM   31  O   UNL     1      -6.573   7.530  69.041  1.00  0.00    -0.042 OA 
BRANCH  30  32
HETATM   32  N   UNL     1      -7.711   5.644  69.625  1.00  0.00    -0.082 N  
HETATM   33  H   UNL     1      -7.819   4.663  69.371  1.00  0.00     0.000 HD 
BRANCH  32  34
HETATM   34  C   UNL     1      -8.149   6.091  70.943  1.00  0.00    -0.121 C  
HETATM   35  C   UNL     1      -9.366   5.294  71.429  1.00  0.00    -0.184 C  
HETATM   36  C   UNL     1      -9.014   3.831  71.693  1.00  0.00    -0.155 C  
HETATM   37  C   UNL     1      -7.832   3.688  72.649  1.00  0.00    -0.072 C  
HETATM   38  C   UNL     1      -6.625   4.532  72.243  1.00  0.00    -0.037 C  
HETATM   39  C   UNL     1      -7.007   5.984  71.957  1.00  0.00    -0.078 C  
ENDBRANCH  32  34
ENDBRANCH  30  32
ENDBRANCH  28  30
ENDBRANCH  25  28
ENDBRANCH  22  25
ENDBRANCH  18  19
ENDBRANCH  17  18
ENDBRANCH  14  17
ENDBRANCH   2   3
TORSDOF 9
ENDMDL
MODEL      152
REMARK 921   NORMALIZED FREE ENERGY PREDICTED BY IDOCK:   -4.71 KCAL/MOL
REMARK 922        TOTAL FREE ENERGY PREDICTED BY IDOCK:   -9.34 KCAL/MOL
REMARK 923 INTER-LIGAND FREE ENERGY PREDICTED BY IDOCK:   -7.86 KCAL/MOL
REMARK 924 INTRA-LIGAND FREE ENERGY PREDICTED BY IDOCK:   -1.48 KCAL/MOL
REMARK 927      BINDING AFFINITY PREDICTED BY RF-SCORE:    0.00 PKD
ROOT
HETATM    1  C   UNL     1      -8.834  19.430  68.282  1.00  0.00    -0.337 C  
HETATM    2  O   UNL     1      -9.926  18.915  67.524  1.00  0.00    -0.318 OA 
ENDROOT
BRANCH   2   3
HETATM    3  C   UNL     1     -10.190  17.586  67.707  1.00  0.00    -0.349 A  
HETATM    4  C   UNL     1     -10.455  16.681  66.686  1.00  0.00    -0.258 A  
HETATM    5  C   UNL     1     -10.667  15.329  66.987  1.00  0.00    -0.313 A  
HETATM    6  C   UNL     1     -10.672  14.868  68.314  1.00  0.00    -0.249 A  
HETATM    7  C   UNL     1     -10.363  15.786  69.328  1.00  0.00    -0.245 A  
HETATM    8  C   UNL     1     -10.942  13.398  68.612  1.00  0.00    -0.288 C  
HETATM    9  C   UNL     1     -11.470  12.662  67.371  1.00  0.00    -0.337 C  
HETATM   10  C   UNL     1      -9.615  12.690  68.965  1.00  0.00     0.369 C  
HETATM   11  C   UNL     1     -11.940  13.213  69.769  1.00  0.00    -0.382 C  
HETATM   12  C   UNL     1     -10.110  17.128  69.022  1.00  0.00    -0.297 A  
HETATM   13  O   UNL     1     -12.273  11.733  67.419  1.00  0.00    -0.501 OA 
HETATM   14  N   UNL     1     -10.824  13.039  66.208  1.00  0.00    -0.277 N  
HETATM   15  O   UNL     1     -10.659  14.768  64.700  1.00  0.00    -0.374 OA 
HETATM   16  C   UNL     1     -10.728  14.367  65.857  1.00  0.00    -0.306 C  
BRANCH  14  17
HETATM   17  C   UNL     1     -10.472  12.017  65.248  1.00  0.00    -0.284 C  
BRANCH  17  18
HETATM   18  C   UNL     1      -9.126  11.319  65.438  1.00  0.00    -0.162 C  
BRANCH  18  19
HETATM   19  C   UNL     1      -9.240  10.145  66.397  1.00  0.00    -0.190 A  
HETATM   20  C   UNL     1     -10.227   9.155  66.246  1.00  0.00    -0.257 A  
HETATM   21  C   UNL     1     -10.354   8.119  67.171  1.00  0.00    -0.391 A  
HETATM   22  C   UNL     1      -9.467   8.045  68.240  1.00  0.00    -0.141 A  
HETATM   23  C   UNL     1      -8.339  10.037  67.466  1.00  0.00    -0.118 A  
HETATM   24  C   UNL     1      -8.460   8.998  68.393  1.00  0.00    -0.129 A  
BRANCH  22  25
HETATM   25  S   UNL     1      -9.669   6.751  69.435  1.00  0.00    -0.152 S  
HETATM   26  O   UNL     1      -8.736   6.951  70.524  1.00  0.00    -0.147 OA 
HETATM   27  O   UNL     1     -11.088   6.625  69.700  1.00  0.00    -0.287 OA 
BRANCH  25  28
HETATM   28  N   UNL     1      -9.263   5.383  68.588  1.00  0.00    -0.114 N  
HETATM   29  H   UNL     1      -9.994   4.690  68.425  1.00  0.00     0.000 HD 
BRANCH  28  30
HETATM   30  C   UNL     1      -8.003   5.118  68.089  1.00  0.00    -0.087 C  
HETATM   31  O   UNL     1      -6.971   5.551  68.575  1.00  0.00    -0.060 OA 
BRANCH  30  32
HETATM   32  N   UNL     1      -8.046   4.322  66.986  1.00  0.00    -0.100 N  
HETATM   33  H   UNL     1      -7.193   4.167  66.449  1.00  0.00     0.000 HD 
BRANCH  32  34
HETATM   34  C   UNL     1      -9.286   3.687  66.552  1.00  0.00    -0.171 C  
HETATM   35  C   UNL     1      -9.909   4.428  65.363  1.00  0.00    -0.220 C  
HETATM   36  C   UNL     1      -9.043   4.316  64.110  1.00  0.00    -0.150 C  
HETATM   37  C   UNL     1      -8.723   2.865  63.760  1.00  0.00    -0.089 C  
HETATM   38  C   UNL     1      -8.175   2.068  64.943  1.00  0.00    -0.080 C  
HETATM   39  C   UNL     1      -9.043   2.219  66.192  1.00  0.00    -0.066 C  
ENDBRANCH  32  34
ENDBRANCH  30  32
ENDBRANCH  28  30
ENDBRANCH  25  28
ENDBRANCH  22  25
ENDBRANCH  18  19
ENDBRANCH  17  18
ENDBRANCH  14  17
ENDBRANCH   2   3
TORSDOF 9
ENDMDL
MODEL      153
REMARK 921   NORMALIZED FREE ENERGY PREDICTED BY IDOCK:   -4.71 KCAL/MOL
REMARK 922        TOTAL FREE ENERGY PREDICTED BY IDOCK:   -9.33 KCAL/MOL
REMARK 923 INTER-LIGAND FREE ENERGY PREDICTED BY IDOCK:   -9.48 KCAL/MOL
REMARK 924 INTRA-LIGAND FREE ENERGY PREDICTED BY IDOCK:    0.15 KCAL/MOL
REMARK 927      BINDING AFFINITY PREDICTED BY RF-SCORE:    0.00 PKD
ROOT
HETATM    1  C   UNL     1     -10.201   3.063  63.747  1.00  0.00    -0.189 C  
HETATM    2  O   UNL     1      -9.193   4.016  64.073  1.00  0.00    -0.135 OA 
ENDROOT
BRANCH   2   3
HETATM    3  C   UNL     1      -9.263   4.533  65.336  1.00  0.00    -0.154 A  
HETATM    4  C   UNL     1      -9.064   5.870  65.660  1.00  0.00    -0.058 A  
HETATM    5  C   UNL     1      -9.206   6.297  66.987  1.00  0.00    -0.130 A  
HETATM    6  C   UNL     1      -9.495   5.390  68.019  1.00  0.00    -0.138 A  
HETATM    7  C   UNL     1      -9.732   4.052  67.670  1.00  0.00    -0.164 A  
HETATM    8  C   UNL     1      -9.607   5.879  69.459  1.00  0.00    -0.174 C  
HETATM    9  C   UNL     1      -9.086   7.317  69.604  1.00  0.00    -0.140 C  
HETATM   10  C   UNL     1     -11.095   5.947  69.867  1.00  0.00    -0.417 C  
HETATM   11  C   UNL     1      -8.852   4.968  70.443  1.00  0.00    -0.140 C  
HETATM   12  C   UNL     1      -9.631   3.635  66.338  1.00  0.00    -0.152 A  
HETATM   13  O   UNL     1      -8.527   7.741  70.613  1.00  0.00    -0.122 OA 
HETATM   14  N   UNL     1      -9.458   8.132  68.551  1.00  0.00    -0.142 N  
HETATM   15  O   UNL     1      -9.014   8.551  66.333  1.00  0.00    -0.145 OA 
HETATM   16  C   UNL     1      -9.202   7.759  67.250  1.00  0.00    -0.139 C  
BRANCH  14  17
HETATM   17  C   UNL     1      -9.889   9.481  68.837  1.00  0.00    -0.174 C  
BRANCH  17  18
HETATM   18  C   UNL     1     -11.320   9.662  69.344  1.00  0.00    -0.038 C  
BRANCH  18  19
HETATM   19  C   UNL     1     -11.590  11.103  69.745  1.00  0.00    -0.409 A  
HETATM   20  C   UNL     1     -12.354  11.429  70.879  1.00  0.00    -0.483 A  
HETATM   21  C   UNL     1     -12.642  12.756  71.196  1.00  0.00    -0.365 A  
HETATM   22  C   UNL     1     -12.134  13.774  70.397  1.00  0.00    -0.350 A  
HETATM   23  C   UNL     1     -11.064  12.145  68.968  1.00  0.00    -0.290 A  
HETATM   24  C   UNL     1     -11.346  13.477  69.284  1.00  0.00    -0.317 A  
BRANCH  22  25
HETATM   25  S   UNL     1     -12.545  15.455  70.783  1.00  0.00    -0.455 S  
HETATM   26  O   UNL     1     -13.847  15.498  71.416  1.00  0.00    -0.500 OA 
HETATM   27  O   UNL     1     -11.393  16.043  71.436  1.00  0.00    -0.385 OA 
BRANCH  25  28
HETATM   28  N   UNL     1     -12.618  16.183  69.293  1.00  0.00    -0.319 N  
HETATM   29  H   UNL     1     -13.443  16.743  69.077  1.00  0.00     0.000 HD 
BRANCH  28  30
HETATM   30  C   UNL     1     -11.637  16.082  68.326  1.00  0.00    -0.232 C  
HETATM   31  O   UNL     1     -11.692  15.321  67.374  1.00  0.00    -0.268 OA 
BRANCH  30  32
HETATM   32  N   UNL     1     -10.597  16.927  68.563  1.00  0.00    -0.348 N  
HETATM   33  H   UNL     1      -9.753  16.567  69.008  1.00  0.00     0.000 HD 
BRANCH  32  34
HETATM   34  C   UNL     1     -10.660  18.337  68.193  1.00  0.00    -0.282 C  
HETATM   35  C   UNL     1      -9.603  19.160  68.940  1.00  0.00    -0.447 C  
HETATM   36  C   UNL     1      -8.187  18.785  68.508  1.00  0.00    -0.379 C  
HETATM   37  C   UNL     1      -8.003  18.877  66.995  1.00  0.00    -0.262 C  
HETATM   38  C   UNL     1      -9.086  18.137  66.212  1.00  0.00    -0.199 C  
HETATM   39  C   UNL     1     -10.493  18.508  66.681  1.00  0.00    -0.436 C  
ENDBRANCH  32  34
ENDBRANCH  30  32
ENDBRANCH  28  30
ENDBRANCH  25  28
ENDBRANCH  22  25
ENDBRANCH  18  19
ENDBRANCH  17  18
ENDBRANCH  14  17
ENDBRANCH   2   3
TORSDOF 9
ENDMDL
MODEL      154
REMARK 921   NORMALIZED FREE ENERGY PREDICTED BY IDOCK:   -4.68 KCAL/MOL
REMARK 922        TOTAL FREE ENERGY PREDICTED BY IDOCK:   -9.30 KCAL/MOL
REMARK 923 INTER-LIGAND FREE ENERGY PREDICTED BY IDOCK:   -7.70 KCAL/MOL
REMARK 924 INTRA-LIGAND FREE ENERGY PREDICTED BY IDOCK:   -1.59 KCAL/MOL
REMARK 927      BINDING AFFINITY PREDICTED BY RF-SCORE:    0.00 PKD
ROOT
HETATM    1  C   UNL     1     -12.769  14.136  64.895  1.00  0.00    -0.260 C  
HETATM    2  O   UNL     1     -12.808  12.712  64.926  1.00  0.00    -0.763 OA 
ENDROOT
BRANCH   2   3
HETATM    3  C   UNL     1     -11.600  12.090  64.778  1.00  0.00    -0.281 A  
HETATM    4  C   UNL     1     -10.652  11.945  65.784  1.00  0.00    -0.309 A  
HETATM    5  C   UNL     1      -9.463  11.247  65.532  1.00  0.00    -0.255 A  
HETATM    6  C   UNL     1      -9.177  10.730  64.258  1.00  0.00    -0.246 A  
HETATM    7  C   UNL     1     -10.161  10.850  63.265  1.00  0.00    -0.317 A  
HETATM    8  C   UNL     1      -7.859  10.007  64.004  1.00  0.00    -0.150 C  
HETATM    9  C   UNL     1      -6.876  10.209  65.167  1.00  0.00    -0.134 C  
HETATM   10  C   UNL     1      -8.108   8.484  63.947  1.00  0.00    -0.155 C  
HETATM   11  C   UNL     1      -7.190  10.461  62.695  1.00  0.00    -0.140 C  
HETATM   12  C   UNL     1     -11.365  11.510  63.532  1.00  0.00    -0.375 A  
HETATM   13  O   UNL     1      -5.657  10.272  65.027  1.00  0.00    -0.098 OA 
HETATM   14  N   UNL     1      -7.489  10.146  66.405  1.00  0.00    -0.104 N  
HETATM   15  O   UNL     1      -8.873  11.329  67.810  1.00  0.00    -0.135 OA 
HETATM   16  C   UNL     1      -8.586  10.930  66.687  1.00  0.00    -0.148 C  
BRANCH  14  17
HETATM   17  C   UNL     1      -6.820   9.438  67.474  1.00  0.00    -0.076 C  
BRANCH  17  18
HETATM   18  C   UNL     1      -5.453   9.966  67.909  1.00  0.00    -0.039 C  
BRANCH  18  19
HETATM   19  C   UNL     1      -5.544  11.400  68.404  1.00  0.00    -0.045 A  
HETATM   20  C   UNL     1      -6.030  11.715  69.685  1.00  0.00    -0.106 A  
HETATM   21  C   UNL     1      -6.163  13.040  70.099  1.00  0.00    -0.033 A  
HETATM   22  C   UNL     1      -5.775  14.065  69.243  1.00  0.00    -0.084 A  
HETATM   23  C   UNL     1      -5.133  12.447  67.567  1.00  0.00    -0.096 A  
HETATM   24  C   UNL     1      -5.260  13.776  67.979  1.00  0.00    -0.105 A  
BRANCH  22  25
HETATM   25  S   UNL     1      -5.993  15.746  69.762  1.00  0.00    -0.165 S  
HETATM   26  O   UNL     1      -5.332  15.946  71.034  1.00  0.00    -0.136 OA 
HETATM   27  O   UNL     1      -5.676  16.592  68.630  1.00  0.00    -0.119 OA 
BRANCH  25  28
HETATM   28  N   UNL     1      -7.637  15.876  69.954  1.00  0.00     0.128 N  
HETATM   29  H   UNL     1      -7.999  15.974  70.903  1.00  0.00     0.000 HD 
BRANCH  28  30
HETATM   30  C   UNL     1      -8.548  15.861  68.916  1.00  0.00    -0.221 C  
HETATM   31  O   UNL     1      -9.029  14.843  68.444  1.00  0.00    -0.170 OA 
BRANCH  30  32
HETATM   32  N   UNL     1      -8.844  17.114  68.476  1.00  0.00    -0.259 N  
HETATM   33  H   UNL     1      -8.775  17.899  69.124  1.00  0.00     0.000 HD 
BRANCH  32  34
HETATM   34  C   UNL     1      -9.256  17.361  67.099  1.00  0.00    -0.237 C  
HETATM   35  C   UNL     1     -10.641  18.017  67.038  1.00  0.00    -0.320 C  
HETATM   36  C   UNL     1     -10.623  19.429  67.619  1.00  0.00    -0.575 C  
HETATM   37  C   UNL     1      -9.558  20.307  66.966  1.00  0.00    -0.572 C  
HETATM   38  C   UNL     1      -8.178  19.653  66.934  1.00  0.00    -0.323 C  
HETATM   39  C   UNL     1      -8.226  18.232  66.374  1.00  0.00    -0.276 C  
ENDBRANCH  32  34
ENDBRANCH  30  32
ENDBRANCH  28  30
ENDBRANCH  25  28
ENDBRANCH  22  25
ENDBRANCH  18  19
ENDBRANCH  17  18
ENDBRANCH  14  17
ENDBRANCH   2   3
TORSDOF 9
ENDMDL
MODEL      155
REMARK 921   NORMALIZED FREE ENERGY PREDICTED BY IDOCK:   -4.68 KCAL/MOL
REMARK 922        TOTAL FREE ENERGY PREDICTED BY IDOCK:   -9.30 KCAL/MOL
REMARK 923 INTER-LIGAND FREE ENERGY PREDICTED BY IDOCK:   -7.24 KCAL/MOL
REMARK 924 INTRA-LIGAND FREE ENERGY PREDICTED BY IDOCK:   -2.05 KCAL/MOL
REMARK 927      BINDING AFFINITY PREDICTED BY RF-SCORE:    0.00 PKD
ROOT
HETATM    1  C   UNL     1      -7.935  17.976  67.378  1.00  0.00    -0.221 C  
HETATM    2  O   UNL     1      -7.269  16.731  67.182  1.00  0.00    -0.151 OA 
ENDROOT
BRANCH   2   3
HETATM    3  C   UNL     1      -8.066  15.698  66.775  1.00  0.00    -0.244 A  
HETATM    4  C   UNL     1      -7.906  14.372  67.158  1.00  0.00    -0.111 A  
HETATM    5  C   UNL     1      -8.813  13.400  66.715  1.00  0.00    -0.145 A  
HETATM    6  C   UNL     1      -9.862  13.726  65.840  1.00  0.00    -0.279 A  
HETATM    7  C   UNL     1     -10.034  15.075  65.495  1.00  0.00    -0.390 A  
HETATM    8  C   UNL     1     -10.811  12.640  65.345  1.00  0.00    -0.318 C  
HETATM    9  C   UNL     1     -10.279  11.238  65.677  1.00  0.00    -0.253 C  
HETATM   10  C   UNL     1     -12.156  12.749  66.097  1.00  0.00    -0.429 C  
HETATM   11  C   UNL     1     -11.066  12.737  63.831  1.00  0.00    -0.477 C  
HETATM   12  C   UNL     1      -9.151  16.050  65.973  1.00  0.00    -0.361 A  
HETATM   13  O   UNL     1     -10.465  10.252  64.967  1.00  0.00    -0.221 OA 
HETATM   14  N   UNL     1      -9.715  11.161  66.937  1.00  0.00    -0.189 N  
HETATM   15  O   UNL     1      -7.853  11.785  68.135  1.00  0.00    -0.119 OA 
HETATM   16  C   UNL     1      -8.732  12.047  67.321  1.00  0.00    -0.175 C  
BRANCH  14  17
HETATM   17  C   UNL     1      -9.988   9.997  67.749  1.00  0.00    -0.170 C  
BRANCH  17  18
HETATM   18  C   UNL     1     -10.614  10.239  69.123  1.00  0.00    -0.254 C  
BRANCH  18  19
HETATM   19  C   UNL     1     -10.438   9.034  70.033  1.00  0.00    -0.233 A  
HETATM   20  C   UNL     1     -10.788   7.735  69.623  1.00  0.00    -0.185 A  
HETATM   21  C   UNL     1     -10.677   6.651  70.493  1.00  0.00    -0.293 A  
HETATM   22  C   UNL     1     -10.179   6.853  71.775  1.00  0.00    -0.189 A  
HETATM   23  C   UNL     1      -9.913   9.211  71.320  1.00  0.00    -0.373 A  
HETATM   24  C   UNL     1      -9.795   8.128  72.195  1.00  0.00    -0.313 A  
BRANCH  22  25
HETATM   25  S   UNL     1     -10.087   5.476  72.887  1.00  0.00    -0.183 S  
HETATM   26  O   UNL     1     -11.143   5.580  73.871  1.00  0.00    -0.147 OA 
HETATM   27  O   UNL     1      -9.951   4.279  72.082  1.00  0.00    -0.166 OA 
BRANCH  25  28
HETATM   28  N   UNL     1      -8.611   5.675  73.621  1.00  0.00    -0.120 N  
HETATM   29  H   UNL     1      -8.598   6.044  74.572  1.00  0.00     0.000 HD 
BRANCH  28  30
HETATM   30  C   UNL     1      -7.399   5.374  73.032  1.00  0.00    -0.092 C  
HETATM   31  O   UNL     1      -6.394   5.068  73.653  1.00  0.00    -0.055 OA 
BRANCH  30  32
HETATM   32  N   UNL     1      -7.453   5.464  71.675  1.00  0.00    -0.089 N  
HETATM   33  H   UNL     1      -8.359   5.422  71.208  1.00  0.00     0.000 HD 
BRANCH  32  34
HETATM   34  C   UNL     1      -6.245   5.620  70.872  1.00  0.00    -0.031 C  
HETATM   35  C   UNL     1      -6.362   4.878  69.535  1.00  0.00    -0.031 C  
HETATM   36  C   UNL     1      -7.423   5.505  68.632  1.00  0.00    -0.076 C  
HETATM   37  C   UNL     1      -7.192   7.000  68.426  1.00  0.00    -0.088 C  
HETATM   38  C   UNL     1      -6.989   7.763  69.734  1.00  0.00    -0.047 C  
HETATM   39  C   UNL     1      -5.944   7.101  70.631  1.00  0.00    -0.027 C  
ENDBRANCH  32  34
ENDBRANCH  30  32
ENDBRANCH  28  30
ENDBRANCH  25  28
ENDBRANCH  22  25
ENDBRANCH  18  19
ENDBRANCH  17  18
ENDBRANCH  14  17
ENDBRANCH   2   3
TORSDOF 9
ENDMDL
MODEL      156
REMARK 921   NORMALIZED FREE ENERGY PREDICTED BY IDOCK:   -4.68 KCAL/MOL
REMARK 922        TOTAL FREE ENERGY PREDICTED BY IDOCK:   -9.28 KCAL/MOL
REMARK 923 INTER-LIGAND FREE ENERGY PREDICTED BY IDOCK:   -7.74 KCAL/MOL
REMARK 924 INTRA-LIGAND FREE ENERGY PREDICTED BY IDOCK:   -1.54 KCAL/MOL
REMARK 927      BINDING AFFINITY PREDICTED BY RF-SCORE:    0.00 PKD
ROOT
HETATM    1  C   UNL     1      -5.585   8.482  67.109  1.00  0.00    -0.038 C  
HETATM    2  O   UNL     1      -5.308   7.299  67.853  1.00  0.00    -0.022 OA 
ENDROOT
BRANCH   2   3
HETATM    3  C   UNL     1      -6.335   6.845  68.634  1.00  0.00    -0.032 A  
HETATM    4  C   UNL     1      -6.765   7.447  69.810  1.00  0.00    -0.044 A  
HETATM    5  C   UNL     1      -7.860   6.920  70.508  1.00  0.00    -0.105 A  
HETATM    6  C   UNL     1      -8.509   5.753  70.073  1.00  0.00    -0.124 A  
HETATM    7  C   UNL     1      -8.088   5.180  68.863  1.00  0.00    -0.085 A  
HETATM    8  C   UNL     1      -9.674   5.182  70.873  1.00  0.00    -0.252 C  
HETATM    9  C   UNL     1      -9.786   5.849  72.253  1.00  0.00    -0.160 C  
HETATM   10  C   UNL     1     -11.002   5.511  70.157  1.00  0.00    -0.208 C  
HETATM   11  C   UNL     1      -9.561   3.658  71.058  1.00  0.00    -0.246 C  
HETATM   12  C   UNL     1      -7.021   5.733  68.147  1.00  0.00    -0.069 A  
HETATM   13  O   UNL     1     -10.179   5.267  73.261  1.00  0.00    -0.171 OA 
HETATM   14  N   UNL     1      -9.560   7.212  72.210  1.00  0.00    -0.142 N  
HETATM   15  O   UNL     1      -7.885   8.769  71.965  1.00  0.00    -0.302 OA 
HETATM   16  C   UNL     1      -8.417   7.716  71.630  1.00  0.00    -0.108 C  
BRANCH  14  17
HETATM   17  C   UNL     1     -10.408   8.080  72.995  1.00  0.00    -0.280 C  
BRANCH  17  18
HETATM   18  C   UNL     1     -11.801   8.379  72.441  1.00  0.00    -0.452 C  
BRANCH  18  19
HETATM   19  C   UNL     1     -11.762   9.501  71.416  1.00  0.00    -0.465 A  
HETATM   20  C   UNL     1     -11.110   9.355  70.179  1.00  0.00    -0.277 A  
HETATM   21  C   UNL     1     -11.033  10.416  69.277  1.00  0.00    -0.287 A  
HETATM   22  C   UNL     1     -11.639  11.627  69.593  1.00  0.00    -0.330 A  
HETATM   23  C   UNL     1     -12.390  10.721  71.703  1.00  0.00    -0.292 A  
HETATM   24  C   UNL     1     -12.319  11.786  70.802  1.00  0.00    -0.433 A  
BRANCH  22  25
HETATM   25  S   UNL     1     -11.493  12.982  68.460  1.00  0.00    -0.328 S  
HETATM   26  O   UNL     1     -11.540  12.482  67.103  1.00  0.00    -0.328 OA 
HETATM   27  O   UNL     1     -12.416  14.011  68.895  1.00  0.00    -0.197 OA 
BRANCH  25  28
HETATM   28  N   UNL     1      -9.982  13.590  68.785  1.00  0.00    -0.406 N  
HETATM   29  H   UNL     1      -9.775  13.861  69.746  1.00  0.00     0.000 HD 
BRANCH  28  30
HETATM   30  C   UNL     1      -8.987  13.752  67.842  1.00  0.00    -0.193 C  
HETATM   31  O   UNL     1      -8.573  12.856  67.124  1.00  0.00    -0.195 OA 
BRANCH  30  32
HETATM   32  N   UNL     1      -8.514  15.028  67.810  1.00  0.00    -0.149 N  
HETATM   33  H   UNL     1      -8.255  15.442  66.915  1.00  0.00     0.000 HD 
BRANCH  32  34
HETATM   34  C   UNL     1      -8.371  15.818  69.029  1.00  0.00    -0.236 C  
HETATM   35  C   UNL     1      -7.207  15.313  69.890  1.00  0.00    -0.080 C  
HETATM   36  C   UNL     1      -5.859  15.540  69.207  1.00  0.00    -0.106 C  
HETATM   37  C   UNL     1      -5.661  16.997  68.795  1.00  0.00    -0.144 C  
HETATM   38  C   UNL     1      -6.839  17.563  68.004  1.00  0.00    -0.190 C  
HETATM   39  C   UNL     1      -8.178  17.299  68.693  1.00  0.00    -0.262 C  
ENDBRANCH  32  34
ENDBRANCH  30  32
ENDBRANCH  28  30
ENDBRANCH  25  28
ENDBRANCH  22  25
ENDBRANCH  18  19
ENDBRANCH  17  18
ENDBRANCH  14  17
ENDBRANCH   2   3
TORSDOF 9
ENDMDL
MODEL      157
REMARK 921   NORMALIZED FREE ENERGY PREDICTED BY IDOCK:   -4.67 KCAL/MOL
REMARK 922        TOTAL FREE ENERGY PREDICTED BY IDOCK:   -9.28 KCAL/MOL
REMARK 923 INTER-LIGAND FREE ENERGY PREDICTED BY IDOCK:   -8.20 KCAL/MOL
REMARK 924 INTRA-LIGAND FREE ENERGY PREDICTED BY IDOCK:   -1.08 KCAL/MOL
REMARK 927      BINDING AFFINITY PREDICTED BY RF-SCORE:    0.00 PKD
ROOT
HETATM    1  C   UNL     1     -12.734  14.304  65.485  1.00  0.00    -0.380 C  
HETATM    2  O   UNL     1     -12.913  12.961  65.041  1.00  0.00    -0.777 OA 
ENDROOT
BRANCH   2   3
HETATM    3  C   UNL     1     -11.761  12.270  64.788  1.00  0.00    -0.358 A  
HETATM    4  C   UNL     1     -10.803  11.945  65.740  1.00  0.00    -0.341 A  
HETATM    5  C   UNL     1      -9.679  11.192  65.375  1.00  0.00    -0.275 A  
HETATM    6  C   UNL     1      -9.466  10.798  64.044  1.00  0.00    -0.312 A  
HETATM    7  C   UNL     1     -10.462  11.100  63.102  1.00  0.00    -0.243 A  
HETATM    8  C   UNL     1      -8.215  10.011  63.670  1.00  0.00    -0.160 C  
HETATM    9  C   UNL     1      -7.191  10.009  64.815  1.00  0.00    -0.136 C  
HETATM   10  C   UNL     1      -8.584   8.525  63.458  1.00  0.00     0.044 C  
HETATM   11  C   UNL     1      -7.545  10.554  62.396  1.00  0.00    -0.173 C  
HETATM   12  C   UNL     1     -11.603  11.816  63.479  1.00  0.00    -0.487 A  
HETATM   13  O   UNL     1      -5.974   9.995  64.642  1.00  0.00    -0.096 OA 
HETATM   14  N   UNL     1      -7.776   9.856  66.059  1.00  0.00    -0.105 N  
HETATM   15  O   UNL     1      -9.029  10.978  67.628  1.00  0.00    -0.139 OA 
HETATM   16  C   UNL     1      -8.801  10.684  66.459  1.00  0.00    -0.151 C  
BRANCH  14  17
HETATM   17  C   UNL     1      -7.139   8.987  67.022  1.00  0.00    -0.079 C  
BRANCH  17  18
HETATM   18  C   UNL     1      -5.835   9.480  67.648  1.00  0.00    -0.044 C  
BRANCH  18  19
HETATM   19  C   UNL     1      -5.955  10.921  68.118  1.00  0.00    -0.049 A  
HETATM   20  C   UNL     1      -6.539  11.255  69.352  1.00  0.00    -0.116 A  
HETATM   21  C   UNL     1      -6.696  12.586  69.737  1.00  0.00     0.146 A  
HETATM   22  C   UNL     1      -6.234  13.598  68.902  1.00  0.00    -0.092 A  
HETATM   23  C   UNL     1      -5.472  11.955  67.303  1.00  0.00    -0.121 A  
HETATM   24  C   UNL     1      -5.622  13.290  67.686  1.00  0.00    -0.070 A  
BRANCH  22  25
HETATM   25  S   UNL     1      -6.482  15.287  69.382  1.00  0.00    -0.153 S  
HETATM   26  O   UNL     1      -5.592  15.611  70.476  1.00  0.00    -0.154 OA 
HETATM   27  O   UNL     1      -6.477  16.084  68.172  1.00  0.00    -0.112 OA 
BRANCH  25  28
HETATM   28  N   UNL     1      -8.056  15.307  69.909  1.00  0.00    -0.279 N  
HETATM   29  H   UNL     1      -8.220  15.393  70.912  1.00  0.00     0.000 HD 
BRANCH  28  30
HETATM   30  C   UNL     1      -9.158  15.216  69.082  1.00  0.00    -0.215 C  
HETATM   31  O   UNL     1      -9.354  15.944  68.122  1.00  0.00    -0.196 OA 
BRANCH  30  32
HETATM   32  N   UNL     1     -10.004  14.222  69.465  1.00  0.00    -0.395 N  
HETATM   33  H   UNL     1      -9.656  13.473  70.064  1.00  0.00     0.000 HD 
BRANCH  32  34
HETATM   34  C   UNL     1     -11.400  14.203  69.041  1.00  0.00    -0.275 C  
HETATM   35  C   UNL     1     -11.901  12.769  68.827  1.00  0.00    -0.346 C  
HETATM   36  C   UNL     1     -11.960  11.990  70.139  1.00  0.00    -0.401 C  
HETATM   37  C   UNL     1     -12.779  12.716  71.203  1.00  0.00    -0.347 C  
HETATM   38  C   UNL     1     -12.364  14.175  71.389  1.00  0.00    -0.425 C  
HETATM   39  C   UNL     1     -12.285  14.926  70.060  1.00  0.00    -0.381 C  
ENDBRANCH  32  34
ENDBRANCH  30  32
ENDBRANCH  28  30
ENDBRANCH  25  28
ENDBRANCH  22  25
ENDBRANCH  18  19
ENDBRANCH  17  18
ENDBRANCH  14  17
ENDBRANCH   2   3
TORSDOF 9
ENDMDL
MODEL      158
REMARK 921   NORMALIZED FREE ENERGY PREDICTED BY IDOCK:   -4.67 KCAL/MOL
REMARK 922        TOTAL FREE ENERGY PREDICTED BY IDOCK:   -9.28 KCAL/MOL
REMARK 923 INTER-LIGAND FREE ENERGY PREDICTED BY IDOCK:   -7.79 KCAL/MOL
REMARK 924 INTRA-LIGAND FREE ENERGY PREDICTED BY IDOCK:   -1.49 KCAL/MOL
REMARK 927      BINDING AFFINITY PREDICTED BY RF-SCORE:    0.00 PKD
ROOT
HETATM    1  C   UNL     1      -7.728  18.823  67.980  1.00  0.00    -0.263 C  
HETATM    2  O   UNL     1      -7.266  17.753  67.159  1.00  0.00    -0.174 OA 
ENDROOT
BRANCH   2   3
HETATM    3  C   UNL     1      -8.185  16.775  66.901  1.00  0.00    -0.210 A  
HETATM    4  C   UNL     1      -8.000  15.422  67.159  1.00  0.00    -0.251 A  
HETATM    5  C   UNL     1      -9.031  14.510  66.895  1.00  0.00    -0.267 A  
HETATM    6  C   UNL     1     -10.243  14.926  66.320  1.00  0.00    -0.306 A  
HETATM    7  C   UNL     1     -10.429  16.300  66.102  1.00  0.00    -0.330 A  
HETATM    8  C   UNL     1     -11.332  13.906  66.010  1.00  0.00    -0.324 C  
HETATM    9  C   UNL     1     -10.802  12.468  66.125  1.00  0.00    -0.272 C  
HETATM   10  C   UNL     1     -12.452  14.008  67.069  1.00  0.00    -0.126 C  
HETATM   11  C   UNL     1     -11.938  14.109  64.610  1.00  0.00    -0.459 C  
HETATM   12  C   UNL     1      -9.413  17.212  66.406  1.00  0.00    -0.290 A  
HETATM   13  O   UNL     1     -11.198  11.537  65.427  1.00  0.00    -0.245 OA 
HETATM   14  N   UNL     1      -9.957  12.292  67.205  1.00  0.00    -0.204 N  
HETATM   15  O   UNL     1      -7.835  12.777  67.949  1.00  0.00    -0.129 OA 
HETATM   16  C   UNL     1      -8.871  13.119  67.388  1.00  0.00    -0.204 C  
BRANCH  14  17
HETATM   17  C   UNL     1     -10.081  11.087  67.993  1.00  0.00    -0.179 C  
BRANCH  17  18
HETATM   18  C   UNL     1     -10.925  11.171  69.265  1.00  0.00    -0.300 C  
BRANCH  18  19
HETATM   19  C   UNL     1     -10.878   9.871  70.050  1.00  0.00    -0.339 A  
HETATM   20  C   UNL     1     -10.055   8.798  69.663  1.00  0.00    -0.204 A  
HETATM   21  C   UNL     1     -10.071   7.591  70.361  1.00  0.00    -0.196 A  
HETATM   22  C   UNL     1     -10.888   7.459  71.479  1.00  0.00    -0.224 A  
HETATM   23  C   UNL     1     -11.673   9.726  71.195  1.00  0.00    -0.465 A  
HETATM   24  C   UNL     1     -11.689   8.520  71.901  1.00  0.00    -0.409 A  
BRANCH  22  25
HETATM   25  S   UNL     1     -10.934   5.904  72.329  1.00  0.00    -0.278 S  
HETATM   26  O   UNL     1     -12.311   5.535  72.582  1.00  0.00    -0.085 OA 
HETATM   27  O   UNL     1     -10.051   4.999  71.622  1.00  0.00    -0.182 OA 
BRANCH  25  28
HETATM   28  N   UNL     1     -10.165   6.230  73.763  1.00  0.00    -0.246 N  
HETATM   29  H   UNL     1     -10.584   5.869  74.621  1.00  0.00     0.000 HD 
BRANCH  28  30
HETATM   30  C   UNL     1      -8.996   6.956  73.875  1.00  0.00    -0.173 C  
HETATM   31  O   UNL     1      -8.879   7.962  74.557  1.00  0.00    -0.101 OA 
BRANCH  30  32
HETATM   32  N   UNL     1      -7.989   6.423  73.130  1.00  0.00    -0.105 N  
HETATM   33  H   UNL     1      -7.995   6.553  72.119  1.00  0.00     0.000 HD 
BRANCH  32  34
HETATM   34  C   UNL     1      -6.901   5.672  73.746  1.00  0.00    -0.081 C  
HETATM   35  C   UNL     1      -7.081   4.162  73.547  1.00  0.00    -0.065 C  
HETATM   36  C   UNL     1      -6.946   3.765  72.078  1.00  0.00    -0.041 C  
HETATM   37  C   UNL     1      -5.637   4.258  71.467  1.00  0.00    -0.008 C  
HETATM   38  C   UNL     1      -5.381   5.744  71.714  1.00  0.00    -0.020 C  
HETATM   39  C   UNL     1      -5.549   6.121  73.186  1.00  0.00    -0.037 C  
ENDBRANCH  32  34
ENDBRANCH  30  32
ENDBRANCH  28  30
ENDBRANCH  25  28
ENDBRANCH  22  25
ENDBRANCH  18  19
ENDBRANCH  17  18
ENDBRANCH  14  17
ENDBRANCH   2   3
TORSDOF 9
ENDMDL
MODEL      159
REMARK 921   NORMALIZED FREE ENERGY PREDICTED BY IDOCK:   -4.66 KCAL/MOL
REMARK 922        TOTAL FREE ENERGY PREDICTED BY IDOCK:   -9.26 KCAL/MOL
REMARK 923 INTER-LIGAND FREE ENERGY PREDICTED BY IDOCK:   -7.27 KCAL/MOL
REMARK 924 INTRA-LIGAND FREE ENERGY PREDICTED BY IDOCK:   -1.99 KCAL/MOL
REMARK 927      BINDING AFFINITY PREDICTED BY RF-SCORE:    0.00 PKD
ROOT
HETATM    1  C   UNL     1      -6.287   9.932  64.673  1.00  0.00    -0.117 C  
HETATM    2  O   UNL     1      -7.440   9.502  65.392  1.00  0.00    -0.094 OA 
ENDROOT
BRANCH   2   3
HETATM    3  C   UNL     1      -7.529   8.155  65.604  1.00  0.00    -0.081 A  
HETATM    4  C   UNL     1      -7.155   7.508  66.775  1.00  0.00    -0.083 A  
HETATM    5  C   UNL     1      -7.332   6.123  66.898  1.00  0.00    -0.082 A  
HETATM    6  C   UNL     1      -7.835   5.354  65.836  1.00  0.00    -0.103 A  
HETATM    7  C   UNL     1      -8.244   6.028  64.675  1.00  0.00    -0.108 A  
HETATM    8  C   UNL     1      -7.982   3.844  65.987  1.00  0.00    -0.090 C  
HETATM    9  C   UNL     1      -7.261   3.334  67.244  1.00  0.00    -0.058 C  
HETATM   10  C   UNL     1      -9.470   3.490  66.204  1.00  0.00    -0.149 C  
HETATM   11  C   UNL     1      -7.453   3.083  64.758  1.00  0.00    -0.075 C  
HETATM   12  C   UNL     1      -8.105   7.416  64.571  1.00  0.00    -0.079 A  
HETATM   13  O   UNL     1      -6.724   2.231  67.322  1.00  0.00    -0.038 OA 
HETATM   14  N   UNL     1      -7.422   4.171  68.332  1.00  0.00    -0.059 N  
HETATM   15  O   UNL     1      -6.749   6.201  69.179  1.00  0.00    -0.055 OA 
HETATM   16  C   UNL     1      -7.126   5.513  68.236  1.00  0.00    -0.066 C  
BRANCH  14  17
HETATM   17  C   UNL     1      -7.664   3.582  69.630  1.00  0.00    -0.051 C  
BRANCH  17  18
HETATM   18  C   UNL     1      -9.103   3.180  69.954  1.00  0.00    -0.196 C  
BRANCH  18  19
HETATM   19  C   UNL     1      -9.927   4.378  70.397  1.00  0.00    -0.253 A  
HETATM   20  C   UNL     1     -10.493   5.274  69.473  1.00  0.00    -0.304 A  
HETATM   21  C   UNL     1     -11.194   6.400  69.900  1.00  0.00    -0.485 A  
HETATM   22  C   UNL     1     -11.367   6.622  71.262  1.00  0.00    -0.299 A  
HETATM   23  C   UNL     1     -10.136   4.604  71.765  1.00  0.00    -0.261 A  
HETATM   24  C   UNL     1     -10.842   5.730  72.198  1.00  0.00    -0.296 A  
BRANCH  22  25
HETATM   25  S   UNL     1     -12.220   8.082  71.793  1.00  0.00    -0.330 S  
HETATM   26  O   UNL     1     -13.591   8.034  71.331  1.00  0.00    -0.304 OA 
HETATM   27  O   UNL     1     -11.927   8.266  73.200  1.00  0.00    -0.171 OA 
BRANCH  25  28
HETATM   28  N   UNL     1     -11.405   9.303  71.018  1.00  0.00    -0.293 N  
HETATM   29  H   UNL     1     -10.446   9.122  70.721  1.00  0.00     0.000 HD 
BRANCH  28  30
HETATM   30  C   UNL     1     -11.938  10.548  70.747  1.00  0.00    -0.370 C  
HETATM   31  O   UNL     1     -13.029  10.926  71.143  1.00  0.00    -0.374 OA 
BRANCH  30  32
HETATM   32  N   UNL     1     -11.106  11.304  69.979  1.00  0.00    -0.477 N  
HETATM   33  H   UNL     1     -10.111  11.334  70.202  1.00  0.00     0.000 HD 
BRANCH  32  34
HETATM   34  C   UNL     1     -11.606  12.074  68.845  1.00  0.00    -0.321 C  
HETATM   35  C   UNL     1     -10.694  13.268  68.534  1.00  0.00    -0.280 C  
HETATM   36  C   UNL     1      -9.324  12.817  68.030  1.00  0.00    -0.213 C  
HETATM   37  C   UNL     1      -9.433  11.869  66.838  1.00  0.00    -0.205 C  
HETATM   38  C   UNL     1     -10.397  10.708  67.079  1.00  0.00    -0.280 C  
HETATM   39  C   UNL     1     -11.750  11.183  67.609  1.00  0.00    -0.168 C  
ENDBRANCH  32  34
ENDBRANCH  30  32
ENDBRANCH  28  30
ENDBRANCH  25  28
ENDBRANCH  22  25
ENDBRANCH  18  19
ENDBRANCH  17  18
ENDBRANCH  14  17
ENDBRANCH   2   3
TORSDOF 9
ENDMDL
MODEL      160
REMARK 921   NORMALIZED FREE ENERGY PREDICTED BY IDOCK:   -4.65 KCAL/MOL
REMARK 922        TOTAL FREE ENERGY PREDICTED BY IDOCK:   -9.25 KCAL/MOL
REMARK 923 INTER-LIGAND FREE ENERGY PREDICTED BY IDOCK:   -7.92 KCAL/MOL
REMARK 924 INTRA-LIGAND FREE ENERGY PREDICTED BY IDOCK:   -1.33 KCAL/MOL
REMARK 927      BINDING AFFINITY PREDICTED BY RF-SCORE:    0.00 PKD
ROOT
HETATM    1  C   UNL     1     -14.004   8.979  72.089  1.00  0.00    -0.435 C  
HETATM    2  O   UNL     1     -13.730   7.775  71.376  1.00  0.00    -0.340 OA 
ENDROOT
BRANCH   2   3
HETATM    3  C   UNL     1     -12.411   7.425  71.305  1.00  0.00    -0.346 A  
HETATM    4  C   UNL     1     -11.410   8.205  70.739  1.00  0.00    -0.283 A  
HETATM    5  C   UNL     1     -10.080   7.765  70.762  1.00  0.00    -0.195 A  
HETATM    6  C   UNL     1      -9.735   6.515  71.303  1.00  0.00    -0.186 A  
HETATM    7  C   UNL     1     -10.750   5.758  71.906  1.00  0.00    -0.297 A  
HETATM    8  C   UNL     1      -8.284   6.047  71.281  1.00  0.00    -0.123 C  
HETATM    9  C   UNL     1      -7.421   6.939  70.375  1.00  0.00    -0.086 C  
HETATM   10  C   UNL     1      -7.673   6.195  72.692  1.00  0.00    -0.102 C  
HETATM   11  C   UNL     1      -8.152   4.585  70.821  1.00  0.00    -0.068 C  
HETATM   12  C   UNL     1     -12.071   6.219  71.918  1.00  0.00    -0.311 A  
HETATM   13  O   UNL     1      -6.463   6.527  69.726  1.00  0.00    -0.040 OA 
HETATM   14  N   UNL     1      -7.727   8.282  70.495  1.00  0.00    -0.078 N  
HETATM   15  O   UNL     1      -9.327   9.837  69.935  1.00  0.00    -0.209 OA 
HETATM   16  C   UNL     1      -9.024   8.722  70.346  1.00  0.00    -0.169 C  
BRANCH  14  17
HETATM   17  C   UNL     1      -6.645   9.240  70.528  1.00  0.00    -0.072 C  
BRANCH  17  18
HETATM   18  C   UNL     1      -6.040   9.653  69.187  1.00  0.00    -0.040 C  
BRANCH  18  19
HETATM   19  C   UNL     1      -6.267  11.130  68.907  1.00  0.00    -0.047 A  
HETATM   20  C   UNL     1      -6.699  11.592  67.652  1.00  0.00    -0.079 A  
HETATM   21  C   UNL     1      -6.843  12.955  67.397  1.00  0.00    -0.133 A  
HETATM   22  C   UNL     1      -6.587  13.870  68.412  1.00  0.00    -0.103 A  
HETATM   23  C   UNL     1      -6.041  12.068  69.925  1.00  0.00    -0.150 A  
HETATM   24  C   UNL     1      -6.187  13.435  69.676  1.00  0.00    -0.120 A  
BRANCH  22  25
HETATM   25  S   UNL     1      -6.727  15.602  68.061  1.00  0.00    -0.150 S  
HETATM   26  O   UNL     1      -6.606  16.354  69.292  1.00  0.00    -0.181 OA 
HETATM   27  O   UNL     1      -5.856  15.888  66.939  1.00  0.00    -0.297 OA 
BRANCH  25  28
HETATM   28  N   UNL     1      -8.268  15.747  67.461  1.00  0.00    -0.154 N  
HETATM   29  H   UNL     1      -8.387  16.214  66.562  1.00  0.00     0.000 HD 
BRANCH  28  30
HETATM   30  C   UNL     1      -9.401  15.279  68.097  1.00  0.00    -0.198 C  
HETATM   31  O   UNL     1      -9.543  15.252  69.309  1.00  0.00    -0.227 OA 
BRANCH  30  32
HETATM   32  N   UNL     1     -10.341  14.844  67.213  1.00  0.00    -0.250 N  
HETATM   33  H   UNL     1     -11.326  15.030  67.402  1.00  0.00     0.000 HD 
BRANCH  32  34
HETATM   34  C   UNL     1      -9.972  14.119  66.003  1.00  0.00    -0.322 C  
HETATM   35  C   UNL     1     -10.166  12.607  66.176  1.00  0.00    -0.272 C  
HETATM   36  C   UNL     1     -11.641  12.240  66.325  1.00  0.00    -0.446 C  
HETATM   37  C   UNL     1     -12.488  12.786  65.179  1.00  0.00    -0.565 C  
HETATM   38  C   UNL     1     -12.263  14.275  64.922  1.00  0.00    -0.449 C  
HETATM   39  C   UNL     1     -10.779  14.622  64.804  1.00  0.00    -0.399 C  
ENDBRANCH  32  34
ENDBRANCH  30  32
ENDBRANCH  28  30
ENDBRANCH  25  28
ENDBRANCH  22  25
ENDBRANCH  18  19
ENDBRANCH  17  18
ENDBRANCH  14  17
ENDBRANCH   2   3
TORSDOF 9
ENDMDL
MODEL      161
REMARK 921   NORMALIZED FREE ENERGY PREDICTED BY IDOCK:   -4.65 KCAL/MOL
REMARK 922        TOTAL FREE ENERGY PREDICTED BY IDOCK:   -9.25 KCAL/MOL
REMARK 923 INTER-LIGAND FREE ENERGY PREDICTED BY IDOCK:   -7.74 KCAL/MOL
REMARK 924 INTRA-LIGAND FREE ENERGY PREDICTED BY IDOCK:   -1.51 KCAL/MOL
REMARK 927      BINDING AFFINITY PREDICTED BY RF-SCORE:    0.00 PKD
ROOT
HETATM    1  C   UNL     1     -11.979  15.818  64.029  1.00  0.00     0.156 C  
HETATM    2  O   UNL     1     -12.646  14.558  64.015  1.00  0.00    -0.797 OA 
ENDROOT
BRANCH   2   3
HETATM    3  C   UNL     1     -12.154  13.627  64.886  1.00  0.00    -0.397 A  
HETATM    4  C   UNL     1     -11.467  12.477  64.515  1.00  0.00    -0.391 A  
HETATM    5  C   UNL     1     -10.966  11.612  65.497  1.00  0.00    -0.327 A  
HETATM    6  C   UNL     1     -11.189  11.852  66.863  1.00  0.00    -0.382 A  
HETATM    7  C   UNL     1     -11.848  13.037  67.222  1.00  0.00    -0.419 A  
HETATM    8  C   UNL     1     -10.663  10.873  67.907  1.00  0.00    -0.274 C  
HETATM    9  C   UNL     1     -10.187   9.565  67.259  1.00  0.00    -0.234 C  
HETATM   10  C   UNL     1      -9.408  11.467  68.585  1.00  0.00    -0.155 C  
HETATM   11  C   UNL     1     -11.715  10.550  68.982  1.00  0.00    -0.242 C  
HETATM   12  C   UNL     1     -12.311  13.920  66.240  1.00  0.00    -0.489 A  
HETATM   13  O   UNL     1     -10.271   8.465  67.801  1.00  0.00    -0.198 OA 
HETATM   14  N   UNL     1      -9.501   9.770  66.076  1.00  0.00    -0.193 N  
HETATM   15  O   UNL     1      -9.813  10.355  63.873  1.00  0.00    -0.312 OA 
HETATM   16  C   UNL     1     -10.057  10.521  65.064  1.00  0.00    -0.321 C  
BRANCH  14  17
HETATM   17  C   UNL     1      -8.314   8.987  65.818  1.00  0.00    -0.128 C  
BRANCH  17  18
HETATM   18  C   UNL     1      -8.506   7.641  65.118  1.00  0.00    -0.057 C  
BRANCH  18  19
HETATM   19  C   UNL     1      -8.463   6.489  66.109  1.00  0.00    -0.137 A  
HETATM   20  C   UNL     1      -9.354   5.405  66.028  1.00  0.00    -0.167 A  
HETATM   21  C   UNL     1      -9.339   4.388  66.983  1.00  0.00    -0.170 A  
HETATM   22  C   UNL     1      -8.403   4.431  68.011  1.00  0.00    -0.094 A  
HETATM   23  C   UNL     1      -7.510   6.499  67.137  1.00  0.00    -0.088 A  
HETATM   24  C   UNL     1      -7.488   5.480  68.094  1.00  0.00    -0.073 A  
BRANCH  22  25
HETATM   25  S   UNL     1      -8.425   3.158  69.244  1.00  0.00    -0.067 S  
HETATM   26  O   UNL     1      -9.554   2.282  69.012  1.00  0.00    -0.123 OA 
HETATM   27  O   UNL     1      -7.084   2.616  69.329  1.00  0.00    -0.043 OA 
BRANCH  25  28
HETATM   28  N   UNL     1      -8.644   3.999  70.658  1.00  0.00    -0.070 N  
HETATM   29  H   UNL     1      -7.996   3.817  71.425  1.00  0.00     0.000 HD 
BRANCH  28  30
HETATM   30  C   UNL     1      -9.643   4.929  70.867  1.00  0.00    -0.176 C  
HETATM   31  O   UNL     1     -10.634   5.036  70.163  1.00  0.00    -0.236 OA 
BRANCH  30  32
HETATM   32  N   UNL     1      -9.391   5.718  71.947  1.00  0.00    -0.151 N  
HETATM   33  H   UNL     1      -9.036   5.292  72.803  1.00  0.00     0.000 HD 
BRANCH  32  34
HETATM   34  C   UNL     1      -9.615   7.159  71.907  1.00  0.00    -0.149 C  
HETATM   35  C   UNL     1      -9.308   7.810  73.262  1.00  0.00    -0.331 C  
HETATM   36  C   UNL     1      -7.821   7.732  73.602  1.00  0.00    -0.198 C  
HETATM   37  C   UNL     1      -6.946   8.309  72.491  1.00  0.00    -0.110 C  
HETATM   38  C   UNL     1      -7.278   7.744  71.110  1.00  0.00    -0.061 C  
HETATM   39  C   UNL     1      -8.774   7.807  70.805  1.00  0.00    -0.134 C  
ENDBRANCH  32  34
ENDBRANCH  30  32
ENDBRANCH  28  30
ENDBRANCH  25  28
ENDBRANCH  22  25
ENDBRANCH  18  19
ENDBRANCH  17  18
ENDBRANCH  14  17
ENDBRANCH   2   3
TORSDOF 9
ENDMDL
MODEL      162
REMARK 921   NORMALIZED FREE ENERGY PREDICTED BY IDOCK:   -4.65 KCAL/MOL
REMARK 922        TOTAL FREE ENERGY PREDICTED BY IDOCK:   -9.24 KCAL/MOL
REMARK 923 INTER-LIGAND FREE ENERGY PREDICTED BY IDOCK:   -7.62 KCAL/MOL
REMARK 924 INTRA-LIGAND FREE ENERGY PREDICTED BY IDOCK:   -1.62 KCAL/MOL
REMARK 927      BINDING AFFINITY PREDICTED BY RF-SCORE:    0.00 PKD
ROOT
HETATM    1  C   UNL     1      -5.138  10.188  73.419  1.00  0.00     0.077 C  
HETATM    2  O   UNL     1      -5.255   8.793  73.684  1.00  0.00    -0.071 OA 
ENDROOT
BRANCH   2   3
HETATM    3  C   UNL     1      -5.955   8.077  72.753  1.00  0.00    -0.055 A  
HETATM    4  C   UNL     1      -7.296   8.272  72.445  1.00  0.00    -0.140 A  
HETATM    5  C   UNL     1      -7.902   7.509  71.437  1.00  0.00    -0.093 A  
HETATM    6  C   UNL     1      -7.194   6.503  70.759  1.00  0.00    -0.071 A  
HETATM    7  C   UNL     1      -5.831   6.346  71.054  1.00  0.00    -0.027 A  
HETATM    8  C   UNL     1      -7.890   5.663  69.694  1.00  0.00    -0.091 C  
HETATM    9  C   UNL     1      -9.412   5.872  69.722  1.00  0.00    -0.148 C  
HETATM   10  C   UNL     1      -7.445   6.137  68.292  1.00  0.00    -0.087 C  
HETATM   11  C   UNL     1      -7.584   4.163  69.844  1.00  0.00    -0.052 C  
HETATM   12  C   UNL     1      -5.219   7.138  72.031  1.00  0.00    -0.036 A  
HETATM   13  O   UNL     1     -10.226   4.993  69.447  1.00  0.00    -0.228 OA 
HETATM   14  N   UNL     1      -9.770   7.192  69.926  1.00  0.00    -0.170 N  
HETATM   15  O   UNL     1      -9.853   8.822  71.546  1.00  0.00    -0.244 OA 
HETATM   16  C   UNL     1      -9.264   7.899  70.994  1.00  0.00    -0.151 C  
BRANCH  14  17
HETATM   17  C   UNL     1     -10.864   7.740  69.157  1.00  0.00    -0.052 C  
BRANCH  17  18
HETATM   18  C   UNL     1     -10.516   8.390  67.818  1.00  0.00    -0.284 C  
BRANCH  18  19
HETATM   19  C   UNL     1     -10.316   9.890  67.965  1.00  0.00    -0.244 A  
HETATM   20  C   UNL     1     -11.386  10.796  67.868  1.00  0.00    -0.372 A  
HETATM   21  C   UNL     1     -11.174  12.172  67.944  1.00  0.00    -0.329 A  
HETATM   22  C   UNL     1      -9.887  12.654  68.155  1.00  0.00    -0.226 A  
HETATM   23  C   UNL     1      -9.030  10.395  68.205  1.00  0.00    -0.135 A  
HETATM   24  C   UNL     1      -8.812  11.773  68.287  1.00  0.00    -0.172 A  
BRANCH  22  25
HETATM   25  S   UNL     1      -9.623  14.406  68.203  1.00  0.00    -0.224 S  
HETATM   26  O   UNL     1      -9.973  14.910  69.514  1.00  0.00    -0.171 OA 
HETATM   27  O   UNL     1      -8.310  14.661  67.647  1.00  0.00    -0.153 OA 
BRANCH  25  28
HETATM   28  N   UNL     1     -10.692  14.984  67.073  1.00  0.00    -0.298 N  
HETATM   29  H   UNL     1     -11.601  14.528  67.000  1.00  0.00     0.000 HD 
BRANCH  28  30
HETATM   30  C   UNL     1     -10.435  16.043  66.224  1.00  0.00    -0.320 C  
HETATM   31  O   UNL     1     -10.255  15.927  65.022  1.00  0.00    -0.484 OA 
BRANCH  30  32
HETATM   32  N   UNL     1     -10.398  17.232  66.885  1.00  0.00    -0.320 N  
HETATM   33  H   UNL     1     -11.274  17.673  67.167  1.00  0.00     0.000 HD 
BRANCH  32  34
HETATM   34  C   UNL     1      -9.135  17.891  67.200  1.00  0.00    -0.251 C  
HETATM   35  C   UNL     1      -8.727  18.874  66.095  1.00  0.00    -0.175 C  
HETATM   36  C   UNL     1      -9.688  20.059  66.010  1.00  0.00    -0.464 C  
HETATM   37  C   UNL     1      -9.853  20.763  67.355  1.00  0.00    -0.435 C  
HETATM   38  C   UNL     1     -10.181  19.805  68.499  1.00  0.00    -0.547 C  
HETATM   39  C   UNL     1      -9.224  18.614  68.546  1.00  0.00    -0.377 C  
ENDBRANCH  32  34
ENDBRANCH  30  32
ENDBRANCH  28  30
ENDBRANCH  25  28
ENDBRANCH  22  25
ENDBRANCH  18  19
ENDBRANCH  17  18
ENDBRANCH  14  17
ENDBRANCH   2   3
TORSDOF 9
ENDMDL
MODEL      163
REMARK 921   NORMALIZED FREE ENERGY PREDICTED BY IDOCK:   -4.62 KCAL/MOL
REMARK 922        TOTAL FREE ENERGY PREDICTED BY IDOCK:   -9.21 KCAL/MOL
REMARK 923 INTER-LIGAND FREE ENERGY PREDICTED BY IDOCK:   -7.05 KCAL/MOL
REMARK 924 INTRA-LIGAND FREE ENERGY PREDICTED BY IDOCK:   -2.16 KCAL/MOL
REMARK 927      BINDING AFFINITY PREDICTED BY RF-SCORE:    0.00 PKD
ROOT
HETATM    1  C   UNL     1     -12.154  16.132  72.895  1.00  0.00    -0.541 C  
HETATM    2  O   UNL     1     -12.240  14.827  72.326  1.00  0.00    -0.337 OA 
ENDROOT
BRANCH   2   3
HETATM    3  C   UNL     1     -11.816  14.725  71.031  1.00  0.00    -0.329 A  
HETATM    4  C   UNL     1     -10.716  15.388  70.499  1.00  0.00    -0.290 A  
HETATM    5  C   UNL     1     -10.346  15.172  69.165  1.00  0.00    -0.249 A  
HETATM    6  C   UNL     1     -11.097  14.334  68.325  1.00  0.00    -0.276 A  
HETATM    7  C   UNL     1     -12.180  13.641  68.888  1.00  0.00    -0.221 A  
HETATM    8  C   UNL     1     -10.690  14.148  66.868  1.00  0.00    -0.286 C  
HETATM    9  C   UNL     1      -9.628  15.175  66.447  1.00  0.00    -0.284 C  
HETATM   10  C   UNL     1     -10.011  12.771  66.694  1.00  0.00    -0.246 C  
HETATM   11  C   UNL     1     -11.892  14.245  65.912  1.00  0.00    -0.386 C  
HETATM   12  C   UNL     1     -12.523  13.827  70.231  1.00  0.00    -0.357 A  
HETATM   13  O   UNL     1      -9.545  15.644  65.314  1.00  0.00    -0.293 OA 
HETATM   14  N   UNL     1      -8.674  15.392  67.424  1.00  0.00    -0.170 N  
HETATM   15  O   UNL     1      -8.362  16.405  69.465  1.00  0.00    -0.073 OA 
HETATM   16  C   UNL     1      -9.047  15.726  68.707  1.00  0.00    -0.213 C  
BRANCH  14  17
HETATM   17  C   UNL     1      -7.289  15.508  67.026  1.00  0.00    -0.137 C  
BRANCH  17  18
HETATM   18  C   UNL     1      -6.262  14.729  67.848  1.00  0.00    -0.171 C  
BRANCH  18  19
HETATM   19  C   UNL     1      -6.619  13.254  67.928  1.00  0.00    -0.145 A  
HETATM   20  C   UNL     1      -7.288  12.709  69.037  1.00  0.00     0.055 A  
HETATM   21  C   UNL     1      -7.552  11.342  69.119  1.00  0.00    -0.038 A  
HETATM   22  C   UNL     1      -7.177  10.510  68.069  1.00  0.00    -0.087 A  
HETATM   23  C   UNL     1      -6.274  12.403  66.868  1.00  0.00     0.175 A  
HETATM   24  C   UNL     1      -6.539  11.033  66.943  1.00  0.00    -0.112 A  
BRANCH  22  25
HETATM   25  S   UNL     1      -7.475   8.768  68.206  1.00  0.00    -0.092 S  
HETATM   26  O   UNL     1      -6.444   8.046  67.491  1.00  0.00    -0.054 OA 
HETATM   27  O   UNL     1      -7.735   8.483  69.602  1.00  0.00    -0.089 OA 
BRANCH  25  28
HETATM   28  N   UNL     1      -8.936   8.570  67.443  1.00  0.00    -0.133 N  
HETATM   29  H   UNL     1      -9.783   8.752  67.982  1.00  0.00     0.000 HD 
BRANCH  28  30
HETATM   30  C   UNL     1      -9.083   8.174  66.128  1.00  0.00    -0.183 C  
HETATM   31  O   UNL     1      -8.694   8.824  65.172  1.00  0.00    -0.186 OA 
BRANCH  30  32
HETATM   32  N   UNL     1      -9.720   6.976  66.022  1.00  0.00    -0.399 N  
HETATM   33  H   UNL     1     -10.668   6.947  65.648  1.00  0.00     0.000 HD 
BRANCH  32  34
HETATM   34  C   UNL     1      -9.077   5.732  66.431  1.00  0.00    -0.146 C  
HETATM   35  C   UNL     1     -10.093   4.589  66.546  1.00  0.00    -0.257 C  
HETATM   36  C   UNL     1     -10.674   4.210  65.185  1.00  0.00    -0.089 C  
HETATM   37  C   UNL     1      -9.585   3.892  64.163  1.00  0.00    -0.165 C  
HETATM   38  C   UNL     1      -8.508   4.972  64.077  1.00  0.00    -0.135 C  
HETATM   39  C   UNL     1      -7.962   5.353  65.453  1.00  0.00    -0.107 C  
ENDBRANCH  32  34
ENDBRANCH  30  32
ENDBRANCH  28  30
ENDBRANCH  25  28
ENDBRANCH  22  25
ENDBRANCH  18  19
ENDBRANCH  17  18
ENDBRANCH  14  17
ENDBRANCH   2   3
TORSDOF 9
ENDMDL
MODEL      164
REMARK 921   NORMALIZED FREE ENERGY PREDICTED BY IDOCK:   -4.58 KCAL/MOL
REMARK 922        TOTAL FREE ENERGY PREDICTED BY IDOCK:   -9.14 KCAL/MOL
REMARK 923 INTER-LIGAND FREE ENERGY PREDICTED BY IDOCK:   -7.08 KCAL/MOL
REMARK 924 INTRA-LIGAND FREE ENERGY PREDICTED BY IDOCK:   -2.06 KCAL/MOL
REMARK 927      BINDING AFFINITY PREDICTED BY RF-SCORE:    0.00 PKD
ROOT
HETATM    1  C   UNL     1     -11.672  14.543  67.219  1.00  0.00    -0.406 C  
HETATM    2  O   UNL     1     -10.678  13.716  66.619  1.00  0.00    -0.278 OA 
ENDROOT
BRANCH   2   3
HETATM    3  C   UNL     1     -10.174  12.732  67.422  1.00  0.00    -0.222 A  
HETATM    4  C   UNL     1     -10.924  11.966  68.306  1.00  0.00    -0.273 A  
HETATM    5  C   UNL     1     -10.308  10.949  69.049  1.00  0.00    -0.230 A  
HETATM    6  C   UNL     1      -8.925  10.717  68.962  1.00  0.00    -0.141 A  
HETATM    7  C   UNL     1      -8.190  11.472  68.036  1.00  0.00    -0.143 A  
HETATM    8  C   UNL     1      -8.278   9.629  69.811  1.00  0.00    -0.168 C  
HETATM    9  C   UNL     1      -9.241   9.112  70.890  1.00  0.00    -0.261 C  
HETATM   10  C   UNL     1      -7.969   8.400  68.926  1.00  0.00    -0.115 C  
HETATM   11  C   UNL     1      -6.980  10.110  70.482  1.00  0.00    -0.059 C  
HETATM   12  C   UNL     1      -8.815  12.458  67.265  1.00  0.00    -0.192 A  
HETATM   13  O   UNL     1      -8.878   8.724  71.999  1.00  0.00    -0.312 OA 
HETATM   14  N   UNL     1     -10.537   8.971  70.431  1.00  0.00    -0.207 N  
HETATM   15  O   UNL     1     -12.395  10.188  69.830  1.00  0.00    -0.094 OA 
HETATM   16  C   UNL     1     -11.180  10.020  69.810  1.00  0.00    -0.258 C  
BRANCH  14  17
HETATM   17  C   UNL     1     -11.291   7.803  70.828  1.00  0.00    -0.279 C  
BRANCH  17  18
HETATM   18  C   UNL     1     -10.540   6.472  70.869  1.00  0.00    -0.275 C  
BRANCH  18  19
HETATM   19  C   UNL     1     -10.425   5.858  69.483  1.00  0.00    -0.346 A  
HETATM   20  C   UNL     1      -9.724   4.661  69.256  1.00  0.00    -0.266 A  
HETATM   21  C   UNL     1      -9.578   4.145  67.969  1.00  0.00    -0.200 A  
HETATM   22  C   UNL     1     -10.164   4.809  66.896  1.00  0.00    -0.186 A  
HETATM   23  C   UNL     1     -11.032   6.496  68.392  1.00  0.00    -0.358 A  
HETATM   24  C   UNL     1     -10.892   5.982  67.100  1.00  0.00    -0.414 A  
BRANCH  22  25
HETATM   25  S   UNL     1      -9.931   4.169  65.260  1.00  0.00    -0.192 S  
HETATM   26  O   UNL     1      -9.043   3.027  65.311  1.00  0.00    -0.141 OA 
HETATM   27  O   UNL     1     -11.240   4.053  64.651  1.00  0.00    -0.318 OA 
BRANCH  25  28
HETATM   28  N   UNL     1      -9.191   5.423  64.462  1.00  0.00    -0.347 N  
HETATM   29  H   UNL     1      -9.655   5.800  63.635  1.00  0.00     0.000 HD 
BRANCH  28  30
HETATM   30  C   UNL     1      -7.991   5.990  64.841  1.00  0.00    -0.126 C  
HETATM   31  O   UNL     1      -7.487   6.956  64.291  1.00  0.00    -0.085 OA 
BRANCH  30  32
HETATM   32  N   UNL     1      -7.429   5.341  65.897  1.00  0.00    -0.081 N  
HETATM   33  H   UNL     1      -8.034   4.916  66.600  1.00  0.00     0.000 HD 
BRANCH  32  34
HETATM   34  C   UNL     1      -5.981   5.239  66.047  1.00  0.00    -0.022 C  
HETATM   35  C   UNL     1      -5.498   5.956  67.314  1.00  0.00    -0.005 C  
HETATM   36  C   UNL     1      -5.996   5.262  68.581  1.00  0.00    -0.021 C  
HETATM   37  C   UNL     1      -5.635   3.778  68.603  1.00  0.00    -0.014 C  
HETATM   38  C   UNL     1      -6.027   3.044  67.322  1.00  0.00    -0.024 C  
HETATM   39  C   UNL     1      -5.542   3.772  66.069  1.00  0.00    -0.018 C  
ENDBRANCH  32  34
ENDBRANCH  30  32
ENDBRANCH  28  30
ENDBRANCH  25  28
ENDBRANCH  22  25
ENDBRANCH  18  19
ENDBRANCH  17  18
ENDBRANCH  14  17
ENDBRANCH   2   3
TORSDOF 9
ENDMDL
MODEL      165
REMARK 921   NORMALIZED FREE ENERGY PREDICTED BY IDOCK:   -4.56 KCAL/MOL
REMARK 922        TOTAL FREE ENERGY PREDICTED BY IDOCK:   -9.10 KCAL/MOL
REMARK 923 INTER-LIGAND FREE ENERGY PREDICTED BY IDOCK:   -7.50 KCAL/MOL
REMARK 924 INTRA-LIGAND FREE ENERGY PREDICTED BY IDOCK:   -1.60 KCAL/MOL
REMARK 927      BINDING AFFINITY PREDICTED BY RF-SCORE:    0.00 PKD
ROOT
HETATM    1  C   UNL     1     -12.546  11.905  63.386  1.00  0.00    -0.431 C  
HETATM    2  O   UNL     1     -12.963  13.225  63.724  1.00  0.00    -0.448 OA 
ENDROOT
BRANCH   2   3
HETATM    3  C   UNL     1     -12.115  13.913  64.547  1.00  0.00    -0.443 A  
HETATM    4  C   UNL     1     -11.506  13.387  65.680  1.00  0.00    -0.335 A  
HETATM    5  C   UNL     1     -10.617  14.173  66.426  1.00  0.00    -0.280 A  
HETATM    6  C   UNL     1     -10.362  15.511  66.084  1.00  0.00    -0.327 A  
HETATM    7  C   UNL     1     -10.953  16.014  64.915  1.00  0.00    -0.399 A  
HETATM    8  C   UNL     1      -9.418  16.352  66.936  1.00  0.00    -0.249 C  
HETATM    9  C   UNL     1      -9.088  15.653  68.263  1.00  0.00    -0.187 C  
HETATM   10  C   UNL     1      -8.061  16.498  66.211  1.00  0.00    -0.341 C  
HETATM   11  C   UNL     1      -9.989  17.749  67.230  1.00  0.00    -0.324 C  
HETATM   12  C   UNL     1     -11.808  15.214  64.149  1.00  0.00    -0.164 A  
HETATM   13  O   UNL     1      -8.880  16.252  69.316  1.00  0.00    -0.237 OA 
HETATM   14  N   UNL     1      -8.887  14.292  68.119  1.00  0.00    -0.176 N  
HETATM   15  O   UNL     1     -10.007  12.319  67.744  1.00  0.00    -0.191 OA 
HETATM   16  C   UNL     1      -9.828  13.506  67.492  1.00  0.00    -0.227 C  
BRANCH  14  17
HETATM   17  C   UNL     1      -7.803  13.671  68.847  1.00  0.00     0.035 C  
BRANCH  17  18
HETATM   18  C   UNL     1      -6.629  13.138  68.026  1.00  0.00    -0.124 C  
BRANCH  18  19
HETATM   19  C   UNL     1      -6.824  11.675  67.664  1.00  0.00    -0.094 A  
HETATM   20  C   UNL     1      -7.185  10.713  68.623  1.00  0.00    -0.090 A  
HETATM   21  C   UNL     1      -7.299   9.365  68.283  1.00  0.00    -0.078 A  
HETATM   22  C   UNL     1      -7.086   8.973  66.966  1.00  0.00    -0.079 A  
HETATM   23  C   UNL     1      -6.640  11.262  66.336  1.00  0.00    -0.069 A  
HETATM   24  C   UNL     1      -6.758   9.914  65.990  1.00  0.00    -0.094 A  
BRANCH  22  25
HETATM   25  S   UNL     1      -7.188   7.251  66.557  1.00  0.00    -0.081 S  
HETATM   26  O   UNL     1      -8.148   7.066  65.489  1.00  0.00    -0.119 OA 
HETATM   27  O   UNL     1      -5.832   6.760  66.417  1.00  0.00    -0.024 OA 
BRANCH  25  28
HETATM   28  N   UNL     1      -7.758   6.559  67.954  1.00  0.00    -0.103 N  
HETATM   29  H   UNL     1      -7.130   6.521  68.757  1.00  0.00     0.000 HD 
BRANCH  28  30
HETATM   30  C   UNL     1      -9.025   6.031  68.104  1.00  0.00    -0.112 C  
HETATM   31  O   UNL     1      -9.389   4.977  67.609  1.00  0.00    -0.117 OA 
BRANCH  30  32
HETATM   32  N   UNL     1      -9.825   6.829  68.863  1.00  0.00    -0.143 N  
HETATM   33  H   UNL     1      -9.778   7.841  68.743  1.00  0.00     0.000 HD 
BRANCH  32  34
HETATM   34  C   UNL     1     -10.749   6.270  69.843  1.00  0.00    -0.294 C  
HETATM   35  C   UNL     1     -10.001   5.694  71.052  1.00  0.00    -0.248 C  
HETATM   36  C   UNL     1      -9.307   6.789  71.861  1.00  0.00    -0.146 C  
HETATM   37  C   UNL     1     -10.272   7.897  72.275  1.00  0.00    -0.302 C  
HETATM   38  C   UNL     1     -11.097   8.442  71.110  1.00  0.00    -0.301 C  
HETATM   39  C   UNL     1     -11.758   7.328  70.300  1.00  0.00    -0.164 C  
ENDBRANCH  32  34
ENDBRANCH  30  32
ENDBRANCH  28  30
ENDBRANCH  25  28
ENDBRANCH  22  25
ENDBRANCH  18  19
ENDBRANCH  17  18
ENDBRANCH  14  17
ENDBRANCH   2   3
TORSDOF 9
ENDMDL
MODEL      166
REMARK 921   NORMALIZED FREE ENERGY PREDICTED BY IDOCK:   -4.56 KCAL/MOL
REMARK 922        TOTAL FREE ENERGY PREDICTED BY IDOCK:   -9.10 KCAL/MOL
REMARK 923 INTER-LIGAND FREE ENERGY PREDICTED BY IDOCK:   -7.01 KCAL/MOL
REMARK 924 INTRA-LIGAND FREE ENERGY PREDICTED BY IDOCK:   -2.09 KCAL/MOL
REMARK 927      BINDING AFFINITY PREDICTED BY RF-SCORE:    0.00 PKD
ROOT
HETATM    1  C   UNL     1     -13.099  14.047  72.072  1.00  0.00    -0.401 C  
HETATM    2  O   UNL     1     -12.714  15.358  71.667  1.00  0.00    -0.347 OA 
ENDROOT
BRANCH   2   3
HETATM    3  C   UNL     1     -11.933  15.418  70.547  1.00  0.00    -0.357 A  
HETATM    4  C   UNL     1     -10.548  15.541  70.549  1.00  0.00    -0.243 A  
HETATM    5  C   UNL     1      -9.843  15.547  69.338  1.00  0.00    -0.283 A  
HETATM    6  C   UNL     1     -10.512  15.484  68.104  1.00  0.00    -0.259 A  
HETATM    7  C   UNL     1     -11.905  15.320  68.120  1.00  0.00    -0.217 A  
HETATM    8  C   UNL     1      -9.720  15.530  66.802  1.00  0.00    -0.252 C  
HETATM    9  C   UNL     1      -8.260  15.937  67.048  1.00  0.00    -0.221 C  
HETATM   10  C   UNL     1      -9.645  14.112  66.193  1.00  0.00    -0.278 C  
HETATM   11  C   UNL     1     -10.345  16.491  65.775  1.00  0.00    -0.359 C  
HETATM   12  C   UNL     1     -12.602  15.272  69.332  1.00  0.00     0.045 A  
HETATM   13  O   UNL     1      -7.590  16.591  66.251  1.00  0.00    -0.268 OA 
HETATM   14  N   UNL     1      -7.723  15.354  68.180  1.00  0.00    -0.120 N  
HETATM   15  O   UNL     1      -7.785  15.449  70.478  1.00  0.00     0.567 OA 
HETATM   16  C   UNL     1      -8.363  15.459  69.396  1.00  0.00    -0.250 C  
BRANCH  14  17
HETATM   17  C   UNL     1      -6.369  14.849  68.125  1.00  0.00    -0.136 C  
BRANCH  17  18
HETATM   18  C   UNL     1      -6.146  13.538  67.371  1.00  0.00     0.094 C  
BRANCH  18  19
HETATM   19  C   UNL     1      -6.706  12.353  68.142  1.00  0.00    -0.075 A  
HETATM   20  C   UNL     1      -7.898  11.714  67.760  1.00  0.00    -0.129 A  
HETATM   21  C   UNL     1      -8.428  10.668  68.515  1.00  0.00    -0.136 A  
HETATM   22  C   UNL     1      -7.747  10.227  69.644  1.00  0.00    -0.160 A  
HETATM   23  C   UNL     1      -6.021  11.876  69.268  1.00  0.00    -0.079 A  
HETATM   24  C   UNL     1      -6.545  10.825  70.026  1.00  0.00    -0.159 A  
BRANCH  22  25
HETATM   25  S   UNL     1      -8.455   8.929  70.622  1.00  0.00    -0.202 S  
HETATM   26  O   UNL     1      -8.635   7.751  69.800  1.00  0.00    -0.132 OA 
HETATM   27  O   UNL     1      -7.697   8.854  71.854  1.00  0.00    -0.310 OA 
BRANCH  25  28
HETATM   28  N   UNL     1      -9.934   9.543  71.059  1.00  0.00    -0.271 N  
HETATM   29  H   UNL     1     -10.194  10.461  70.698  1.00  0.00     0.000 HD 
BRANCH  28  30
HETATM   30  C   UNL     1     -10.837   8.896  71.879  1.00  0.00    -0.363 C  
HETATM   31  O   UNL     1     -11.813   9.432  72.378  1.00  0.00    -0.115 OA 
BRANCH  30  32
HETATM   32  N   UNL     1     -10.507   7.589  72.072  1.00  0.00    -0.204 N  
HETATM   33  H   UNL     1      -9.544   7.347  72.304  1.00  0.00     0.000 HD 
BRANCH  32  34
HETATM   34  C   UNL     1     -11.501   6.527  71.957  1.00  0.00    -0.300 C  
HETATM   35  C   UNL     1     -12.070   6.446  70.535  1.00  0.00    -0.094 C  
HETATM   36  C   UNL     1     -11.013   5.999  69.527  1.00  0.00    -0.467 C  
HETATM   37  C   UNL     1     -10.344   4.690  69.939  1.00  0.00    -0.006 C  
HETATM   38  C   UNL     1      -9.834   4.702  71.379  1.00  0.00    -0.264 C  
HETATM   39  C   UNL     1     -10.901   5.179  72.364  1.00  0.00    -0.265 C  
ENDBRANCH  32  34
ENDBRANCH  30  32
ENDBRANCH  28  30
ENDBRANCH  25  28
ENDBRANCH  22  25
ENDBRANCH  18  19
ENDBRANCH  17  18
ENDBRANCH  14  17
ENDBRANCH   2   3
TORSDOF 9
ENDMDL
MODEL      167
REMARK 921   NORMALIZED FREE ENERGY PREDICTED BY IDOCK:   -4.55 KCAL/MOL
REMARK 922        TOTAL FREE ENERGY PREDICTED BY IDOCK:   -9.10 KCAL/MOL
REMARK 923 INTER-LIGAND FREE ENERGY PREDICTED BY IDOCK:   -7.30 KCAL/MOL
REMARK 924 INTRA-LIGAND FREE ENERGY PREDICTED BY IDOCK:   -1.80 KCAL/MOL
REMARK 927      BINDING AFFINITY PREDICTED BY RF-SCORE:    0.00 PKD
ROOT
HETATM    1  C   UNL     1     -12.320  14.753  64.229  1.00  0.00    -0.320 C  
HETATM    2  O   UNL     1     -11.217  15.574  64.605  1.00  0.00    -0.423 OA 
ENDROOT
BRANCH   2   3
HETATM    3  C   UNL     1     -10.317  14.993  65.453  1.00  0.00    -0.383 A  
HETATM    4  C   UNL     1     -10.241  13.631  65.720  1.00  0.00    -0.317 A  
HETATM    5  C   UNL     1      -9.245  13.139  66.575  1.00  0.00    -0.185 A  
HETATM    6  C   UNL     1      -8.344  14.003  67.219  1.00  0.00    -0.209 A  
HETATM    7  C   UNL     1      -8.409  15.369  66.908  1.00  0.00    -0.290 A  
HETATM    8  C   UNL     1      -7.296  13.441  68.173  1.00  0.00    -0.117 C  
HETATM    9  C   UNL     1      -7.579  11.970  68.514  1.00  0.00    -0.126 C  
HETATM   10  C   UNL     1      -5.916  13.435  67.477  1.00  0.00    -0.050 C  
HETATM   11  C   UNL     1      -7.203  14.252  69.477  1.00  0.00    -0.003 C  
HETATM   12  C   UNL     1      -9.377  15.853  66.022  1.00  0.00    -0.385 A  
HETATM   13  O   UNL     1      -7.317  11.459  69.601  1.00  0.00    -0.011 OA 
HETATM   14  N   UNL     1      -8.003  11.237  67.421  1.00  0.00    -0.126 N  
HETATM   15  O   UNL     1      -9.815  10.917  66.040  1.00  0.00    -0.214 OA 
HETATM   16  C   UNL     1      -9.066  11.667  66.657  1.00  0.00    -0.194 C  
BRANCH  14  17
HETATM   17  C   UNL     1      -7.484   9.901  67.239  1.00  0.00    -0.087 C  
BRANCH  17  18
HETATM   18  C   UNL     1      -8.497   8.756  67.236  1.00  0.00    -0.111 C  
BRANCH  18  19
HETATM   19  C   UNL     1      -9.120   8.563  68.610  1.00  0.00    -0.139 A  
HETATM   20  C   UNL     1      -8.336   8.397  69.765  1.00  0.00    -0.125 A  
HETATM   21  C   UNL     1      -8.925   8.160  71.006  1.00  0.00    -0.173 A  
HETATM   22  C   UNL     1     -10.311   8.122  71.109  1.00  0.00    -0.198 A  
HETATM   23  C   UNL     1     -10.516   8.548  68.739  1.00  0.00    -0.208 A  
HETATM   24  C   UNL     1     -11.111   8.315  69.982  1.00  0.00    -0.147 A  
BRANCH  22  25
HETATM   25  S   UNL     1     -11.046   7.772  72.683  1.00  0.00    -0.399 S  
HETATM   26  O   UNL     1     -10.011   7.699  73.692  1.00  0.00    -0.312 OA 
HETATM   27  O   UNL     1     -12.166   8.677  72.847  1.00  0.00    -0.245 OA 
BRANCH  25  28
HETATM   28  N   UNL     1     -11.727   6.274  72.464  1.00  0.00    -0.473 N  
HETATM   29  H   UNL     1     -12.647   6.230  72.027  1.00  0.00     0.000 HD 
BRANCH  28  30
HETATM   30  C   UNL     1     -11.131   5.084  72.832  1.00  0.00    -0.279 C  
HETATM   31  O   UNL     1     -11.712   4.179  73.407  1.00  0.00    -0.184 OA 
BRANCH  30  32
HETATM   32  N   UNL     1      -9.816   5.041  72.483  1.00  0.00    -0.155 N  
HETATM   33  H   UNL     1      -9.246   5.880  72.582  1.00  0.00     0.000 HD 
BRANCH  32  34
HETATM   34  C   UNL     1      -9.203   3.820  71.971  1.00  0.00    -0.121 C  
HETATM   35  C   UNL     1      -9.758   3.452  70.589  1.00  0.00    -0.176 C  
HETATM   36  C   UNL     1      -9.357   4.475  69.528  1.00  0.00    -0.221 C  
HETATM   37  C   UNL     1      -7.847   4.696  69.485  1.00  0.00    -0.062 C  
HETATM   38  C   UNL     1      -7.242   4.985  70.858  1.00  0.00    -0.060 C  
HETATM   39  C   UNL     1      -7.680   3.965  71.908  1.00  0.00    -0.066 C  
ENDBRANCH  32  34
ENDBRANCH  30  32
ENDBRANCH  28  30
ENDBRANCH  25  28
ENDBRANCH  22  25
ENDBRANCH  18  19
ENDBRANCH  17  18
ENDBRANCH  14  17
ENDBRANCH   2   3
TORSDOF 9
ENDMDL
MODEL      168
REMARK 921   NORMALIZED FREE ENERGY PREDICTED BY IDOCK:   -4.54 KCAL/MOL
REMARK 922        TOTAL FREE ENERGY PREDICTED BY IDOCK:   -9.08 KCAL/MOL
REMARK 923 INTER-LIGAND FREE ENERGY PREDICTED BY IDOCK:   -7.98 KCAL/MOL
REMARK 924 INTRA-LIGAND FREE ENERGY PREDICTED BY IDOCK:   -1.11 KCAL/MOL
REMARK 927      BINDING AFFINITY PREDICTED BY RF-SCORE:    0.00 PKD
ROOT
HETATM    1  C   UNL     1      -9.423   1.821  74.446  1.00  0.00    -0.072 C  
HETATM    2  O   UNL     1     -10.547   2.576  73.999  1.00  0.00    -0.138 OA 
ENDROOT
BRANCH   2   3
HETATM    3  C   UNL     1     -10.355   3.283  72.845  1.00  0.00    -0.163 A  
HETATM    4  C   UNL     1     -10.824   4.571  72.615  1.00  0.00    -0.193 A  
HETATM    5  C   UNL     1     -10.529   5.218  71.408  1.00  0.00    -0.273 A  
HETATM    6  C   UNL     1      -9.808   4.572  70.390  1.00  0.00    -0.302 A  
HETATM    7  C   UNL     1      -9.308   3.288  70.654  1.00  0.00    -0.229 A  
HETATM    8  C   UNL     1      -9.534   5.289  69.073  1.00  0.00    -0.182 C  
HETATM    9  C   UNL     1     -10.369   6.573  68.950  1.00  0.00    -0.196 C  
HETATM   10  C   UNL     1      -8.063   5.762  69.039  1.00  0.00    -0.101 C  
HETATM   11  C   UNL     1      -9.806   4.391  67.854  1.00  0.00    -0.141 C  
HETATM   12  C   UNL     1      -9.569   2.660  71.876  1.00  0.00    -0.212 A  
HETATM   13  O   UNL     1     -10.800   7.006  67.883  1.00  0.00    -0.218 OA 
HETATM   14  N   UNL     1     -10.447   7.279  70.135  1.00  0.00    -0.213 N  
HETATM   15  O   UNL     1     -11.431   7.239  72.214  1.00  0.00    -0.261 OA 
HETATM   16  C   UNL     1     -10.859   6.661  71.295  1.00  0.00    -0.238 C  
BRANCH  14  17
HETATM   17  C   UNL     1     -10.332   8.720  70.092  1.00  0.00    -0.208 C  
BRANCH  17  18
HETATM   18  C   UNL     1     -11.014   9.437  68.927  1.00  0.00    -0.081 C  
BRANCH  18  19
HETATM   19  C   UNL     1     -10.520  10.869  68.792  1.00  0.00    -0.224 A  
HETATM   20  C   UNL     1     -11.378  11.970  68.958  1.00  0.00    -0.331 A  
HETATM   21  C   UNL     1     -10.919  13.274  68.770  1.00  0.00    -0.294 A  
HETATM   22  C   UNL     1      -9.584  13.488  68.447  1.00  0.00    -0.196 A  
HETATM   23  C   UNL     1      -9.172  11.108  68.493  1.00  0.00    -0.183 A  
HETATM   24  C   UNL     1      -8.706  12.413  68.307  1.00  0.00    -0.175 A  
BRANCH  22  25
HETATM   25  S   UNL     1      -9.025  15.147  68.163  1.00  0.00    -0.178 S  
HETATM   26  O   UNL     1      -8.714  15.773  69.431  1.00  0.00    -0.252 OA 
HETATM   27  O   UNL     1      -8.033  15.094  67.109  1.00  0.00    -0.193 OA 
BRANCH  25  28
HETATM   28  N   UNL     1     -10.346  15.883  67.479  1.00  0.00    -0.277 N  
HETATM   29  H   UNL     1     -11.013  16.338  68.103  1.00  0.00     0.000 HD 
BRANCH  28  30
HETATM   30  C   UNL     1     -10.604  15.922  66.123  1.00  0.00    -0.305 C  
HETATM   31  O   UNL     1     -10.269  16.839  65.390  1.00  0.00    -0.599 OA 
BRANCH  30  32
HETATM   32  N   UNL     1     -11.282  14.821  65.699  1.00  0.00    -0.338 N  
HETATM   33  H   UNL     1     -12.009  14.423  66.294  1.00  0.00     0.000 HD 
BRANCH  32  34
HETATM   34  C   UNL     1     -10.994  14.197  64.412  1.00  0.00    -0.225 C  
HETATM   35  C   UNL     1     -10.038  13.008  64.569  1.00  0.00    -0.254 C  
HETATM   36  C   UNL     1     -10.687  11.859  65.338  1.00  0.00    -0.330 C  
HETATM   37  C   UNL     1     -12.016  11.432  64.721  1.00  0.00     0.345 C  
HETATM   38  C   UNL     1     -12.967  12.602  64.473  1.00  0.00    -0.236 C  
HETATM   39  C   UNL     1     -12.288  13.749  63.727  1.00  0.00    -0.313 C  
ENDBRANCH  32  34
ENDBRANCH  30  32
ENDBRANCH  28  30
ENDBRANCH  25  28
ENDBRANCH  22  25
ENDBRANCH  18  19
ENDBRANCH  17  18
ENDBRANCH  14  17
ENDBRANCH   2   3
TORSDOF 9
ENDMDL
MODEL      169
REMARK 921   NORMALIZED FREE ENERGY PREDICTED BY IDOCK:   -4.54 KCAL/MOL
REMARK 922        TOTAL FREE ENERGY PREDICTED BY IDOCK:   -9.08 KCAL/MOL
REMARK 923 INTER-LIGAND FREE ENERGY PREDICTED BY IDOCK:   -7.63 KCAL/MOL
REMARK 924 INTRA-LIGAND FREE ENERGY PREDICTED BY IDOCK:   -1.44 KCAL/MOL
REMARK 927      BINDING AFFINITY PREDICTED BY RF-SCORE:    0.00 PKD
ROOT
HETATM    1  C   UNL     1      -6.574  13.318  69.214  1.00  0.00    -0.093 C  
HETATM    2  O   UNL     1      -5.641  12.257  69.399  1.00  0.00    -0.070 OA 
ENDROOT
BRANCH   2   3
HETATM    3  C   UNL     1      -6.171  11.087  69.865  1.00  0.00    -0.127 A  
HETATM    4  C   UNL     1      -7.529  10.807  69.951  1.00  0.00     0.060 A  
HETATM    5  C   UNL     1      -7.960   9.553  70.403  1.00  0.00    -0.200 A  
HETATM    6  C   UNL     1      -7.043   8.576  70.828  1.00  0.00    -0.055 A  
HETATM    7  C   UNL     1      -5.675   8.859  70.697  1.00  0.00    -0.032 A  
HETATM    8  C   UNL     1      -7.543   7.234  71.350  1.00  0.00    -0.083 C  
HETATM    9  C   UNL     1      -9.058   7.261  71.604  1.00  0.00    -0.135 C  
HETATM   10  C   UNL     1      -7.335   6.150  70.268  1.00  0.00    -0.088 C  
HETATM   11  C   UNL     1      -6.823   6.808  72.641  1.00  0.00    -0.063 C  
HETATM   12  C   UNL     1      -5.248  10.098  70.206  1.00  0.00    -0.040 A  
HETATM   13  O   UNL     1      -9.611   6.624  72.498  1.00  0.00    -0.155 OA 
HETATM   14  N   UNL     1      -9.756   7.940  70.622  1.00  0.00    -0.173 N  
HETATM   15  O   UNL     1     -10.189  10.058  69.837  1.00  0.00    -0.239 OA 
HETATM   16  C   UNL     1      -9.401   9.224  70.271  1.00  0.00    -0.239 C  
BRANCH  14  17
HETATM   17  C   UNL     1     -11.005   7.387  70.150  1.00  0.00    -0.255 C  
BRANCH  17  18
HETATM   18  C   UNL     1     -10.971   6.624  68.826  1.00  0.00    -0.322 C  
BRANCH  18  19
HETATM   19  C   UNL     1     -10.199   7.391  67.764  1.00  0.00    -0.250 A  
HETATM   20  C   UNL     1     -10.701   8.569  67.185  1.00  0.00    -0.209 A  
HETATM   21  C   UNL     1     -10.006   9.224  66.169  1.00  0.00    -0.348 A  
HETATM   22  C   UNL     1      -8.780   8.722  65.746  1.00  0.00    -0.179 A  
HETATM   23  C   UNL     1      -8.949   6.916  67.343  1.00  0.00    -0.116 A  
HETATM   24  C   UNL     1      -8.246   7.571  66.327  1.00  0.00    -0.125 A  
BRANCH  22  25
HETATM   25  S   UNL     1      -7.929   9.537  64.421  1.00  0.00    -0.146 S  
HETATM   26  O   UNL     1      -6.506   9.533  64.689  1.00  0.00    -0.081 OA 
HETATM   27  O   UNL     1      -8.443   8.994  63.180  1.00  0.00    -0.193 OA 
BRANCH  25  28
HETATM   28  N   UNL     1      -8.512  11.089  64.490  1.00  0.00    -0.372 N  
HETATM   29  H   UNL     1      -7.979  11.774  65.026  1.00  0.00     0.000 HD 
BRANCH  28  30
HETATM   30  C   UNL     1      -9.670  11.517  63.871  1.00  0.00    -0.255 C  
HETATM   31  O   UNL     1     -10.246  10.894  62.993  1.00  0.00    -0.292 OA 
BRANCH  30  32
HETATM   32  N   UNL     1     -10.093  12.719  64.350  1.00  0.00    -0.570 N  
HETATM   33  H   UNL     1      -9.403  13.435  64.577  1.00  0.00     0.000 HD 
BRANCH  32  34
HETATM   34  C   UNL     1     -11.510  13.006  64.545  1.00  0.00    -0.347 C  
HETATM   35  C   UNL     1     -12.072  12.252  65.756  1.00  0.00    -0.287 C  
HETATM   36  C   UNL     1     -11.465  12.753  67.066  1.00  0.00    -0.397 C  
HETATM   37  C   UNL     1     -11.615  14.264  67.227  1.00  0.00    -0.401 C  
HETATM   38  C   UNL     1     -11.140  15.049  66.005  1.00  0.00    -0.329 C  
HETATM   39  C   UNL     1     -11.739  14.511  64.706  1.00  0.00    -0.425 C  
ENDBRANCH  32  34
ENDBRANCH  30  32
ENDBRANCH  28  30
ENDBRANCH  25  28
ENDBRANCH  22  25
ENDBRANCH  18  19
ENDBRANCH  17  18
ENDBRANCH  14  17
ENDBRANCH   2   3
TORSDOF 9
ENDMDL
MODEL      170
REMARK 921   NORMALIZED FREE ENERGY PREDICTED BY IDOCK:   -4.54 KCAL/MOL
REMARK 922        TOTAL FREE ENERGY PREDICTED BY IDOCK:   -9.07 KCAL/MOL
REMARK 923 INTER-LIGAND FREE ENERGY PREDICTED BY IDOCK:   -7.84 KCAL/MOL
REMARK 924 INTRA-LIGAND FREE ENERGY PREDICTED BY IDOCK:   -1.23 KCAL/MOL
REMARK 927      BINDING AFFINITY PREDICTED BY RF-SCORE:    0.00 PKD
ROOT
HETATM    1  C   UNL     1     -13.029  14.825  72.201  1.00  0.00    -0.336 C  
HETATM    2  O   UNL     1     -13.063  14.189  70.926  1.00  0.00    -0.334 OA 
ENDROOT
BRANCH   2   3
HETATM    3  C   UNL     1     -12.760  12.856  70.929  1.00  0.00    -0.207 A  
HETATM    4  C   UNL     1     -11.909  12.232  70.025  1.00  0.00    -0.372 A  
HETATM    5  C   UNL     1     -11.635  10.864  70.151  1.00  0.00    -0.425 A  
HETATM    6  C   UNL     1     -12.247  10.085  71.147  1.00  0.00    -0.477 A  
HETATM    7  C   UNL     1     -13.072  10.738  72.075  1.00  0.00    -0.476 A  
HETATM    8  C   UNL     1     -11.957   8.591  71.236  1.00  0.00    -0.334 C  
HETATM    9  C   UNL     1     -11.217   8.089  69.987  1.00  0.00    -0.090 C  
HETATM   10  C   UNL     1     -10.992   8.322  72.411  1.00  0.00    -0.438 C  
HETATM   11  C   UNL     1     -13.238   7.761  71.431  1.00  0.00    -0.310 C  
HETATM   12  C   UNL     1     -13.311  12.112  71.972  1.00  0.00    -0.470 A  
HETATM   13  O   UNL     1     -11.362   6.963  69.515  1.00  0.00    -0.236 OA 
HETATM   14  N   UNL     1     -10.248   8.970  69.545  1.00  0.00    -0.197 N  
HETATM   15  O   UNL     1      -9.980  10.991  68.480  1.00  0.00    -0.178 OA 
HETATM   16  C   UNL     1     -10.558  10.291  69.305  1.00  0.00    -0.230 C  
BRANCH  14  17
HETATM   17  C   UNL     1      -8.978   8.440  69.104  1.00  0.00    -0.147 C  
BRANCH  17  18
HETATM   18  C   UNL     1      -8.706   8.446  67.600  1.00  0.00    -0.137 C  
BRANCH  18  19
HETATM   19  C   UNL     1      -8.782   7.044  67.017  1.00  0.00    -0.123 A  
HETATM   20  C   UNL     1     -10.006   6.449  66.667  1.00  0.00    -0.207 A  
HETATM   21  C   UNL     1     -10.060   5.140  66.190  1.00  0.00    -0.235 A  
HETATM   22  C   UNL     1      -8.879   4.424  66.027  1.00  0.00    -0.119 A  
HETATM   23  C   UNL     1      -7.601   6.315  66.818  1.00  0.00    -0.099 A  
HETATM   24  C   UNL     1      -7.648   5.004  66.337  1.00  0.00    -0.088 A  
BRANCH  22  25
HETATM   25  S   UNL     1      -8.964   2.744  65.466  1.00  0.00    -0.130 S  
HETATM   26  O   UNL     1     -10.056   2.606  64.525  1.00  0.00    -0.035 OA 
HETATM   27  O   UNL     1      -7.622   2.344  65.095  1.00  0.00    -0.072 OA 
BRANCH  25  28
HETATM   28  N   UNL     1      -9.303   1.895  66.851  1.00  0.00    -0.357 N  
HETATM   29  H   UNL     1     -10.132   1.301  66.855  1.00  0.00     0.000 HD 
BRANCH  28  30
HETATM   30  C   UNL     1      -8.538   1.939  68.001  1.00  0.00    -0.076 C  
HETATM   31  O   UNL     1      -7.407   1.490  68.086  1.00  0.00    -0.042 OA 
BRANCH  30  32
HETATM   32  N   UNL     1      -9.197   2.535  69.031  1.00  0.00    -0.134 N  
HETATM   33  H   UNL     1      -9.913   2.012  69.535  1.00  0.00     0.000 HD 
BRANCH  32  34
HETATM   34  C   UNL     1      -8.903   3.907  69.433  1.00  0.00    -0.095 C  
HETATM   35  C   UNL     1      -9.999   4.470  70.345  1.00  0.00    -0.284 C  
HETATM   36  C   UNL     1     -10.039   3.750  71.692  1.00  0.00    -0.149 C  
HETATM   37  C   UNL     1      -8.679   3.749  72.384  1.00  0.00    -0.109 C  
HETATM   38  C   UNL     1      -7.544   3.271  71.480  1.00  0.00    -0.048 C  
HETATM   39  C   UNL     1      -7.542   3.986  70.129  1.00  0.00    -0.045 C  
ENDBRANCH  32  34
ENDBRANCH  30  32
ENDBRANCH  28  30
ENDBRANCH  25  28
ENDBRANCH  22  25
ENDBRANCH  18  19
ENDBRANCH  17  18
ENDBRANCH  14  17
ENDBRANCH   2   3
TORSDOF 9
ENDMDL
MODEL      171
REMARK 921   NORMALIZED FREE ENERGY PREDICTED BY IDOCK:   -4.53 KCAL/MOL
REMARK 922        TOTAL FREE ENERGY PREDICTED BY IDOCK:   -9.06 KCAL/MOL
REMARK 923 INTER-LIGAND FREE ENERGY PREDICTED BY IDOCK:   -7.76 KCAL/MOL
REMARK 924 INTRA-LIGAND FREE ENERGY PREDICTED BY IDOCK:   -1.30 KCAL/MOL
REMARK 927      BINDING AFFINITY PREDICTED BY RF-SCORE:    0.00 PKD
ROOT
HETATM    1  C   UNL     1      -5.889  20.108  70.256  1.00  0.00    -0.339 C  
HETATM    2  O   UNL     1      -5.547  18.940  69.515  1.00  0.00    -0.204 OA 
ENDROOT
BRANCH   2   3
HETATM    3  C   UNL     1      -6.583  18.341  68.854  1.00  0.00    -0.245 A  
HETATM    4  C   UNL     1      -6.586  17.026  68.406  1.00  0.00    -0.157 A  
HETATM    5  C   UNL     1      -7.724  16.502  67.778  1.00  0.00    -0.165 A  
HETATM    6  C   UNL     1      -8.857  17.298  67.540  1.00  0.00    -0.219 A  
HETATM    7  C   UNL     1      -8.853  18.611  68.034  1.00  0.00    -0.329 A  
HETATM    8  C   UNL     1     -10.066  16.710  66.821  1.00  0.00    -0.293 C  
HETATM    9  C   UNL     1      -9.737  15.349  66.190  1.00  0.00    -0.318 C  
HETATM   10  C   UNL     1     -11.184  16.418  67.847  1.00  0.00    -0.184 C  
HETATM   11  C   UNL     1     -10.610  17.652  65.733  1.00  0.00    -0.177 C  
HETATM   12  C   UNL     1      -7.730  19.118  68.697  1.00  0.00    -0.387 A  
HETATM   13  O   UNL     1     -10.239  14.942  65.145  1.00  0.00    -0.383 OA 
HETATM   14  N   UNL     1      -8.945  14.558  67.002  1.00  0.00    -0.229 N  
HETATM   15  O   UNL     1      -6.794  14.339  67.786  1.00  0.00    -0.147 OA 
HETATM   16  C   UNL     1      -7.762  15.042  67.516  1.00  0.00    -0.185 C  
BRANCH  14  17
HETATM   17  C   UNL     1      -9.246  13.148  67.102  1.00  0.00    -0.227 C  
BRANCH  17  18
HETATM   18  C   UNL     1     -10.553  12.763  67.795  1.00  0.00    -0.231 C  
BRANCH  18  19
HETATM   19  C   UNL     1     -10.512  11.329  68.300  1.00  0.00    -0.220 A  
HETATM   20  C   UNL     1     -10.220  10.249  67.450  1.00  0.00    -0.265 A  
HETATM   21  C   UNL     1     -10.247   8.936  67.919  1.00  0.00    -0.274 A  
HETATM   22  C   UNL     1     -10.534   8.695  69.258  1.00  0.00    -0.217 A  
HETATM   23  C   UNL     1     -10.772  11.067  69.653  1.00  0.00    -0.193 A  
HETATM   24  C   UNL     1     -10.797   9.753  70.129  1.00  0.00    -0.340 A  
BRANCH  22  25
HETATM   25  S   UNL     1     -10.612   7.019  69.830  1.00  0.00    -0.237 S  
HETATM   26  O   UNL     1     -10.920   7.007  71.245  1.00  0.00    -0.237 OA 
HETATM   27  O   UNL     1     -11.437   6.281  68.895  1.00  0.00    -0.331 OA 
BRANCH  25  28
HETATM   28  N   UNL     1      -9.069   6.459  69.584  1.00  0.00    -0.143 N  
HETATM   29  H   UNL     1      -8.313   7.143  69.556  1.00  0.00     0.000 HD 
BRANCH  28  30
HETATM   30  C   UNL     1      -8.739   5.129  69.415  1.00  0.00    -0.099 C  
HETATM   31  O   UNL     1      -8.362   4.398  70.317  1.00  0.00    -0.071 OA 
BRANCH  30  32
HETATM   32  N   UNL     1      -8.877   4.727  68.122  1.00  0.00    -0.103 N  
HETATM   33  H   UNL     1      -9.761   4.889  67.641  1.00  0.00     0.000 HD 
BRANCH  32  34
HETATM   34  C   UNL     1      -7.787   4.072  67.407  1.00  0.00    -0.091 C  
HETATM   35  C   UNL     1      -8.308   2.952  66.497  1.00  0.00    -0.095 C  
HETATM   36  C   UNL     1      -9.151   3.503  65.349  1.00  0.00    -0.145 C  
HETATM   37  C   UNL     1      -8.409   4.573  64.552  1.00  0.00    -0.115 C  
HETATM   38  C   UNL     1      -7.804   5.666  65.432  1.00  0.00    -0.102 C  
HETATM   39  C   UNL     1      -6.988   5.090  66.589  1.00  0.00    -0.067 C  
ENDBRANCH  32  34
ENDBRANCH  30  32
ENDBRANCH  28  30
ENDBRANCH  25  28
ENDBRANCH  22  25
ENDBRANCH  18  19
ENDBRANCH  17  18
ENDBRANCH  14  17
ENDBRANCH   2   3
TORSDOF 9
ENDMDL
MODEL      172
REMARK 921   NORMALIZED FREE ENERGY PREDICTED BY IDOCK:   -4.49 KCAL/MOL
REMARK 922        TOTAL FREE ENERGY PREDICTED BY IDOCK:   -9.00 KCAL/MOL
REMARK 923 INTER-LIGAND FREE ENERGY PREDICTED BY IDOCK:   -6.51 KCAL/MOL
REMARK 924 INTRA-LIGAND FREE ENERGY PREDICTED BY IDOCK:   -2.49 KCAL/MOL
REMARK 927      BINDING AFFINITY PREDICTED BY RF-SCORE:    0.00 PKD
ROOT
HETATM    1  C   UNL     1     -10.423  18.929  67.986  1.00  0.00    -0.358 C  
HETATM    2  O   UNL     1     -10.051  17.908  68.908  1.00  0.00    -0.368 OA 
ENDROOT
BRANCH   2   3
HETATM    3  C   UNL     1     -10.168  16.628  68.443  1.00  0.00    -0.284 A  
HETATM    4  C   UNL     1      -9.103  15.815  68.075  1.00  0.00    -0.187 A  
HETATM    5  C   UNL     1      -9.339  14.499  67.654  1.00  0.00    -0.202 A  
HETATM    6  C   UNL     1     -10.644  13.992  67.541  1.00  0.00    -0.260 A  
HETATM    7  C   UNL     1     -11.705  14.812  67.954  1.00  0.00    -0.367 A  
HETATM    8  C   UNL     1     -10.870  12.569  67.044  1.00  0.00    -0.287 C  
HETATM    9  C   UNL     1      -9.586  11.972  66.449  1.00  0.00    -0.228 C  
HETATM   10  C   UNL     1     -11.223  11.655  68.239  1.00  0.00    -0.320 C  
HETATM   11  C   UNL     1     -11.995  12.491  65.996  1.00  0.00    -0.456 C  
HETATM   12  C   UNL     1     -11.463  16.111  68.414  1.00  0.00    -0.298 A  
HETATM   13  O   UNL     1      -9.574  11.174  65.514  1.00  0.00    -0.209 OA 
HETATM   14  N   UNL     1      -8.456  12.293  67.178  1.00  0.00    -0.179 N  
HETATM   15  O   UNL     1      -7.030  14.036  67.646  1.00  0.00    -0.166 OA 
HETATM   16  C   UNL     1      -8.167  13.605  67.483  1.00  0.00    -0.184 C  
BRANCH  14  17
HETATM   17  C   UNL     1      -7.461  11.269  67.401  1.00  0.00    -0.116 C  
BRANCH  17  18
HETATM   18  C   UNL     1      -7.225  10.831  68.847  1.00  0.00    -0.088 C  
BRANCH  18  19
HETATM   19  C   UNL     1      -7.540   9.357  69.039  1.00  0.00    -0.074 A  
HETATM   20  C   UNL     1      -6.626   8.348  68.688  1.00  0.00    -0.055 A  
HETATM   21  C   UNL     1      -6.958   7.000  68.815  1.00  0.00    -0.079 A  
HETATM   22  C   UNL     1      -8.201   6.648  69.330  1.00  0.00    -0.124 A  
HETATM   23  C   UNL     1      -8.777   8.981  69.583  1.00  0.00    -0.143 A  
HETATM   24  C   UNL     1      -9.113   7.631  69.716  1.00  0.00    -0.147 A  
BRANCH  22  25
HETATM   25  S   UNL     1      -8.629   4.931  69.442  1.00  0.00    -0.087 S  
HETATM   26  O   UNL     1      -9.941   4.800  70.040  1.00  0.00    -0.215 OA 
HETATM   27  O   UNL     1      -8.347   4.331  68.154  1.00  0.00    -0.092 OA 
BRANCH  25  28
HETATM   28  N   UNL     1      -7.478   4.317  70.468  1.00  0.00    -0.048 N  
HETATM   29  H   UNL     1      -6.581   4.041  70.067  1.00  0.00     0.000 HD 
BRANCH  28  30
HETATM   30  C   UNL     1      -7.651   4.154  71.829  1.00  0.00    -0.066 C  
HETATM   31  O   UNL     1      -7.325   3.151  72.443  1.00  0.00    -0.045 OA 
BRANCH  30  32
HETATM   32  N   UNL     1      -8.234   5.240  72.404  1.00  0.00    -0.117 N  
HETATM   33  H   UNL     1      -9.042   5.669  71.954  1.00  0.00     0.000 HD 
BRANCH  32  34
HETATM   34  C   UNL     1      -7.730   5.805  73.651  1.00  0.00    -0.101 C  
HETATM   35  C   UNL     1      -6.300   6.336  73.488  1.00  0.00    -0.065 C  
HETATM   36  C   UNL     1      -6.249   7.542  72.552  1.00  0.00    -0.047 C  
HETATM   37  C   UNL     1      -7.211   8.646  72.985  1.00  0.00     0.038 C  
HETATM   38  C   UNL     1      -8.631   8.141  73.237  1.00  0.00    -0.308 C  
HETATM   39  C   UNL     1      -8.654   6.918  74.153  1.00  0.00    -0.181 C  
ENDBRANCH  32  34
ENDBRANCH  30  32
ENDBRANCH  28  30
ENDBRANCH  25  28
ENDBRANCH  22  25
ENDBRANCH  18  19
ENDBRANCH  17  18
ENDBRANCH  14  17
ENDBRANCH   2   3
TORSDOF 9
ENDMDL
MODEL      173
REMARK 921   NORMALIZED FREE ENERGY PREDICTED BY IDOCK:   -4.48 KCAL/MOL
REMARK 922        TOTAL FREE ENERGY PREDICTED BY IDOCK:   -8.98 KCAL/MOL
REMARK 923 INTER-LIGAND FREE ENERGY PREDICTED BY IDOCK:   -6.73 KCAL/MOL
REMARK 924 INTRA-LIGAND FREE ENERGY PREDICTED BY IDOCK:   -2.25 KCAL/MOL
REMARK 927      BINDING AFFINITY PREDICTED BY RF-SCORE:    0.00 PKD
ROOT
HETATM    1  C   UNL     1     -10.543   3.895  64.578  1.00  0.00    -0.185 C  
HETATM    2  O   UNL     1      -9.566   3.647  65.586  1.00  0.00    -0.171 OA 
ENDROOT
BRANCH   2   3
HETATM    3  C   UNL     1      -9.700   4.390  66.726  1.00  0.00    -0.215 A  
HETATM    4  C   UNL     1      -8.910   4.254  67.861  1.00  0.00    -0.128 A  
HETATM    5  C   UNL     1      -9.109   5.102  68.959  1.00  0.00    -0.137 A  
HETATM    6  C   UNL     1     -10.133   6.063  68.963  1.00  0.00    -0.223 A  
HETATM    7  C   UNL     1     -10.896   6.214  67.795  1.00  0.00    -0.413 A  
HETATM    8  C   UNL     1     -10.349   6.947  70.186  1.00  0.00    -0.218 C  
HETATM    9  C   UNL     1      -9.549   6.435  71.394  1.00  0.00    -0.162 C  
HETATM   10  C   UNL     1      -9.794   8.361  69.905  1.00  0.00    -0.186 C  
HETATM   11  C   UNL     1     -11.834   7.052  70.573  1.00  0.00    -0.337 C  
HETATM   12  C   UNL     1     -10.668   5.394  66.685  1.00  0.00    -0.309 A  
HETATM   13  O   UNL     1      -9.931   6.539  72.558  1.00  0.00    -0.170 OA 
HETATM   14  N   UNL     1      -8.283   5.998  71.054  1.00  0.00    -0.121 N  
HETATM   15  O   UNL     1      -7.175   4.270  70.015  1.00  0.00    -0.044 OA 
HETATM   16  C   UNL     1      -8.106   5.067  70.054  1.00  0.00    -0.074 C  
BRANCH  14  17
HETATM   17  C   UNL     1      -7.176   6.337  71.920  1.00  0.00    -0.087 C  
BRANCH  17  18
HETATM   18  C   UNL     1      -5.896   6.836  71.250  1.00  0.00    -0.036 C  
BRANCH  18  19
HETATM   19  C   UNL     1      -6.152   8.088  70.426  1.00  0.00    -0.029 A  
HETATM   20  C   UNL     1      -6.348   9.344  71.025  1.00  0.00    -0.082 A  
HETATM   21  C   UNL     1      -6.642  10.470  70.256  1.00  0.00    -0.138 A  
HETATM   22  C   UNL     1      -6.708  10.353  68.872  1.00  0.00    -0.058 A  
HETATM   23  C   UNL     1      -6.196   7.997  69.028  1.00  0.00    -0.039 A  
HETATM   24  C   UNL     1      -6.487   9.122  68.252  1.00  0.00    -0.055 A  
BRANCH  22  25
HETATM   25  S   UNL     1      -7.130  11.780  67.909  1.00  0.00    -0.096 S  
HETATM   26  O   UNL     1      -6.077  12.766  68.023  1.00  0.00    -0.076 OA 
HETATM   27  O   UNL     1      -7.558  11.312  66.606  1.00  0.00    -0.146 OA 
BRANCH  25  28
HETATM   28  N   UNL     1      -8.510  12.342  68.642  1.00  0.00    -0.350 N  
HETATM   29  H   UNL     1      -8.403  12.940  69.462  1.00  0.00     0.000 HD 
BRANCH  28  30
HETATM   30  C   UNL     1      -9.792  12.055  68.218  1.00  0.00    -0.204 C  
HETATM   31  O   UNL     1     -10.123  11.979  67.046  1.00  0.00    -0.202 OA 
BRANCH  30  32
HETATM   32  N   UNL     1     -10.647  11.872  69.261  1.00  0.00    -0.437 N  
HETATM   33  H   UNL     1     -10.273  11.611  70.173  1.00  0.00     0.000 HD 
BRANCH  32  34
HETATM   34  C   UNL     1     -12.088  12.043  69.105  1.00  0.00    -0.183 C  
HETATM   35  C   UNL     1     -12.866  10.968  69.873  1.00  0.00     0.030 C  
HETATM   36  C   UNL     1     -12.693  11.116  71.384  1.00  0.00    -0.524 C  
HETATM   37  C   UNL     1     -13.049  12.519  71.868  1.00  0.00    -0.473 C  
HETATM   38  C   UNL     1     -12.356  13.624  71.072  1.00  0.00    -0.436 C  
HETATM   39  C   UNL     1     -12.519  13.439  69.564  1.00  0.00    -0.018 C  
ENDBRANCH  32  34
ENDBRANCH  30  32
ENDBRANCH  28  30
ENDBRANCH  25  28
ENDBRANCH  22  25
ENDBRANCH  18  19
ENDBRANCH  17  18
ENDBRANCH  14  17
ENDBRANCH   2   3
TORSDOF 9
ENDMDL
MODEL      174
REMARK 921   NORMALIZED FREE ENERGY PREDICTED BY IDOCK:   -4.47 KCAL/MOL
REMARK 922        TOTAL FREE ENERGY PREDICTED BY IDOCK:   -8.97 KCAL/MOL
REMARK 923 INTER-LIGAND FREE ENERGY PREDICTED BY IDOCK:   -7.24 KCAL/MOL
REMARK 924 INTRA-LIGAND FREE ENERGY PREDICTED BY IDOCK:   -1.73 KCAL/MOL
REMARK 927      BINDING AFFINITY PREDICTED BY RF-SCORE:    0.00 PKD
ROOT
HETATM    1  C   UNL     1     -10.718   4.206  64.824  1.00  0.00    -0.125 C  
HETATM    2  O   UNL     1      -9.615   4.367  65.712  1.00  0.00    -0.157 OA 
ENDROOT
BRANCH   2   3
HETATM    3  C   UNL     1      -9.928   4.850  66.952  1.00  0.00    -0.217 A  
HETATM    4  C   UNL     1      -9.452   4.332  68.150  1.00  0.00    -0.213 A  
HETATM    5  C   UNL     1      -9.804   4.938  69.364  1.00  0.00    -0.281 A  
HETATM    6  C   UNL     1     -10.678   6.036  69.405  1.00  0.00    -0.403 A  
HETATM    7  C   UNL     1     -11.118   6.571  68.185  1.00  0.00    -0.332 A  
HETATM    8  C   UNL     1     -11.072   6.650  70.744  1.00  0.00    -0.336 C  
HETATM    9  C   UNL     1     -10.648   5.754  71.918  1.00  0.00    -0.232 C  
HETATM   10  C   UNL     1     -10.302   7.974  70.950  1.00  0.00    -0.221 C  
HETATM   11  C   UNL     1     -12.583   6.922  70.837  1.00  0.00    -0.257 C  
HETATM   12  C   UNL     1     -10.731   5.990  66.973  1.00  0.00    -0.412 A  
HETATM   13  O   UNL     1     -11.280   5.662  72.968  1.00  0.00    -0.280 OA 
HETATM   14  N   UNL     1      -9.398   5.191  71.740  1.00  0.00    -0.144 N  
HETATM   15  O   UNL     1      -8.289   3.572  70.541  1.00  0.00    -0.059 OA 
HETATM   16  C   UNL     1      -9.101   4.489  70.593  1.00  0.00    -0.119 C  
BRANCH  14  17
HETATM   17  C   UNL     1      -8.497   5.134  72.869  1.00  0.00    -0.116 C  
BRANCH  17  18
HETATM   18  C   UNL     1      -7.061   5.605  72.637  1.00  0.00    -0.089 C  
BRANCH  18  19
HETATM   19  C   UNL     1      -7.023   6.888  71.822  1.00  0.00    -0.070 A  
HETATM   20  C   UNL     1      -7.182   8.152  72.417  1.00  0.00    -0.119 A  
HETATM   21  C   UNL     1      -7.205   9.313  71.646  1.00  0.00     0.187 A  
HETATM   22  C   UNL     1      -7.033   9.222  70.269  1.00  0.00    -0.076 A  
HETATM   23  C   UNL     1      -6.824   6.821  70.436  1.00  0.00    -0.062 A  
HETATM   24  C   UNL     1      -6.842   7.982  69.659  1.00  0.00    -0.042 A  
BRANCH  22  25
HETATM   25  S   UNL     1      -7.112  10.700  69.294  1.00  0.00    -0.120 S  
HETATM   26  O   UNL     1      -6.422  11.769  69.984  1.00  0.00    -0.127 OA 
HETATM   27  O   UNL     1      -6.743  10.344  67.939  1.00  0.00    -0.065 OA 
BRANCH  25  28
HETATM   28  N   UNL     1      -8.738  11.028  69.229  1.00  0.00    -0.380 N  
HETATM   29  H   UNL     1      -9.188  11.376  70.076  1.00  0.00     0.000 HD 
BRANCH  28  30
HETATM   30  C   UNL     1      -9.524  10.863  68.105  1.00  0.00    -0.165 C  
HETATM   31  O   UNL     1      -9.619   9.815  67.486  1.00  0.00    -0.145 OA 
BRANCH  30  32
HETATM   32  N   UNL     1     -10.175  12.008  67.763  1.00  0.00    -0.198 N  
HETATM   33  H   UNL     1     -10.220  12.775  68.433  1.00  0.00     0.000 HD 
BRANCH  32  34
HETATM   34  C   UNL     1     -10.812  12.163  66.460  1.00  0.00    -0.270 C  
HETATM   35  C   UNL     1     -12.151  12.901  66.575  1.00  0.00    -0.375 C  
HETATM   36  C   UNL     1     -11.961  14.353  67.007  1.00  0.00    -0.424 C  
HETATM   37  C   UNL     1     -10.986  15.100  66.100  1.00  0.00    -0.331 C  
HETATM   38  C   UNL     1      -9.667  14.356  65.893  1.00  0.00    -0.305 C  
HETATM   39  C   UNL     1      -9.884  12.898  65.489  1.00  0.00    -0.159 C  
ENDBRANCH  32  34
ENDBRANCH  30  32
ENDBRANCH  28  30
ENDBRANCH  25  28
ENDBRANCH  22  25
ENDBRANCH  18  19
ENDBRANCH  17  18
ENDBRANCH  14  17
ENDBRANCH   2   3
TORSDOF 9
ENDMDL
MODEL      175
REMARK 921   NORMALIZED FREE ENERGY PREDICTED BY IDOCK:   -4.46 KCAL/MOL
REMARK 922        TOTAL FREE ENERGY PREDICTED BY IDOCK:   -8.96 KCAL/MOL
REMARK 923 INTER-LIGAND FREE ENERGY PREDICTED BY IDOCK:   -6.75 KCAL/MOL
REMARK 924 INTRA-LIGAND FREE ENERGY PREDICTED BY IDOCK:   -2.20 KCAL/MOL
REMARK 927      BINDING AFFINITY PREDICTED BY RF-SCORE:    0.00 PKD
ROOT
HETATM    1  C   UNL     1      -9.129  19.150  66.287  1.00  0.00    -0.310 C  
HETATM    2  O   UNL     1      -8.117  18.301  65.751  1.00  0.00    -0.513 OA 
ENDROOT
BRANCH   2   3
HETATM    3  C   UNL     1      -8.114  17.021  66.231  1.00  0.00    -0.297 A  
HETATM    4  C   UNL     1      -9.182  16.136  66.143  1.00  0.00    -0.382 A  
HETATM    5  C   UNL     1      -9.051  14.829  66.631  1.00  0.00    -0.300 A  
HETATM    6  C   UNL     1      -7.871  14.400  67.261  1.00  0.00    -0.188 A  
HETATM    7  C   UNL     1      -6.789  15.292  67.306  1.00  0.00    -0.108 A  
HETATM    8  C   UNL     1      -7.772  12.983  67.815  1.00  0.00    -0.151 C  
HETATM    9  C   UNL     1      -9.145  12.296  67.846  1.00  0.00    -0.190 C  
HETATM   10  C   UNL     1      -6.910  12.118  66.867  1.00  0.00     0.004 C  
HETATM   11  C   UNL     1      -7.160  12.952  69.227  1.00  0.00     0.104 C  
HETATM   12  C   UNL     1      -6.909  16.583  66.781  1.00  0.00    -0.225 A  
HETATM   13  O   UNL     1      -9.480  11.479  68.701  1.00  0.00    -0.188 OA 
HETATM   14  N   UNL     1      -9.905  12.562  66.722  1.00  0.00    -0.224 N  
HETATM   15  O   UNL     1     -11.133  14.224  65.711  1.00  0.00    -0.300 OA 
HETATM   16  C   UNL     1     -10.132  13.860  66.320  1.00  0.00    -0.300 C  
BRANCH  14  17
HETATM   17  C   UNL     1     -10.659  11.484  66.123  1.00  0.00    -0.266 C  
BRANCH  17  18
HETATM   18  C   UNL     1      -9.868  10.431  65.346  1.00  0.00    -0.347 C  
BRANCH  18  19
HETATM   19  C   UNL     1      -9.614   9.193  66.190  1.00  0.00    -0.333 A  
HETATM   20  C   UNL     1     -10.645   8.549  66.896  1.00  0.00    -0.279 A  
HETATM   21  C   UNL     1     -10.381   7.452  67.714  1.00  0.00    -0.273 A  
HETATM   22  C   UNL     1      -9.081   6.965  67.806  1.00  0.00    -0.118 A  
HETATM   23  C   UNL     1      -8.316   8.671  66.275  1.00  0.00    -0.124 A  
HETATM   24  C   UNL     1      -8.046   7.569  67.091  1.00  0.00    -0.118 A  
BRANCH  22  25
HETATM   25  S   UNL     1      -8.750   5.599  68.886  1.00  0.00    -0.106 S  
HETATM   26  O   UNL     1      -8.197   6.092  70.130  1.00  0.00    -0.116 OA 
HETATM   27  O   UNL     1      -9.929   4.757  68.891  1.00  0.00    -0.171 OA 
BRANCH  25  28
HETATM   28  N   UNL     1      -7.600   4.731  68.063  1.00  0.00    -0.081 N  
HETATM   29  H   UNL     1      -6.731   5.205  67.817  1.00  0.00     0.000 HD 
BRANCH  28  30
HETATM   30  C   UNL     1      -7.740   3.409  67.687  1.00  0.00    -0.073 C  
HETATM   31  O   UNL     1      -7.216   2.474  68.270  1.00  0.00    -0.047 OA 
BRANCH  30  32
HETATM   32  N   UNL     1      -8.525   3.271  66.584  1.00  0.00    -0.102 N  
HETATM   33  H   UNL     1      -9.253   2.557  66.577  1.00  0.00     0.000 HD 
BRANCH  32  34
HETATM   34  C   UNL     1      -8.350   4.121  65.412  1.00  0.00    -0.109 C  
HETATM   35  C   UNL     1      -7.690   3.355  64.258  1.00  0.00    -0.077 C  
HETATM   36  C   UNL     1      -8.601   2.255  63.716  1.00  0.00    -0.085 C  
HETATM   37  C   UNL     1      -9.975   2.789  63.321  1.00  0.00    -0.112 C  
HETATM   38  C   UNL     1     -10.632   3.628  64.416  1.00  0.00    -0.162 C  
HETATM   39  C   UNL     1      -9.693   4.703  64.961  1.00  0.00    -0.087 C  
ENDBRANCH  32  34
ENDBRANCH  30  32
ENDBRANCH  28  30
ENDBRANCH  25  28
ENDBRANCH  22  25
ENDBRANCH  18  19
ENDBRANCH  17  18
ENDBRANCH  14  17
ENDBRANCH   2   3
TORSDOF 9
ENDMDL
MODEL      176
REMARK 921   NORMALIZED FREE ENERGY PREDICTED BY IDOCK:   -4.45 KCAL/MOL
REMARK 922        TOTAL FREE ENERGY PREDICTED BY IDOCK:   -8.95 KCAL/MOL
REMARK 923 INTER-LIGAND FREE ENERGY PREDICTED BY IDOCK:   -7.54 KCAL/MOL
REMARK 924 INTRA-LIGAND FREE ENERGY PREDICTED BY IDOCK:   -1.41 KCAL/MOL
REMARK 927      BINDING AFFINITY PREDICTED BY RF-SCORE:    0.00 PKD
ROOT
HETATM    1  C   UNL     1      -6.052  17.212  69.628  1.00  0.00    -0.241 C  
HETATM    2  O   UNL     1      -6.089  16.195  68.631  1.00  0.00    -0.109 OA 
ENDROOT
BRANCH   2   3
HETATM    3  C   UNL     1      -7.297  15.575  68.473  1.00  0.00    -0.120 A  
HETATM    4  C   UNL     1      -7.470  14.208  68.292  1.00  0.00    -0.125 A  
HETATM    5  C   UNL     1      -8.762  13.674  68.186  1.00  0.00    -0.177 A  
HETATM    6  C   UNL     1      -9.897  14.500  68.204  1.00  0.00    -0.223 A  
HETATM    7  C   UNL     1      -9.707  15.872  68.428  1.00  0.00    -0.214 A  
HETATM    8  C   UNL     1     -11.287  13.894  68.049  1.00  0.00    -0.317 C  
HETATM    9  C   UNL     1     -11.212  12.428  67.596  1.00  0.00    -0.288 C  
HETATM   10  C   UNL     1     -11.989  13.854  69.425  1.00  0.00    -0.402 C  
HETATM   11  C   UNL     1     -12.159  14.684  67.058  1.00  0.00    -0.214 C  
HETATM   12  C   UNL     1      -8.418  16.397  68.575  1.00  0.00    -0.211 A  
HETATM   13  O   UNL     1     -12.048  11.895  66.869  1.00  0.00    -0.599 OA 
HETATM   14  N   UNL     1     -10.200  11.723  68.222  1.00  0.00    -0.199 N  
HETATM   15  O   UNL     1      -7.914  11.478  68.264  1.00  0.00    -0.126 OA 
HETATM   16  C   UNL     1      -8.906  12.196  68.214  1.00  0.00    -0.182 C  
BRANCH  14  17
HETATM   17  C   UNL     1     -10.467  10.374  68.665  1.00  0.00    -0.196 C  
BRANCH  17  18
HETATM   18  C   UNL     1     -11.462  10.202  69.812  1.00  0.00    -0.288 C  
BRANCH  18  19
HETATM   19  C   UNL     1     -11.152   8.962  70.636  1.00  0.00    -0.306 A  
HETATM   20  C   UNL     1     -10.893   7.717  70.036  1.00  0.00    -0.243 A  
HETATM   21  C   UNL     1     -10.671   6.579  70.810  1.00  0.00    -0.290 A  
HETATM   22  C   UNL     1     -10.670   6.684  72.196  1.00  0.00    -0.218 A  
HETATM   23  C   UNL     1     -11.120   9.053  72.034  1.00  0.00    -0.371 A  
HETATM   24  C   UNL     1     -10.894   7.915  72.814  1.00  0.00    -0.451 A  
BRANCH  22  25
HETATM   25  S   UNL     1     -10.434   5.221  73.169  1.00  0.00    -0.234 S  
HETATM   26  O   UNL     1     -10.722   5.513  74.557  1.00  0.00    -0.259 OA 
HETATM   27  O   UNL     1     -11.116   4.137  72.491  1.00  0.00     0.033 OA 
BRANCH  25  28
HETATM   28  N   UNL     1      -8.816   4.897  72.985  1.00  0.00    -0.113 N  
HETATM   29  H   UNL     1      -8.165   5.682  73.032  1.00  0.00     0.000 HD 
BRANCH  28  30
HETATM   30  C   UNL     1      -8.290   3.638  72.772  1.00  0.00    -0.086 C  
HETATM   31  O   UNL     1      -8.337   2.732  73.588  1.00  0.00    -0.070 OA 
BRANCH  30  32
HETATM   32  N   UNL     1      -7.708   3.527  71.547  1.00  0.00    -0.055 N  
HETATM   33  H   UNL     1      -7.045   4.241  71.243  1.00  0.00     0.000 HD 
BRANCH  32  34
HETATM   34  C   UNL     1      -8.009   2.410  70.658  1.00  0.00    -0.042 C  
HETATM   35  C   UNL     1      -9.394   2.563  70.017  1.00  0.00    -0.186 C  
HETATM   36  C   UNL     1      -9.446   3.751  69.059  1.00  0.00    -0.233 C  
HETATM   37  C   UNL     1      -8.345   3.687  68.004  1.00  0.00    -0.101 C  
HETATM   38  C   UNL     1      -6.956   3.454  68.597  1.00  0.00    -0.049 C  
HETATM   39  C   UNL     1      -6.936   2.278  69.574  1.00  0.00    -0.033 C  
ENDBRANCH  32  34
ENDBRANCH  30  32
ENDBRANCH  28  30
ENDBRANCH  25  28
ENDBRANCH  22  25
ENDBRANCH  18  19
ENDBRANCH  17  18
ENDBRANCH  14  17
ENDBRANCH   2   3
TORSDOF 9
ENDMDL
MODEL      177
REMARK 921   NORMALIZED FREE ENERGY PREDICTED BY IDOCK:   -4.45 KCAL/MOL
REMARK 922        TOTAL FREE ENERGY PREDICTED BY IDOCK:   -8.94 KCAL/MOL
REMARK 923 INTER-LIGAND FREE ENERGY PREDICTED BY IDOCK:   -7.24 KCAL/MOL
REMARK 924 INTRA-LIGAND FREE ENERGY PREDICTED BY IDOCK:   -1.71 KCAL/MOL
REMARK 927      BINDING AFFINITY PREDICTED BY RF-SCORE:    0.00 PKD
ROOT
HETATM    1  C   UNL     1     -14.322   8.614  72.201  1.00  0.00    -0.427 C  
HETATM    2  O   UNL     1     -13.340   9.576  72.580  1.00  0.00    -0.418 OA 
ENDROOT
BRANCH   2   3
HETATM    3  C   UNL     1     -12.669  10.165  71.546  1.00  0.00    -0.436 A  
HETATM    4  C   UNL     1     -11.753   9.521  70.722  1.00  0.00    -0.370 A  
HETATM    5  C   UNL     1     -11.157  10.215  69.661  1.00  0.00    -0.308 A  
HETATM    6  C   UNL     1     -11.423  11.575  69.436  1.00  0.00    -0.376 A  
HETATM    7  C   UNL     1     -12.379  12.200  70.251  1.00  0.00    -0.269 A  
HETATM    8  C   UNL     1     -10.731  12.312  68.295  1.00  0.00    -0.244 C  
HETATM    9  C   UNL     1      -9.580  11.481  67.709  1.00  0.00    -0.175 C  
HETATM   10  C   UNL     1     -11.724  12.505  67.128  1.00  0.00    -0.425 C  
HETATM   11  C   UNL     1     -10.189  13.684  68.734  1.00  0.00    -0.155 C  
HETATM   12  C   UNL     1     -13.005  11.494  71.284  1.00  0.00    -0.397 A  
HETATM   13  O   UNL     1      -8.550  11.971  67.249  1.00  0.00    -0.162 OA 
HETATM   14  N   UNL     1      -9.889  10.139  67.596  1.00  0.00    -0.167 N  
HETATM   15  O   UNL     1     -10.183   8.231  68.847  1.00  0.00    -0.202 OA 
HETATM   16  C   UNL     1     -10.359   9.433  68.682  1.00  0.00    -0.203 C  
BRANCH  14  17
HETATM   17  C   UNL     1      -9.481   9.431  66.404  1.00  0.00    -0.201 C  
BRANCH  17  18
HETATM   18  C   UNL     1      -8.105   8.766  66.426  1.00  0.00    -0.103 C  
BRANCH  18  19
HETATM   19  C   UNL     1      -8.205   7.272  66.168  1.00  0.00    -0.131 A  
HETATM   20  C   UNL     1      -7.081   6.498  65.830  1.00  0.00    -0.062 A  
HETATM   21  C   UNL     1      -7.204   5.140  65.537  1.00  0.00    -0.068 A  
HETATM   22  C   UNL     1      -8.454   4.535  65.615  1.00  0.00    -0.116 A  
HETATM   23  C   UNL     1      -9.451   6.637  66.267  1.00  0.00    -0.120 A  
HETATM   24  C   UNL     1      -9.579   5.275  65.978  1.00  0.00    -0.166 A  
BRANCH  22  25
HETATM   25  S   UNL     1      -8.604   2.819  65.194  1.00  0.00    -0.110 S  
HETATM   26  O   UNL     1      -9.864   2.599  64.516  1.00  0.00    -0.123 OA 
HETATM   27  O   UNL     1      -7.358   2.415  64.575  1.00  0.00    -0.056 OA 
BRANCH  25  28
HETATM   28  N   UNL     1      -8.620   2.063  66.672  1.00  0.00    -0.105 N  
HETATM   29  H   UNL     1      -9.317   1.336  66.827  1.00  0.00     0.000 HD 
BRANCH  28  30
HETATM   30  C   UNL     1      -7.751   2.353  67.706  1.00  0.00    -0.060 C  
HETATM   31  O   UNL     1      -6.540   2.218  67.639  1.00  0.00    -0.034 OA 
BRANCH  30  32
HETATM   32  N   UNL     1      -8.404   2.800  68.813  1.00  0.00    -0.062 N  
HETATM   33  H   UNL     1      -9.319   2.411  69.043  1.00  0.00     0.000 HD 
BRANCH  32  34
HETATM   34  C   UNL     1      -7.826   3.822  69.679  1.00  0.00    -0.051 C  
HETATM   35  C   UNL     1      -8.543   5.168  69.512  1.00  0.00    -0.099 C  
HETATM   36  C   UNL     1      -9.984   5.107  70.016  1.00  0.00    -0.326 C  
HETATM   37  C   UNL     1     -10.069   4.600  71.454  1.00  0.00    -0.248 C  
HETATM   38  C   UNL     1      -9.298   3.301  71.680  1.00  0.00    -0.207 C  
HETATM   39  C   UNL     1      -7.869   3.377  71.143  1.00  0.00    -0.054 C  
ENDBRANCH  32  34
ENDBRANCH  30  32
ENDBRANCH  28  30
ENDBRANCH  25  28
ENDBRANCH  22  25
ENDBRANCH  18  19
ENDBRANCH  17  18
ENDBRANCH  14  17
ENDBRANCH   2   3
TORSDOF 9
ENDMDL
MODEL      178
REMARK 921   NORMALIZED FREE ENERGY PREDICTED BY IDOCK:   -4.44 KCAL/MOL
REMARK 922        TOTAL FREE ENERGY PREDICTED BY IDOCK:   -8.93 KCAL/MOL
REMARK 923 INTER-LIGAND FREE ENERGY PREDICTED BY IDOCK:   -6.79 KCAL/MOL
REMARK 924 INTRA-LIGAND FREE ENERGY PREDICTED BY IDOCK:   -2.14 KCAL/MOL
REMARK 927      BINDING AFFINITY PREDICTED BY RF-SCORE:    0.00 PKD
ROOT
HETATM    1  C   UNL     1     -12.645  12.207  63.493  1.00  0.00    -0.506 C  
HETATM    2  O   UNL     1     -12.195  12.936  64.632  1.00  0.00    -0.388 OA 
ENDROOT
BRANCH   2   3
HETATM    3  C   UNL     1     -11.109  12.408  65.273  1.00  0.00    -0.303 A  
HETATM    4  C   UNL     1     -10.473  11.225  64.916  1.00  0.00    -0.375 A  
HETATM    5  C   UNL     1      -9.338  10.800  65.619  1.00  0.00    -0.241 A  
HETATM    6  C   UNL     1      -8.851  11.520  66.723  1.00  0.00    -0.183 A  
HETATM    7  C   UNL     1      -9.481  12.731  67.046  1.00  0.00    -0.233 A  
HETATM    8  C   UNL     1      -7.636  11.013  67.491  1.00  0.00    -0.106 C  
HETATM    9  C   UNL     1      -7.279   9.574  67.089  1.00  0.00    -0.087 C  
HETATM   10  C   UNL     1      -6.397  11.855  67.111  1.00  0.00    -0.151 C  
HETATM   11  C   UNL     1      -7.844  11.074  69.014  1.00  0.00    -0.126 C  
HETATM   12  C   UNL     1     -10.589  13.174  66.316  1.00  0.00    -0.292 A  
HETATM   13  O   UNL     1      -6.798   8.749  67.863  1.00  0.00    -0.068 OA 
HETATM   14  N   UNL     1      -7.399   9.350  65.730  1.00  0.00    -0.094 N  
HETATM   15  O   UNL     1      -8.961   9.071  64.065  1.00  0.00    -0.100 OA 
HETATM   16  C   UNL     1      -8.567   9.657  65.068  1.00  0.00    -0.162 C  
BRANCH  14  17
HETATM   17  C   UNL     1      -6.383   8.566  65.065  1.00  0.00    -0.060 C  
BRANCH  17  18
HETATM   18  C   UNL     1      -6.806   7.206  64.510  1.00  0.00    -0.050 C  
BRANCH  18  19
HETATM   19  C   UNL     1      -7.147   6.233  65.627  1.00  0.00    -0.065 A  
HETATM   20  C   UNL     1      -8.476   5.946  65.984  1.00  0.00    -0.137 A  
HETATM   21  C   UNL     1      -8.767   5.098  67.052  1.00  0.00    -0.103 A  
HETATM   22  C   UNL     1      -7.726   4.499  67.752  1.00  0.00    -0.081 A  
HETATM   23  C   UNL     1      -6.112   5.598  66.329  1.00  0.00    -0.033 A  
HETATM   24  C   UNL     1      -6.399   4.744  67.398  1.00  0.00    -0.040 A  
BRANCH  22  25
HETATM   25  S   UNL     1      -8.109   3.461  69.137  1.00  0.00    -0.056 S  
HETATM   26  O   UNL     1      -8.145   2.079  68.708  1.00  0.00    -0.051 OA 
HETATM   27  O   UNL     1      -7.250   3.866  70.231  1.00  0.00    -0.041 OA 
BRANCH  25  28
HETATM   28  N   UNL     1      -9.632   3.955  69.576  1.00  0.00    -0.193 N  
HETATM   29  H   UNL     1     -10.413   3.672  68.984  1.00  0.00     0.000 HD 
BRANCH  28  30
HETATM   30  C   UNL     1      -9.913   4.724  70.688  1.00  0.00    -0.230 C  
HETATM   31  O   UNL     1     -10.314   4.270  71.748  1.00  0.00    -0.145 OA 
BRANCH  30  32
HETATM   32  N   UNL     1      -9.698   6.048  70.463  1.00  0.00    -0.171 N  
HETATM   33  H   UNL     1      -8.827   6.473  70.781  1.00  0.00     0.000 HD 
BRANCH  32  34
HETATM   34  C   UNL     1     -10.684   6.875  69.776  1.00  0.00    -0.244 C  
HETATM   35  C   UNL     1     -12.027   6.876  70.517  1.00  0.00    -0.358 C  
HETATM   36  C   UNL     1     -11.923   7.571  71.874  1.00  0.00    -0.335 C  
HETATM   37  C   UNL     1     -11.347   8.980  71.755  1.00  0.00    -0.447 C  
HETATM   38  C   UNL     1     -10.048   9.033  70.952  1.00  0.00    -0.329 C  
HETATM   39  C   UNL     1     -10.169   8.307  69.612  1.00  0.00    -0.209 C  
ENDBRANCH  32  34
ENDBRANCH  30  32
ENDBRANCH  28  30
ENDBRANCH  25  28
ENDBRANCH  22  25
ENDBRANCH  18  19
ENDBRANCH  17  18
ENDBRANCH  14  17
ENDBRANCH   2   3
TORSDOF 9
ENDMDL
MODEL      179
REMARK 921   NORMALIZED FREE ENERGY PREDICTED BY IDOCK:   -4.44 KCAL/MOL
REMARK 922        TOTAL FREE ENERGY PREDICTED BY IDOCK:   -8.93 KCAL/MOL
REMARK 923 INTER-LIGAND FREE ENERGY PREDICTED BY IDOCK:   -7.63 KCAL/MOL
REMARK 924 INTRA-LIGAND FREE ENERGY PREDICTED BY IDOCK:   -1.29 KCAL/MOL
REMARK 927      BINDING AFFINITY PREDICTED BY RF-SCORE:    0.00 PKD
ROOT
HETATM    1  C   UNL     1      -5.573  20.502  69.939  1.00  0.00    -0.346 C  
HETATM    2  O   UNL     1      -5.269  19.544  68.928  1.00  0.00    -0.187 OA 
ENDROOT
BRANCH   2   3
HETATM    3  C   UNL     1      -6.349  18.913  68.377  1.00  0.00    -0.227 A  
HETATM    4  C   UNL     1      -6.346  17.612  67.889  1.00  0.00    -0.171 A  
HETATM    5  C   UNL     1      -7.527  17.049  67.385  1.00  0.00    -0.184 A  
HETATM    6  C   UNL     1      -8.716  17.793  67.311  1.00  0.00    -0.241 A  
HETATM    7  C   UNL     1      -8.712  19.091  67.845  1.00  0.00    -0.333 A  
HETATM    8  C   UNL     1      -9.975  17.165  66.724  1.00  0.00    -0.291 C  
HETATM    9  C   UNL     1      -9.662  15.840  66.014  1.00  0.00    -0.345 C  
HETATM   10  C   UNL     1     -10.945  16.790  67.867  1.00  0.00    -0.260 C  
HETATM   11  C   UNL     1     -10.690  18.108  65.741  1.00  0.00    -0.102 C  
HETATM   12  C   UNL     1      -7.542  19.635  68.385  1.00  0.00    -0.362 A  
HETATM   13  O   UNL     1     -10.268  15.437  65.023  1.00  0.00    -0.357 OA 
HETATM   14  N   UNL     1      -8.742  15.068  66.698  1.00  0.00    -0.270 N  
HETATM   15  O   UNL     1      -6.503  14.935  67.210  1.00  0.00    -0.304 OA 
HETATM   16  C   UNL     1      -7.528  15.596  67.081  1.00  0.00    -0.218 C  
BRANCH  14  17
HETATM   17  C   UNL     1      -8.963  13.642  66.787  1.00  0.00    -0.181 C  
BRANCH  17  18
HETATM   18  C   UNL     1     -10.023  13.163  67.778  1.00  0.00    -0.227 C  
BRANCH  18  19
HETATM   19  C   UNL     1      -9.991  11.651  67.937  1.00  0.00    -0.190 A  
HETATM   20  C   UNL     1      -9.388  10.815  66.980  1.00  0.00    -0.174 A  
HETATM   21  C   UNL     1      -9.423   9.428  67.113  1.00  0.00    -0.185 A  
HETATM   22  C   UNL     1     -10.035   8.863  68.227  1.00  0.00    -0.175 A  
HETATM   23  C   UNL     1     -10.579  11.063  69.066  1.00  0.00    -0.258 A  
HETATM   24  C   UNL     1     -10.613   9.673  69.205  1.00  0.00    -0.236 A  
BRANCH  22  25
HETATM   25  S   UNL     1     -10.115   7.097  68.359  1.00  0.00    -0.173 S  
HETATM   26  O   UNL     1      -9.809   6.702  69.718  1.00  0.00    -0.161 OA 
HETATM   27  O   UNL     1     -11.350   6.673  67.733  1.00  0.00    -0.227 OA 
BRANCH  25  28
HETATM   28  N   UNL     1      -8.912   6.583  67.338  1.00  0.00    -0.111 N  
HETATM   29  H   UNL     1      -7.997   7.026  67.419  1.00  0.00     0.000 HD 
BRANCH  28  30
HETATM   30  C   UNL     1      -9.065   5.595  66.385  1.00  0.00    -0.147 C  
HETATM   31  O   UNL     1      -9.308   4.427  66.645  1.00  0.00    -0.137 OA 
BRANCH  30  32
HETATM   32  N   UNL     1      -8.908   6.074  65.121  1.00  0.00    -0.359 N  
HETATM   33  H   UNL     1      -9.473   6.866  64.814  1.00  0.00     0.000 HD 
BRANCH  32  34
HETATM   34  C   UNL     1      -7.950   5.481  64.195  1.00  0.00    -0.120 C  
HETATM   35  C   UNL     1      -8.152   6.006  62.768  1.00  0.00    -0.097 C  
HETATM   36  C   UNL     1      -7.816   7.492  62.660  1.00  0.00    -0.133 C  
HETATM   37  C   UNL     1      -6.414   7.804  63.179  1.00  0.00    -0.067 C  
HETATM   38  C   UNL     1      -6.145   7.227  64.568  1.00  0.00    -0.037 C  
HETATM   39  C   UNL     1      -6.515   5.746  64.658  1.00  0.00    -0.037 C  
ENDBRANCH  32  34
ENDBRANCH  30  32
ENDBRANCH  28  30
ENDBRANCH  25  28
ENDBRANCH  22  25
ENDBRANCH  18  19
ENDBRANCH  17  18
ENDBRANCH  14  17
ENDBRANCH   2   3
TORSDOF 9
ENDMDL
MODEL      180
REMARK 921   NORMALIZED FREE ENERGY PREDICTED BY IDOCK:   -4.44 KCAL/MOL
REMARK 922        TOTAL FREE ENERGY PREDICTED BY IDOCK:   -8.92 KCAL/MOL
REMARK 923 INTER-LIGAND FREE ENERGY PREDICTED BY IDOCK:   -8.64 KCAL/MOL
REMARK 924 INTRA-LIGAND FREE ENERGY PREDICTED BY IDOCK:   -0.28 KCAL/MOL
REMARK 927      BINDING AFFINITY PREDICTED BY RF-SCORE:    0.00 PKD
ROOT
HETATM    1  C   UNL     1      -9.809  11.514  63.305  1.00  0.00    -0.409 C  
HETATM    2  O   UNL     1     -10.431  12.796  63.362  1.00  0.00    -0.286 OA 
ENDROOT
BRANCH   2   3
HETATM    3  C   UNL     1     -10.642  13.288  64.620  1.00  0.00    -0.404 A  
HETATM    4  C   UNL     1     -11.250  12.589  65.655  1.00  0.00    -0.352 A  
HETATM    5  C   UNL     1     -11.374  13.178  66.921  1.00  0.00    -0.355 A  
HETATM    6  C   UNL     1     -10.942  14.493  67.159  1.00  0.00    -0.304 A  
HETATM    7  C   UNL     1     -10.294  15.171  66.114  1.00  0.00    -0.313 A  
HETATM    8  C   UNL     1     -11.123  15.121  68.536  1.00  0.00    -0.281 C  
HETATM    9  C   UNL     1     -12.049  14.272  69.421  1.00  0.00    -0.318 C  
HETATM   10  C   UNL     1      -9.767  15.141  69.277  1.00  0.00    -0.225 C  
HETATM   11  C   UNL     1     -11.679  16.553  68.454  1.00  0.00     0.171 C  
HETATM   12  C   UNL     1     -10.135  14.564  64.864  1.00  0.00    -0.245 A  
HETATM   13  O   UNL     1     -12.807  14.744  70.266  1.00  0.00    -0.310 OA 
HETATM   14  N   UNL     1     -11.823  12.914  69.288  1.00  0.00    -0.314 N  
HETATM   15  O   UNL     1     -12.141  11.152  67.844  1.00  0.00    -0.627 OA 
HETATM   16  C   UNL     1     -11.827  12.320  68.045  1.00  0.00    -0.305 C  
BRANCH  14  17
HETATM   17  C   UNL     1     -11.832  12.090  70.475  1.00  0.00    -0.121 C  
BRANCH  17  18
HETATM   18  C   UNL     1     -12.551  10.745  70.383  1.00  0.00    -0.395 C  
BRANCH  18  19
HETATM   19  C   UNL     1     -11.755   9.642  71.061  1.00  0.00    -0.433 A  
HETATM   20  C   UNL     1     -12.375   8.635  71.820  1.00  0.00    -0.402 A  
HETATM   21  C   UNL     1     -11.623   7.667  72.485  1.00  0.00    -0.382 A  
HETATM   22  C   UNL     1     -10.237   7.679  72.366  1.00  0.00    -0.228 A  
HETATM   23  C   UNL     1     -10.359   9.619  70.932  1.00  0.00    -0.334 A  
HETATM   24  C   UNL     1      -9.600   8.649  71.592  1.00  0.00    -0.344 A  
BRANCH  22  25
HETATM   25  S   UNL     1      -9.290   6.472  73.254  1.00  0.00    -0.134 S  
HETATM   26  O   UNL     1      -8.852   7.035  74.514  1.00  0.00    -0.190 OA 
HETATM   27  O   UNL     1     -10.036   5.231  73.226  1.00  0.00    -0.158 OA 
BRANCH  25  28
HETATM   28  N   UNL     1      -7.980   6.213  72.267  1.00  0.00    -0.105 N  
HETATM   29  H   UNL     1      -7.484   7.030  71.910  1.00  0.00     0.000 HD 
BRANCH  28  30
HETATM   30  C   UNL     1      -7.516   4.967  71.896  1.00  0.00    -0.085 C  
HETATM   31  O   UNL     1      -6.845   4.246  72.617  1.00  0.00    -0.050 OA 
BRANCH  30  32
HETATM   32  N   UNL     1      -7.888   4.638  70.629  1.00  0.00    -0.060 N  
HETATM   33  H   UNL     1      -8.405   5.316  70.070  1.00  0.00     0.000 HD 
BRANCH  32  34
HETATM   34  C   UNL     1      -7.564   3.337  70.053  1.00  0.00    -0.044 C  
HETATM   35  C   UNL     1      -8.505   2.989  68.893  1.00  0.00    -0.098 C  
HETATM   36  C   UNL     1      -8.303   3.922  67.701  1.00  0.00    -0.097 C  
HETATM   37  C   UNL     1      -6.846   3.965  67.246  1.00  0.00    -0.051 C  
HETATM   38  C   UNL     1      -5.867   4.230  68.389  1.00  0.00    -0.026 C  
HETATM   39  C   UNL     1      -6.108   3.303  69.581  1.00  0.00    -0.024 C  
ENDBRANCH  32  34
ENDBRANCH  30  32
ENDBRANCH  28  30
ENDBRANCH  25  28
ENDBRANCH  22  25
ENDBRANCH  18  19
ENDBRANCH  17  18
ENDBRANCH  14  17
ENDBRANCH   2   3
TORSDOF 9
ENDMDL
MODEL      181
REMARK 921   NORMALIZED FREE ENERGY PREDICTED BY IDOCK:   -4.44 KCAL/MOL
REMARK 922        TOTAL FREE ENERGY PREDICTED BY IDOCK:   -8.92 KCAL/MOL
REMARK 923 INTER-LIGAND FREE ENERGY PREDICTED BY IDOCK:   -7.68 KCAL/MOL
REMARK 924 INTRA-LIGAND FREE ENERGY PREDICTED BY IDOCK:   -1.24 KCAL/MOL
REMARK 927      BINDING AFFINITY PREDICTED BY RF-SCORE:    0.00 PKD
ROOT
HETATM    1  C   UNL     1     -13.902   9.336  72.278  1.00  0.00    -0.426 C  
HETATM    2  O   UNL     1     -13.829   8.006  71.771  1.00  0.00    -0.365 OA 
ENDROOT
BRANCH   2   3
HETATM    3  C   UNL     1     -12.566   7.511  71.607  1.00  0.00    -0.348 A  
HETATM    4  C   UNL     1     -11.518   8.192  70.999  1.00  0.00    -0.301 A  
HETATM    5  C   UNL     1     -10.248   7.604  70.926  1.00  0.00    -0.202 A  
HETATM    6  C   UNL     1     -10.017   6.305  71.410  1.00  0.00    -0.210 A  
HETATM    7  C   UNL     1     -11.074   5.647  72.056  1.00  0.00    -0.291 A  
HETATM    8  C   UNL     1      -8.633   5.677  71.283  1.00  0.00    -0.128 C  
HETATM    9  C   UNL     1      -7.730   6.496  70.349  1.00  0.00    -0.098 C  
HETATM   10  C   UNL     1      -7.925   5.706  72.656  1.00  0.00    -0.102 C  
HETATM   11  C   UNL     1      -8.699   4.226  70.776  1.00  0.00    -0.125 C  
HETATM   12  C   UNL     1     -12.330   6.254  72.164  1.00  0.00    -0.193 A  
HETATM   13  O   UNL     1      -6.866   6.001  69.628  1.00  0.00    -0.060 OA 
HETATM   14  N   UNL     1      -7.872   7.860  70.524  1.00  0.00    -0.093 N  
HETATM   15  O   UNL     1      -9.313   9.605  70.110  1.00  0.00    -0.230 OA 
HETATM   16  C   UNL     1      -9.116   8.449  70.470  1.00  0.00    -0.150 C  
BRANCH  14  17
HETATM   17  C   UNL     1      -6.687   8.688  70.515  1.00  0.00    -0.040 C  
BRANCH  17  18
HETATM   18  C   UNL     1      -6.112   9.064  69.149  1.00  0.00    -0.042 C  
BRANCH  18  19
HETATM   19  C   UNL     1      -6.224  10.558  68.893  1.00  0.00    -0.043 A  
HETATM   20  C   UNL     1      -6.472  11.076  67.609  1.00  0.00    -0.060 A  
HETATM   21  C   UNL     1      -6.510  12.452  67.384  1.00  0.00    -0.154 A  
HETATM   22  C   UNL     1      -6.336  13.324  68.452  1.00  0.00    -0.086 A  
HETATM   23  C   UNL     1      -6.078  11.455  69.961  1.00  0.00    -0.145 A  
HETATM   24  C   UNL     1      -6.120  12.834  69.740  1.00  0.00    -0.131 A  
BRANCH  22  25
HETATM   25  S   UNL     1      -6.340  15.070  68.144  1.00  0.00    -0.147 S  
HETATM   26  O   UNL     1      -6.535  15.779  69.391  1.00  0.00    -0.143 OA 
HETATM   27  O   UNL     1      -5.195  15.363  67.305  1.00  0.00    -0.335 OA 
BRANCH  25  28
HETATM   28  N   UNL     1      -7.662  15.282  67.162  1.00  0.00    -0.210 N  
HETATM   29  H   UNL     1      -7.500  15.373  66.159  1.00  0.00     0.000 HD 
BRANCH  28  30
HETATM   30  C   UNL     1      -8.966  15.343  67.611  1.00  0.00    -0.181 C  
HETATM   31  O   UNL     1      -9.698  14.372  67.719  1.00  0.00    -0.215 OA 
BRANCH  30  32
HETATM   32  N   UNL     1      -9.344  16.614  67.915  1.00  0.00    -0.219 N  
HETATM   33  H   UNL     1     -10.148  16.763  68.525  1.00  0.00     0.000 HD 
BRANCH  32  34
HETATM   34  C   UNL     1      -8.627  17.769  67.387  1.00  0.00    -0.231 C  
HETATM   35  C   UNL     1      -9.437  18.482  66.297  1.00  0.00    -0.256 C  
HETATM   36  C   UNL     1     -10.701  19.127  66.862  1.00  0.00    -0.515 C  
HETATM   37  C   UNL     1     -10.395  20.059  68.033  1.00  0.00    -0.501 C  
HETATM   38  C   UNL     1      -9.520  19.411  69.104  1.00  0.00    -0.321 C  
HETATM   39  C   UNL     1      -8.277  18.748  68.511  1.00  0.00    -0.379 C  
ENDBRANCH  32  34
ENDBRANCH  30  32
ENDBRANCH  28  30
ENDBRANCH  25  28
ENDBRANCH  22  25
ENDBRANCH  18  19
ENDBRANCH  17  18
ENDBRANCH  14  17
ENDBRANCH   2   3
TORSDOF 9
ENDMDL
MODEL      182
REMARK 921   NORMALIZED FREE ENERGY PREDICTED BY IDOCK:   -4.41 KCAL/MOL
REMARK 922        TOTAL FREE ENERGY PREDICTED BY IDOCK:   -8.88 KCAL/MOL
REMARK 923 INTER-LIGAND FREE ENERGY PREDICTED BY IDOCK:   -7.04 KCAL/MOL
REMARK 924 INTRA-LIGAND FREE ENERGY PREDICTED BY IDOCK:   -1.84 KCAL/MOL
REMARK 927      BINDING AFFINITY PREDICTED BY RF-SCORE:    0.00 PKD
ROOT
HETATM    1  C   UNL     1     -12.105  15.683  64.286  1.00  0.00    -0.063 C  
HETATM    2  O   UNL     1     -12.484  14.381  63.845  1.00  0.00    -0.798 OA 
ENDROOT
BRANCH   2   3
HETATM    3  C   UNL     1     -11.884  13.343  64.501  1.00  0.00    -0.398 A  
HETATM    4  C   UNL     1     -11.246  12.274  63.883  1.00  0.00    -0.488 A  
HETATM    5  C   UNL     1     -10.624  11.286  64.658  1.00  0.00    -0.392 A  
HETATM    6  C   UNL     1     -10.674  11.321  66.062  1.00  0.00    -0.301 A  
HETATM    7  C   UNL     1     -11.286  12.427  66.670  1.00  0.00    -0.394 A  
HETATM    8  C   UNL     1     -10.019  10.212  66.878  1.00  0.00    -0.259 C  
HETATM    9  C   UNL     1      -9.624   9.022  65.990  1.00  0.00    -0.272 C  
HETATM   10  C   UNL     1      -8.690  10.727  67.475  1.00  0.00    -0.125 C  
HETATM   11  C   UNL     1     -10.927   9.714  68.015  1.00  0.00    -0.197 C  
HETATM   12  C   UNL     1     -11.870  13.433  65.893  1.00  0.00    -0.414 A  
HETATM   13  O   UNL     1      -9.637   7.853  66.371  1.00  0.00    -0.209 OA 
HETATM   14  N   UNL     1      -9.093   9.411  64.774  1.00  0.00    -0.219 N  
HETATM   15  O   UNL     1      -9.681  10.303  62.738  1.00  0.00    -0.294 OA 
HETATM   16  C   UNL     1      -9.774  10.289  63.960  1.00  0.00    -0.278 C  
BRANCH  14  17
HETATM   17  C   UNL     1      -7.946   8.699  64.259  1.00  0.00    -0.148 C  
BRANCH  17  18
HETATM   18  C   UNL     1      -8.215   7.387  63.521  1.00  0.00     0.073 C  
BRANCH  18  19
HETATM   19  C   UNL     1      -7.969   6.185  64.419  1.00  0.00    -0.121 A  
HETATM   20  C   UNL     1      -8.850   5.091  64.454  1.00  0.00    -0.084 A  
HETATM   21  C   UNL     1      -8.640   4.025  65.329  1.00  0.00    -0.114 A  
HETATM   22  C   UNL     1      -7.520   4.030  66.154  1.00  0.00    -0.088 A  
HETATM   23  C   UNL     1      -6.832   6.157  65.239  1.00  0.00    -0.048 A  
HETATM   24  C   UNL     1      -6.614   5.090  66.114  1.00  0.00    -0.048 A  
BRANCH  22  25
HETATM   25  S   UNL     1      -7.290   2.692  67.295  1.00  0.00    -0.058 S  
HETATM   26  O   UNL     1      -8.515   2.474  68.034  1.00  0.00    -0.069 OA 
HETATM   27  O   UNL     1      -6.669   1.605  66.565  1.00  0.00    -0.033 OA 
BRANCH  25  28
HETATM   28  N   UNL     1      -6.109   3.260  68.314  1.00  0.00    -0.030 N  
HETATM   29  H   UNL     1      -5.154   3.306  67.958  1.00  0.00     0.000 HD 
BRANCH  28  30
HETATM   30  C   UNL     1      -6.331   3.673  69.613  1.00  0.00    -0.029 C  
HETATM   31  O   UNL     1      -5.957   3.059  70.599  1.00  0.00    -0.017 OA 
BRANCH  30  32
HETATM   32  N   UNL     1      -7.023   4.844  69.666  1.00  0.00    -0.052 N  
HETATM   33  H   UNL     1      -7.011   5.467  68.859  1.00  0.00     0.000 HD 
BRANCH  32  34
HETATM   34  C   UNL     1      -7.782   5.228  70.851  1.00  0.00    -0.093 C  
HETATM   35  C   UNL     1      -7.892   6.753  70.975  1.00  0.00    -0.101 C  
HETATM   36  C   UNL     1      -8.737   7.352  69.852  1.00  0.00    -0.141 C  
HETATM   37  C   UNL     1     -10.113   6.696  69.756  1.00  0.00    -0.204 C  
HETATM   38  C   UNL     1     -10.050   5.170  69.712  1.00  0.00    -0.336 C  
HETATM   39  C   UNL     1      -9.177   4.597  70.828  1.00  0.00    -0.200 C  
ENDBRANCH  32  34
ENDBRANCH  30  32
ENDBRANCH  28  30
ENDBRANCH  25  28
ENDBRANCH  22  25
ENDBRANCH  18  19
ENDBRANCH  17  18
ENDBRANCH  14  17
ENDBRANCH   2   3
TORSDOF 9
ENDMDL
MODEL      183
REMARK 921   NORMALIZED FREE ENERGY PREDICTED BY IDOCK:   -4.40 KCAL/MOL
REMARK 922        TOTAL FREE ENERGY PREDICTED BY IDOCK:   -8.86 KCAL/MOL
REMARK 923 INTER-LIGAND FREE ENERGY PREDICTED BY IDOCK:   -8.04 KCAL/MOL
REMARK 924 INTRA-LIGAND FREE ENERGY PREDICTED BY IDOCK:   -0.82 KCAL/MOL
REMARK 927      BINDING AFFINITY PREDICTED BY RF-SCORE:    0.00 PKD
ROOT
HETATM    1  C   UNL     1      -9.446   2.139  63.412  1.00  0.00    -0.098 C  
HETATM    2  O   UNL     1      -9.065   3.494  63.638  1.00  0.00    -0.093 OA 
ENDROOT
BRANCH   2   3
HETATM    3  C   UNL     1      -8.960   3.861  64.950  1.00  0.00    -0.131 A  
HETATM    4  C   UNL     1      -8.842   5.170  65.402  1.00  0.00    -0.153 A  
HETATM    5  C   UNL     1      -8.786   5.434  66.778  1.00  0.00    -0.112 A  
HETATM    6  C   UNL     1      -8.793   4.393  67.721  1.00  0.00    -0.122 A  
HETATM    7  C   UNL     1      -8.953   3.081  67.250  1.00  0.00    -0.184 A  
HETATM    8  C   UNL     1      -8.694   4.710  69.209  1.00  0.00    -0.113 C  
HETATM    9  C   UNL     1      -8.303   6.176  69.446  1.00  0.00    -0.116 C  
HETATM   10  C   UNL     1     -10.085   4.553  69.864  1.00  0.00    -0.195 C  
HETATM   11  C   UNL     1      -7.688   3.797  69.932  1.00  0.00    -0.051 C  
HETATM   12  C   UNL     1      -9.050   2.824  65.879  1.00  0.00    -0.121 A  
HETATM   13  O   UNL     1      -7.618   6.555  70.393  1.00  0.00    -0.092 OA 
HETATM   14  N   UNL     1      -8.938   7.048  68.580  1.00  0.00    -0.124 N  
HETATM   15  O   UNL     1      -8.942   7.751  66.390  1.00  0.00    -0.148 OA 
HETATM   16  C   UNL     1      -8.882   6.848  67.218  1.00  0.00    -0.118 C  
BRANCH  14  17
HETATM   17  C   UNL     1      -9.445   8.297  69.101  1.00  0.00    -0.155 C  
BRANCH  17  18
HETATM   18  C   UNL     1      -8.494   9.494  69.086  1.00  0.00    -0.131 C  
BRANCH  18  19
HETATM   19  C   UNL     1      -9.019  10.610  68.198  1.00  0.00    -0.141 A  
HETATM   20  C   UNL     1      -8.158  11.471  67.497  1.00  0.00    -0.137 A  
HETATM   21  C   UNL     1      -8.658  12.527  66.736  1.00  0.00    -0.109 A  
HETATM   22  C   UNL     1     -10.033  12.709  66.641  1.00  0.00    -0.242 A  
HETATM   23  C   UNL     1     -10.403  10.793  68.067  1.00  0.00    -0.211 A  
HETATM   24  C   UNL     1     -10.910  11.848  67.302  1.00  0.00    -0.294 A  
BRANCH  22  25
HETATM   25  S   UNL     1     -10.655  14.083  65.710  1.00  0.00    -0.310 S  
HETATM   26  O   UNL     1     -11.029  13.636  64.384  1.00  0.00    -0.386 OA 
HETATM   27  O   UNL     1     -11.614  14.774  66.547  1.00  0.00    -0.355 OA 
BRANCH  25  28
HETATM   28  N   UNL     1      -9.349  15.102  65.614  1.00  0.00    -0.438 N  
HETATM   29  H   UNL     1      -8.778  15.067  64.769  1.00  0.00     0.000 HD 
BRANCH  28  30
HETATM   30  C   UNL     1      -8.982  15.996  66.601  1.00  0.00    -0.260 C  
HETATM   31  O   UNL     1      -8.496  15.670  67.672  1.00  0.00    -0.151 OA 
BRANCH  30  32
HETATM   32  N   UNL     1      -9.231  17.285  66.242  1.00  0.00    -0.242 N  
HETATM   33  H   UNL     1      -8.516  17.809  65.738  1.00  0.00     0.000 HD 
BRANCH  32  34
HETATM   34  C   UNL     1     -10.498  17.934  66.563  1.00  0.00    -0.313 C  
HETATM   35  C   UNL     1     -10.728  17.994  68.078  1.00  0.00    -0.301 C  
HETATM   36  C   UNL     1      -9.721  18.913  68.766  1.00  0.00    -0.454 C  
HETATM   37  C   UNL     1      -9.697  20.308  68.147  1.00  0.00    -0.362 C  
HETATM   38  C   UNL     1      -9.551  20.288  66.626  1.00  0.00    -0.522 C  
HETATM   39  C   UNL     1     -10.551  19.341  65.963  1.00  0.00    -0.550 C  
ENDBRANCH  32  34
ENDBRANCH  30  32
ENDBRANCH  28  30
ENDBRANCH  25  28
ENDBRANCH  22  25
ENDBRANCH  18  19
ENDBRANCH  17  18
ENDBRANCH  14  17
ENDBRANCH   2   3
TORSDOF 9
ENDMDL
MODEL      184
REMARK 921   NORMALIZED FREE ENERGY PREDICTED BY IDOCK:   -4.35 KCAL/MOL
REMARK 922        TOTAL FREE ENERGY PREDICTED BY IDOCK:   -8.79 KCAL/MOL
REMARK 923 INTER-LIGAND FREE ENERGY PREDICTED BY IDOCK:   -7.44 KCAL/MOL
REMARK 924 INTRA-LIGAND FREE ENERGY PREDICTED BY IDOCK:   -1.35 KCAL/MOL
REMARK 927      BINDING AFFINITY PREDICTED BY RF-SCORE:    0.00 PKD
ROOT
HETATM    1  C   UNL     1      -6.705   2.038  69.507  1.00  0.00    -0.033 C  
HETATM    2  O   UNL     1      -7.958   2.534  69.973  1.00  0.00    -0.042 OA 
ENDROOT
BRANCH   2   3
HETATM    3  C   UNL     1      -7.971   3.855  70.323  1.00  0.00    -0.050 A  
HETATM    4  C   UNL     1      -7.377   4.877  69.592  1.00  0.00    -0.056 A  
HETATM    5  C   UNL     1      -7.492   6.205  70.024  1.00  0.00    -0.087 A  
HETATM    6  C   UNL     1      -8.154   6.529  71.220  1.00  0.00    -0.113 A  
HETATM    7  C   UNL     1      -8.781   5.491  71.925  1.00  0.00    -0.135 A  
HETATM    8  C   UNL     1      -8.231   7.980  71.683  1.00  0.00    -0.143 C  
HETATM    9  C   UNL     1      -7.285   8.878  70.871  1.00  0.00    -0.092 C  
HETATM   10  C   UNL     1      -9.646   8.534  71.409  1.00  0.00    -0.282 C  
HETATM   11  C   UNL     1      -7.907   8.130  73.179  1.00  0.00    -0.213 C  
HETATM   12  C   UNL     1      -8.700   4.171  71.469  1.00  0.00    -0.135 A  
HETATM   13  O   UNL     1      -6.712   9.861  71.335  1.00  0.00    -0.323 OA 
HETATM   14  N   UNL     1      -7.273   8.566  69.524  1.00  0.00    -0.059 N  
HETATM   15  O   UNL     1      -6.516   6.990  68.030  1.00  0.00    -0.044 OA 
HETATM   16  C   UNL     1      -7.035   7.276  69.103  1.00  0.00    -0.074 C  
BRANCH  14  17
HETATM   17  C   UNL     1      -7.265   9.646  68.563  1.00  0.00    -0.070 C  
BRANCH  17  18
HETATM   18  C   UNL     1      -8.334   9.613  67.471  1.00  0.00    -0.118 C  
BRANCH  18  19
HETATM   19  C   UNL     1      -9.052  10.949  67.356  1.00  0.00    -0.144 A  
HETATM   20  C   UNL     1      -8.498  12.033  66.655  1.00  0.00    -0.117 A  
HETATM   21  C   UNL     1      -9.143  13.269  66.613  1.00  0.00    -0.181 A  
HETATM   22  C   UNL     1     -10.372  13.419  67.247  1.00  0.00    -0.244 A  
HETATM   23  C   UNL     1     -10.304  11.114  67.965  1.00  0.00    -0.208 A  
HETATM   24  C   UNL     1     -10.957  12.348  67.923  1.00  0.00    -0.266 A  
BRANCH  22  25
HETATM   25  S   UNL     1     -11.159  15.008  67.226  1.00  0.00    -0.335 S  
HETATM   26  O   UNL     1     -10.895  15.659  65.961  1.00  0.00    -0.318 OA 
HETATM   27  O   UNL     1     -12.520  14.821  67.685  1.00  0.00     0.038 OA 
BRANCH  25  28
HETATM   28  N   UNL     1     -10.397  15.827  68.452  1.00  0.00    -0.229 N  
HETATM   29  H   UNL     1     -10.308  16.840  68.365  1.00  0.00     0.000 HD 
BRANCH  28  30
HETATM   30  C   UNL     1      -9.875  15.232  69.584  1.00  0.00    -0.216 C  
HETATM   31  O   UNL     1      -8.683  15.052  69.773  1.00  0.00    -0.085 OA 
BRANCH  30  32
HETATM   32  N   UNL     1     -10.847  14.862  70.462  1.00  0.00    -0.504 N  
HETATM   33  H   UNL     1     -10.840  13.916  70.843  1.00  0.00     0.000 HD 
BRANCH  32  34
HETATM   34  C   UNL     1     -11.897  15.788  70.871  1.00  0.00    -0.414 C  
HETATM   35  C   UNL     1     -13.283  15.137  70.782  1.00  0.00    -0.433 C  
HETATM   36  C   UNL     1     -13.444  14.009  71.799  1.00  0.00    -0.473 C  
HETATM   37  C   UNL     1     -13.131  14.467  73.221  1.00  0.00    -0.440 C  
HETATM   38  C   UNL     1     -11.792  15.194  73.337  1.00  0.00    -0.414 C  
HETATM   39  C   UNL     1     -11.644  16.300  72.292  1.00  0.00    -0.388 C  
ENDBRANCH  32  34
ENDBRANCH  30  32
ENDBRANCH  28  30
ENDBRANCH  25  28
ENDBRANCH  22  25
ENDBRANCH  18  19
ENDBRANCH  17  18
ENDBRANCH  14  17
ENDBRANCH   2   3
TORSDOF 9
ENDMDL
MODEL      185
REMARK 921   NORMALIZED FREE ENERGY PREDICTED BY IDOCK:   -4.34 KCAL/MOL
REMARK 922        TOTAL FREE ENERGY PREDICTED BY IDOCK:   -8.77 KCAL/MOL
REMARK 923 INTER-LIGAND FREE ENERGY PREDICTED BY IDOCK:   -7.25 KCAL/MOL
REMARK 924 INTRA-LIGAND FREE ENERGY PREDICTED BY IDOCK:   -1.52 KCAL/MOL
REMARK 927      BINDING AFFINITY PREDICTED BY RF-SCORE:    0.00 PKD
ROOT
HETATM    1  C   UNL     1      -7.199  19.535  67.061  1.00  0.00    -0.215 C  
HETATM    2  O   UNL     1      -8.118  18.933  66.153  1.00  0.00    -0.358 OA 
ENDROOT
BRANCH   2   3
HETATM    3  C   UNL     1      -8.734  17.801  66.609  1.00  0.00    -0.261 A  
HETATM    4  C   UNL     1      -9.619  17.025  65.869  1.00  0.00    -0.143 A  
HETATM    5  C   UNL     1     -10.158  15.857  66.424  1.00  0.00    -0.306 A  
HETATM    6  C   UNL     1      -9.866  15.473  67.743  1.00  0.00    -0.213 A  
HETATM    7  C   UNL     1      -8.941  16.245  68.462  1.00  0.00    -0.219 A  
HETATM    8  C   UNL     1     -10.498  14.216  68.331  1.00  0.00    -0.254 C  
HETATM    9  C   UNL     1     -11.630  13.687  67.438  1.00  0.00    -0.356 C  
HETATM   10  C   UNL     1      -9.450  13.081  68.367  1.00  0.00    -0.165 C  
HETATM   11  C   UNL     1     -11.042  14.449  69.751  1.00  0.00    -0.202 C  
HETATM   12  C   UNL     1      -8.372  17.388  67.890  1.00  0.00    -0.230 A  
HETATM   13  O   UNL     1     -12.632  13.121  67.870  1.00  0.00     0.193 OA 
HETATM   14  N   UNL     1     -11.331  13.762  66.090  1.00  0.00    -0.308 N  
HETATM   15  O   UNL     1     -11.117  15.259  64.357  1.00  0.00    -0.277 OA 
HETATM   16  C   UNL     1     -10.919  14.950  65.528  1.00  0.00    -0.350 C  
BRANCH  14  17
HETATM   17  C   UNL     1     -11.692  12.652  65.237  1.00  0.00    -0.378 C  
BRANCH  17  18
HETATM   18  C   UNL     1     -10.550  11.800  64.684  1.00  0.00    -0.359 C  
BRANCH  18  19
HETATM   19  C   UNL     1     -10.254  10.615  65.590  1.00  0.00    -0.319 A  
HETATM   20  C   UNL     1      -9.085   9.847  65.451  1.00  0.00    -0.241 A  
HETATM   21  C   UNL     1      -8.861   8.727  66.251  1.00  0.00    -0.187 A  
HETATM   22  C   UNL     1      -9.793   8.385  67.224  1.00  0.00    -0.203 A  
HETATM   23  C   UNL     1     -11.168  10.269  66.595  1.00  0.00     0.283 A  
HETATM   24  C   UNL     1     -10.946   9.150  67.402  1.00  0.00     0.009 A  
BRANCH  22  25
HETATM   25  S   UNL     1      -9.519   6.932  68.202  1.00  0.00    -0.121 S  
HETATM   26  O   UNL     1      -9.488   5.770  67.339  1.00  0.00    -0.111 OA 
HETATM   27  O   UNL     1      -8.411   7.213  69.093  1.00  0.00    -0.131 OA 
BRANCH  25  28
HETATM   28  N   UNL     1     -10.858   6.872  69.181  1.00  0.00    -0.317 N  
HETATM   29  H   UNL     1     -11.656   7.457  68.933  1.00  0.00     0.000 HD 
BRANCH  28  30
HETATM   30  C   UNL     1     -10.966   6.083  70.310  1.00  0.00    -0.342 C  
HETATM   31  O   UNL     1     -11.624   6.384  71.293  1.00  0.00    -0.305 OA 
BRANCH  30  32
HETATM   32  N   UNL     1     -10.248   4.932  70.200  1.00  0.00    -0.262 N  
HETATM   33  H   UNL     1     -10.188   4.466  69.295  1.00  0.00     0.000 HD 
BRANCH  32  34
HETATM   34  C   UNL     1      -9.562   4.350  71.348  1.00  0.00    -0.165 C  
HETATM   35  C   UNL     1      -9.031   2.947  71.030  1.00  0.00    -0.162 C  
HETATM   36  C   UNL     1      -7.918   2.987  69.985  1.00  0.00    -0.051 C  
HETATM   37  C   UNL     1      -6.790   3.936  70.381  1.00  0.00    -0.033 C  
HETATM   38  C   UNL     1      -7.286   5.324  70.785  1.00  0.00    -0.065 C  
HETATM   39  C   UNL     1      -8.417   5.257  71.810  1.00  0.00    -0.126 C  
ENDBRANCH  32  34
ENDBRANCH  30  32
ENDBRANCH  28  30
ENDBRANCH  25  28
ENDBRANCH  22  25
ENDBRANCH  18  19
ENDBRANCH  17  18
ENDBRANCH  14  17
ENDBRANCH   2   3
TORSDOF 9
ENDMDL
MODEL      186
REMARK 921   NORMALIZED FREE ENERGY PREDICTED BY IDOCK:   -4.33 KCAL/MOL
REMARK 922        TOTAL FREE ENERGY PREDICTED BY IDOCK:   -8.75 KCAL/MOL
REMARK 923 INTER-LIGAND FREE ENERGY PREDICTED BY IDOCK:   -8.73 KCAL/MOL
REMARK 924 INTRA-LIGAND FREE ENERGY PREDICTED BY IDOCK:   -0.02 KCAL/MOL
REMARK 927      BINDING AFFINITY PREDICTED BY RF-SCORE:    0.00 PKD
ROOT
HETATM    1  C   UNL     1      -6.445   5.430  73.819  1.00  0.00    -0.072 C  
HETATM    2  O   UNL     1      -7.556   6.298  73.608  1.00  0.00    -0.094 OA 
ENDROOT
BRANCH   2   3
HETATM    3  C   UNL     1      -8.004   6.372  72.319  1.00  0.00    -0.103 A  
HETATM    4  C   UNL     1      -7.892   7.490  71.501  1.00  0.00    -0.086 A  
HETATM    5  C   UNL     1      -8.348   7.438  70.177  1.00  0.00    -0.136 A  
HETATM    6  C   UNL     1      -8.971   6.289  69.664  1.00  0.00    -0.135 A  
HETATM    7  C   UNL     1      -9.041   5.157  70.490  1.00  0.00    -0.177 A  
HETATM    8  C   UNL     1      -9.490   6.276  68.231  1.00  0.00    -0.117 C  
HETATM    9  C   UNL     1      -9.500   7.687  67.625  1.00  0.00    -0.142 C  
HETATM   10  C   UNL     1      -8.524   5.462  67.340  1.00  0.00    -0.106 C  
HETATM   11  C   UNL     1     -10.902   5.674  68.130  1.00  0.00    -0.161 C  
HETATM   12  C   UNL     1      -8.547   5.198  71.798  1.00  0.00    -0.132 A  
HETATM   13  O   UNL     1     -10.334   8.073  66.809  1.00  0.00    -0.311 OA 
HETATM   14  N   UNL     1      -8.381   8.425  67.964  1.00  0.00    -0.127 N  
HETATM   15  O   UNL     1      -7.407   9.548  69.719  1.00  0.00    -0.071 OA 
HETATM   16  C   UNL     1      -8.010   8.574  69.282  1.00  0.00    -0.111 C  
BRANCH  14  17
HETATM   17  C   UNL     1      -7.753   9.238  66.947  1.00  0.00    -0.094 C  
BRANCH  17  18
HETATM   18  C   UNL     1      -8.468   9.343  65.600  1.00  0.00    -0.145 C  
BRANCH  18  19
HETATM   19  C   UNL     1      -9.283  10.623  65.502  1.00  0.00    -0.228 A  
HETATM   20  C   UNL     1     -10.315  10.777  64.560  1.00  0.00    -0.401 A  
HETATM   21  C   UNL     1     -11.010  11.980  64.445  1.00  0.00    -0.385 A  
HETATM   22  C   UNL     1     -10.700  13.033  65.300  1.00  0.00    -0.299 A  
HETATM   23  C   UNL     1      -9.005  11.686  66.373  1.00  0.00    -0.198 A  
HETATM   24  C   UNL     1      -9.701  12.893  66.264  1.00  0.00    -0.268 A  
BRANCH  22  25
HETATM   25  S   UNL     1     -11.558  14.572  65.112  1.00  0.00    -0.383 S  
HETATM   26  O   UNL     1     -10.632  15.587  64.658  1.00  0.00    -0.365 OA 
HETATM   27  O   UNL     1     -12.772  14.302  64.369  1.00  0.00    -0.661 OA 
BRANCH  25  28
HETATM   28  N   UNL     1     -12.063  14.919  66.655  1.00  0.00    -0.188 N  
HETATM   29  H   UNL     1     -12.999  14.619  66.928  1.00  0.00     0.000 HD 
BRANCH  28  30
HETATM   30  C   UNL     1     -11.302  15.586  67.594  1.00  0.00    -0.260 C  
HETATM   31  O   UNL     1     -11.164  15.217  68.749  1.00  0.00    -0.255 OA 
BRANCH  30  32
HETATM   32  N   UNL     1     -10.727  16.709  67.084  1.00  0.00    -0.256 N  
HETATM   33  H   UNL     1     -10.590  16.785  66.076  1.00  0.00     0.000 HD 
BRANCH  32  34
HETATM   34  C   UNL     1     -10.304  17.808  67.945  1.00  0.00    -0.386 C  
HETATM   35  C   UNL     1      -8.786  18.020  67.877  1.00  0.00    -0.269 C  
HETATM   36  C   UNL     1      -8.345  18.511  66.499  1.00  0.00    -0.297 C  
HETATM   37  C   UNL     1      -9.106  19.762  66.064  1.00  0.00    -0.319 C  
HETATM   38  C   UNL     1     -10.621  19.620  66.195  1.00  0.00    -0.584 C  
HETATM   39  C   UNL     1     -11.036  19.100  67.571  1.00  0.00    -0.405 C  
ENDBRANCH  32  34
ENDBRANCH  30  32
ENDBRANCH  28  30
ENDBRANCH  25  28
ENDBRANCH  22  25
ENDBRANCH  18  19
ENDBRANCH  17  18
ENDBRANCH  14  17
ENDBRANCH   2   3
TORSDOF 9
ENDMDL
MODEL      187
REMARK 921   NORMALIZED FREE ENERGY PREDICTED BY IDOCK:   -4.30 KCAL/MOL
REMARK 922        TOTAL FREE ENERGY PREDICTED BY IDOCK:   -8.71 KCAL/MOL
REMARK 923 INTER-LIGAND FREE ENERGY PREDICTED BY IDOCK:   -7.18 KCAL/MOL
REMARK 924 INTRA-LIGAND FREE ENERGY PREDICTED BY IDOCK:   -1.54 KCAL/MOL
REMARK 927      BINDING AFFINITY PREDICTED BY RF-SCORE:    0.00 PKD
ROOT
HETATM    1  C   UNL     1     -12.590  11.909  63.454  1.00  0.00    -0.431 C  
HETATM    2  O   UNL     1     -12.818  13.313  63.542  1.00  0.00    -0.606 OA 
ENDROOT
BRANCH   2   3
HETATM    3  C   UNL     1     -12.026  13.979  64.436  1.00  0.00    -0.454 A  
HETATM    4  C   UNL     1     -11.361  13.387  65.503  1.00  0.00    -0.310 A  
HETATM    5  C   UNL     1     -10.538  14.162  66.332  1.00  0.00    -0.280 A  
HETATM    6  C   UNL     1     -10.408  15.547  66.141  1.00  0.00    -0.327 A  
HETATM    7  C   UNL     1     -11.054  16.122  65.036  1.00  0.00    -0.304 A  
HETATM    8  C   UNL     1      -9.534  16.370  67.082  1.00  0.00    -0.238 C  
HETATM    9  C   UNL     1      -9.129  15.560  68.323  1.00  0.00    -0.186 C  
HETATM   10  C   UNL     1      -8.204  16.718  66.377  1.00  0.00    -0.349 C  
HETATM   11  C   UNL     1     -10.226  17.669  67.531  1.00  0.00    -0.348 C  
HETATM   12  C   UNL     1     -11.842  15.339  64.186  1.00  0.00    -0.138 A  
HETATM   13  O   UNL     1      -8.964  16.054  69.436  1.00  0.00    -0.244 OA 
HETATM   14  N   UNL     1      -8.808  14.248  68.027  1.00  0.00    -0.170 N  
HETATM   15  O   UNL     1      -9.751  12.235  67.434  1.00  0.00    -0.182 OA 
HETATM   16  C   UNL     1      -9.681  13.454  67.316  1.00  0.00    -0.232 C  
BRANCH  14  17
HETATM   17  C   UNL     1      -7.666  13.650  68.680  1.00  0.00    -0.107 C  
BRANCH  17  18
HETATM   18  C   UNL     1      -6.684  12.879  67.798  1.00  0.00    -0.141 C  
BRANCH  18  19
HETATM   19  C   UNL     1      -6.615  11.413  68.194  1.00  0.00    -0.057 A  
HETATM   20  C   UNL     1      -7.210  10.932  69.374  1.00  0.00    -0.126 A  
HETATM   21  C   UNL     1      -7.084   9.596  69.751  1.00  0.00    -0.084 A  
HETATM   22  C   UNL     1      -6.386   8.717  68.929  1.00  0.00    -0.045 A  
HETATM   23  C   UNL     1      -5.940  10.505  67.366  1.00  0.00    -0.052 A  
HETATM   24  C   UNL     1      -5.813   9.164  67.738  1.00  0.00    -0.042 A  
BRANCH  22  25
HETATM   25  S   UNL     1      -6.192   7.032  69.444  1.00  0.00    -0.035 S  
HETATM   26  O   UNL     1      -5.163   6.954  70.459  1.00  0.00    -0.021 OA 
HETATM   27  O   UNL     1      -7.516   6.503  69.700  1.00  0.00    -0.088 OA 
BRANCH  25  28
HETATM   28  N   UNL     1      -5.680   6.268  68.062  1.00  0.00    -0.011 N  
HETATM   29  H   UNL     1      -4.679   6.103  67.953  1.00  0.00     0.000 HD 
BRANCH  28  30
HETATM   30  C   UNL     1      -6.516   5.839  67.051  1.00  0.00    -0.047 C  
HETATM   31  O   UNL     1      -6.142   5.206  66.077  1.00  0.00    -0.028 OA 
BRANCH  30  32
HETATM   32  N   UNL     1      -7.808   6.210  67.263  1.00  0.00    -0.101 N  
HETATM   33  H   UNL     1      -8.132   6.365  68.218  1.00  0.00     0.000 HD 
BRANCH  32  34
HETATM   34  C   UNL     1      -8.741   6.393  66.156  1.00  0.00    -0.146 C  
HETATM   35  C   UNL     1     -10.187   6.124  66.592  1.00  0.00    -0.237 C  
HETATM   36  C   UNL     1     -10.678   7.167  67.594  1.00  0.00    -0.314 C  
HETATM   37  C   UNL     1     -10.506   8.592  67.071  1.00  0.00    -0.362 C  
HETATM   38  C   UNL     1      -9.097   8.875  66.551  1.00  0.00    -0.206 C  
HETATM   39  C   UNL     1      -8.617   7.803  65.573  1.00  0.00    -0.126 C  
ENDBRANCH  32  34
ENDBRANCH  30  32
ENDBRANCH  28  30
ENDBRANCH  25  28
ENDBRANCH  22  25
ENDBRANCH  18  19
ENDBRANCH  17  18
ENDBRANCH  14  17
ENDBRANCH   2   3
TORSDOF 9
ENDMDL
MODEL      188
REMARK 921   NORMALIZED FREE ENERGY PREDICTED BY IDOCK:   -4.30 KCAL/MOL
REMARK 922        TOTAL FREE ENERGY PREDICTED BY IDOCK:   -8.71 KCAL/MOL
REMARK 923 INTER-LIGAND FREE ENERGY PREDICTED BY IDOCK:   -8.07 KCAL/MOL
REMARK 924 INTRA-LIGAND FREE ENERGY PREDICTED BY IDOCK:   -0.64 KCAL/MOL
REMARK 927      BINDING AFFINITY PREDICTED BY RF-SCORE:    0.00 PKD
ROOT
HETATM    1  C   UNL     1      -7.435  19.732  68.500  1.00  0.00    -0.312 C  
HETATM    2  O   UNL     1      -8.317  19.505  67.404  1.00  0.00    -0.280 OA 
ENDROOT
BRANCH   2   3
HETATM    3  C   UNL     1      -8.801  18.231  67.296  1.00  0.00    -0.255 A  
HETATM    4  C   UNL     1      -8.016  17.090  67.174  1.00  0.00    -0.214 A  
HETATM    5  C   UNL     1      -8.621  15.827  67.116  1.00  0.00    -0.226 A  
HETATM    6  C   UNL     1     -10.018  15.685  67.126  1.00  0.00    -0.240 A  
HETATM    7  C   UNL     1     -10.794  16.843  67.290  1.00  0.00    -0.131 A  
HETATM    8  C   UNL     1     -10.647  14.300  67.024  1.00  0.00    -0.280 C  
HETATM    9  C   UNL     1      -9.607  13.241  66.628  1.00  0.00    -0.262 C  
HETATM   10  C   UNL     1     -11.158  13.863  68.415  1.00  0.00    -0.278 C  
HETATM   11  C   UNL     1     -11.812  14.263  66.020  1.00  0.00    -0.399 C  
HETATM   12  C   UNL     1     -10.186  18.099  67.389  1.00  0.00    -0.383 A  
HETATM   13  O   UNL     1      -9.866  12.255  65.941  1.00  0.00    -0.247 OA 
HETATM   14  N   UNL     1      -8.391  13.419  67.260  1.00  0.00    -0.187 N  
HETATM   15  O   UNL     1      -6.525  14.764  67.264  1.00  0.00    -0.300 OA 
HETATM   16  C   UNL     1      -7.743  14.633  67.206  1.00  0.00    -0.169 C  
BRANCH  14  17
HETATM   17  C   UNL     1      -7.694  12.256  67.762  1.00  0.00    -0.139 C  
BRANCH  17  18
HETATM   18  C   UNL     1      -8.256  10.888  67.378  1.00  0.00    -0.117 C  
BRANCH  18  19
HETATM   19  C   UNL     1      -8.899  10.197  68.570  1.00  0.00    -0.127 A  
HETATM   20  C   UNL     1     -10.293  10.070  68.693  1.00  0.00    -0.211 A  
HETATM   21  C   UNL     1     -10.866   9.488  69.823  1.00  0.00    -0.264 A  
HETATM   22  C   UNL     1     -10.042   8.993  70.829  1.00  0.00    -0.241 A  
HETATM   23  C   UNL     1      -8.085   9.668  69.582  1.00  0.00    -0.143 A  
HETATM   24  C   UNL     1      -8.654   9.080  70.715  1.00  0.00    -0.259 A  
BRANCH  22  25
HETATM   25  S   UNL     1     -10.782   8.298  72.281  1.00  0.00    -0.347 S  
HETATM   26  O   UNL     1      -9.785   8.188  73.325  1.00  0.00    -0.269 OA 
HETATM   27  O   UNL     1     -12.018   9.016  72.522  1.00  0.00    -0.260 OA 
BRANCH  25  28
HETATM   28  N   UNL     1     -11.250   6.785  71.785  1.00  0.00    -0.248 N  
HETATM   29  H   UNL     1     -11.717   6.703  70.882  1.00  0.00     0.000 HD 
BRANCH  28  30
HETATM   30  C   UNL     1     -11.049   5.628  72.512  1.00  0.00    -0.276 C  
HETATM   31  O   UNL     1     -11.877   5.143  73.266  1.00  0.00    -0.207 OA 
BRANCH  30  32
HETATM   32  N   UNL     1      -9.816   5.094  72.295  1.00  0.00    -0.166 N  
HETATM   33  H   UNL     1      -9.171   5.571  71.665  1.00  0.00     0.000 HD 
BRANCH  32  34
HETATM   34  C   UNL     1      -9.396   3.857  72.943  1.00  0.00    -0.114 C  
HETATM   35  C   UNL     1      -9.699   2.635  72.066  1.00  0.00    -0.216 C  
HETATM   36  C   UNL     1      -8.852   2.628  70.795  1.00  0.00    -0.145 C  
HETATM   37  C   UNL     1      -7.360   2.746  71.098  1.00  0.00    -0.033 C  
HETATM   38  C   UNL     1      -7.026   3.904  72.036  1.00  0.00    -0.044 C  
HETATM   39  C   UNL     1      -7.905   3.906  73.286  1.00  0.00    -0.083 C  
ENDBRANCH  32  34
ENDBRANCH  30  32
ENDBRANCH  28  30
ENDBRANCH  25  28
ENDBRANCH  22  25
ENDBRANCH  18  19
ENDBRANCH  17  18
ENDBRANCH  14  17
ENDBRANCH   2   3
TORSDOF 9
ENDMDL
MODEL      189
REMARK 921   NORMALIZED FREE ENERGY PREDICTED BY IDOCK:   -4.30 KCAL/MOL
REMARK 922        TOTAL FREE ENERGY PREDICTED BY IDOCK:   -8.70 KCAL/MOL
REMARK 923 INTER-LIGAND FREE ENERGY PREDICTED BY IDOCK:   -7.13 KCAL/MOL
REMARK 924 INTRA-LIGAND FREE ENERGY PREDICTED BY IDOCK:   -1.58 KCAL/MOL
REMARK 927      BINDING AFFINITY PREDICTED BY RF-SCORE:    0.00 PKD
ROOT
HETATM    1  C   UNL     1      -7.186  18.912  66.907  1.00  0.00    -0.214 C  
HETATM    2  O   UNL     1      -7.856  18.112  65.937  1.00  0.00    -0.503 OA 
ENDROOT
BRANCH   2   3
HETATM    3  C   UNL     1      -8.589  17.074  66.440  1.00  0.00    -0.276 A  
HETATM    4  C   UNL     1      -9.150  16.055  65.680  1.00  0.00     0.010 A  
HETATM    5  C   UNL     1      -9.846  15.013  66.309  1.00  0.00    -0.307 A  
HETATM    6  C   UNL     1     -10.040  15.001  67.701  1.00  0.00    -0.231 A  
HETATM    7  C   UNL     1      -9.434  16.016  68.457  1.00  0.00    -0.216 A  
HETATM    8  C   UNL     1     -10.834  13.874  68.352  1.00  0.00    -0.269 C  
HETATM    9  C   UNL     1     -11.573  13.030  67.303  1.00  0.00    -0.356 C  
HETATM   10  C   UNL     1      -9.862  12.894  69.046  1.00  0.00     0.284 C  
HETATM   11  C   UNL     1     -11.848  14.399  69.383  1.00  0.00    -0.369 C  
HETATM   12  C   UNL     1      -8.704  17.031  67.830  1.00  0.00    -0.222 A  
HETATM   13  O   UNL     1     -12.660  12.493  67.502  1.00  0.00     0.132 OA 
HETATM   14  N   UNL     1     -10.815  12.796  66.171  1.00  0.00    -0.275 N  
HETATM   15  O   UNL     1     -10.005  13.828  64.281  1.00  0.00    -0.177 OA 
HETATM   16  C   UNL     1     -10.235  13.841  65.485  1.00  0.00    -0.316 C  
BRANCH  14  17
HETATM   17  C   UNL     1     -10.844  11.479  65.576  1.00  0.00    -0.254 C  
BRANCH  17  18
HETATM   18  C   UNL     1      -9.584  10.625  65.714  1.00  0.00    -0.258 C  
BRANCH  18  19
HETATM   19  C   UNL     1      -9.481  10.006  67.098  1.00  0.00    -0.184 A  
HETATM   20  C   UNL     1      -8.240   9.719  67.694  1.00  0.00    -0.114 A  
HETATM   21  C   UNL     1      -8.168   9.094  68.939  1.00  0.00    -0.112 A  
HETATM   22  C   UNL     1      -9.341   8.783  69.617  1.00  0.00    -0.158 A  
HETATM   23  C   UNL     1     -10.651   9.709  67.810  1.00  0.00    -0.320 A  
HETATM   24  C   UNL     1     -10.584   9.087  69.060  1.00  0.00    -0.209 A  
BRANCH  22  25
HETATM   25  S   UNL     1      -9.236   7.947  71.176  1.00  0.00    -0.149 S  
HETATM   26  O   UNL     1      -7.931   7.333  71.306  1.00  0.00    -0.096 OA 
HETATM   27  O   UNL     1      -9.719   8.862  72.190  1.00  0.00    -0.306 OA 
BRANCH  25  28
HETATM   28  N   UNL     1     -10.403   6.772  71.060  1.00  0.00    -0.205 N  
HETATM   29  H   UNL     1     -10.988   6.600  71.877  1.00  0.00     0.000 HD 
BRANCH  28  30
HETATM   30  C   UNL     1     -10.635   6.012  69.931  1.00  0.00    -0.279 C  
HETATM   31  O   UNL     1     -11.652   6.080  69.259  1.00  0.00    -0.240 OA 
BRANCH  30  32
HETATM   32  N   UNL     1      -9.600   5.171  69.658  1.00  0.00    -0.152 N  
HETATM   33  H   UNL     1      -9.500   4.312  70.197  1.00  0.00     0.000 HD 
BRANCH  32  34
HETATM   34  C   UNL     1      -8.631   5.472  68.610  1.00  0.00    -0.103 C  
HETATM   35  C   UNL     1      -7.618   4.332  68.442  1.00  0.00    -0.064 C  
HETATM   36  C   UNL     1      -8.278   3.063  67.905  1.00  0.00    -0.088 C  
HETATM   37  C   UNL     1      -9.053   3.320  66.615  1.00  0.00    -0.180 C  
HETATM   38  C   UNL     1     -10.016   4.501  66.717  1.00  0.00    -0.240 C  
HETATM   39  C   UNL     1      -9.339   5.750  67.282  1.00  0.00    -0.113 C  
ENDBRANCH  32  34
ENDBRANCH  30  32
ENDBRANCH  28  30
ENDBRANCH  25  28
ENDBRANCH  22  25
ENDBRANCH  18  19
ENDBRANCH  17  18
ENDBRANCH  14  17
ENDBRANCH   2   3
TORSDOF 9
ENDMDL
MODEL      190
REMARK 921   NORMALIZED FREE ENERGY PREDICTED BY IDOCK:   -4.24 KCAL/MOL
REMARK 922        TOTAL FREE ENERGY PREDICTED BY IDOCK:   -8.62 KCAL/MOL
REMARK 923 INTER-LIGAND FREE ENERGY PREDICTED BY IDOCK:   -6.35 KCAL/MOL
REMARK 924 INTRA-LIGAND FREE ENERGY PREDICTED BY IDOCK:   -2.27 KCAL/MOL
REMARK 927      BINDING AFFINITY PREDICTED BY RF-SCORE:    0.00 PKD
ROOT
HETATM    1  C   UNL     1      -5.568   7.730  64.107  1.00  0.00    -0.041 C  
HETATM    2  O   UNL     1      -6.746   7.335  64.806  1.00  0.00    -0.048 OA 
ENDROOT
BRANCH   2   3
HETATM    3  C   UNL     1      -7.540   8.360  65.240  1.00  0.00    -0.090 A  
HETATM    4  C   UNL     1      -8.705   8.204  65.981  1.00  0.00    -0.182 A  
HETATM    5  C   UNL     1      -9.417   9.331  66.412  1.00  0.00    -0.277 A  
HETATM    6  C   UNL     1      -9.009  10.629  66.065  1.00  0.00    -0.189 A  
HETATM    7  C   UNL     1      -7.809  10.771  65.350  1.00  0.00    -0.001 A  
HETATM    8  C   UNL     1      -9.825  11.835  66.517  1.00  0.00    -0.228 C  
HETATM    9  C   UNL     1     -11.191  11.408  67.077  1.00  0.00    -0.283 C  
HETATM   10  C   UNL     1      -9.107  12.532  67.695  1.00  0.00    -0.187 C  
HETATM   11  C   UNL     1     -10.041  12.850  65.382  1.00  0.00    -0.265 C  
HETATM   12  C   UNL     1      -7.078   9.645  64.957  1.00  0.00    -0.116 A  
HETATM   13  O   UNL     1     -12.213  12.082  66.969  1.00  0.00    -0.516 OA 
HETATM   14  N   UNL     1     -11.119  10.271  67.860  1.00  0.00    -0.297 N  
HETATM   15  O   UNL     1     -10.836   7.992  67.730  1.00  0.00    -0.146 OA 
HETATM   16  C   UNL     1     -10.524   9.124  67.379  1.00  0.00    -0.271 C  
BRANCH  14  17
HETATM   17  C   UNL     1     -11.889  10.220  69.082  1.00  0.00     0.033 C  
BRANCH  17  18
HETATM   18  C   UNL     1     -11.163  10.582  70.377  1.00  0.00    -0.378 C  
BRANCH  18  19
HETATM   19  C   UNL     1     -10.300   9.432  70.870  1.00  0.00    -0.380 A  
HETATM   20  C   UNL     1      -8.907   9.414  70.683  1.00  0.00    -0.275 A  
HETATM   21  C   UNL     1      -8.140   8.322  71.088  1.00  0.00    -0.124 A  
HETATM   22  C   UNL     1      -8.760   7.248  71.719  1.00  0.00    -0.116 A  
HETATM   23  C   UNL     1     -10.901   8.352  71.532  1.00  0.00    -0.323 A  
HETATM   24  C   UNL     1     -10.137   7.257  71.944  1.00  0.00    -0.196 A  
BRANCH  22  25
HETATM   25  S   UNL     1      -7.782   5.846  72.186  1.00  0.00    -0.102 S  
HETATM   26  O   UNL     1      -6.382   6.215  72.189  1.00  0.00    -0.044 OA 
HETATM   27  O   UNL     1      -8.391   5.269  73.367  1.00  0.00    -0.113 OA 
BRANCH  25  28
HETATM   28  N   UNL     1      -8.075   4.754  70.970  1.00  0.00    -0.086 N  
HETATM   29  H   UNL     1      -8.681   3.960  71.179  1.00  0.00     0.000 HD 
BRANCH  28  30
HETATM   30  C   UNL     1      -7.554   4.848  69.694  1.00  0.00    -0.056 C  
HETATM   31  O   UNL     1      -6.906   5.799  69.289  1.00  0.00    -0.057 OA 
BRANCH  30  32
HETATM   32  N   UNL     1      -7.854   3.756  68.938  1.00  0.00    -0.053 N  
HETATM   33  H   UNL     1      -7.099   3.154  68.610  1.00  0.00     0.000 HD 
BRANCH  32  34
HETATM   34  C   UNL     1      -9.231   3.428  68.586  1.00  0.00    -0.168 C  
HETATM   35  C   UNL     1      -9.860   4.517  67.708  1.00  0.00    -0.169 C  
HETATM   36  C   UNL     1      -9.193   4.593  66.336  1.00  0.00    -0.133 C  
HETATM   37  C   UNL     1      -9.181   3.240  65.628  1.00  0.00    -0.150 C  
HETATM   38  C   UNL     1      -8.636   2.110  66.499  1.00  0.00    -0.112 C  
HETATM   39  C   UNL     1      -9.299   2.073  67.876  1.00  0.00    -0.214 C  
ENDBRANCH  32  34
ENDBRANCH  30  32
ENDBRANCH  28  30
ENDBRANCH  25  28
ENDBRANCH  22  25
ENDBRANCH  18  19
ENDBRANCH  17  18
ENDBRANCH  14  17
ENDBRANCH   2   3
TORSDOF 9
ENDMDL
MODEL      191
REMARK 921   NORMALIZED FREE ENERGY PREDICTED BY IDOCK:   -4.23 KCAL/MOL
REMARK 922        TOTAL FREE ENERGY PREDICTED BY IDOCK:   -8.61 KCAL/MOL
REMARK 923 INTER-LIGAND FREE ENERGY PREDICTED BY IDOCK:   -7.98 KCAL/MOL
REMARK 924 INTRA-LIGAND FREE ENERGY PREDICTED BY IDOCK:   -0.63 KCAL/MOL
REMARK 927      BINDING AFFINITY PREDICTED BY RF-SCORE:    0.00 PKD
ROOT
HETATM    1  C   UNL     1      -9.056   2.689  63.956  1.00  0.00    -0.109 C  
HETATM    2  O   UNL     1      -9.014   4.079  64.270  1.00  0.00    -0.126 OA 
ENDROOT
BRANCH   2   3
HETATM    3  C   UNL     1      -8.944   4.376  65.602  1.00  0.00    -0.132 A  
HETATM    4  C   UNL     1      -8.352   5.515  66.132  1.00  0.00    -0.119 A  
HETATM    5  C   UNL     1      -8.378   5.740  67.515  1.00  0.00    -0.104 A  
HETATM    6  C   UNL     1      -8.949   4.806  68.395  1.00  0.00    -0.134 A  
HETATM    7  C   UNL     1      -9.578   3.681  67.841  1.00  0.00    -0.180 A  
HETATM    8  C   UNL     1      -8.930   5.061  69.898  1.00  0.00    -0.142 C  
HETATM    9  C   UNL     1      -7.996   6.227  70.257  1.00  0.00    -0.112 C  
HETATM   10  C   UNL     1     -10.333   5.510  70.363  1.00  0.00    -0.346 C  
HETATM   11  C   UNL     1      -8.507   3.813  70.694  1.00  0.00    -0.100 C  
HETATM   12  C   UNL     1      -9.586   3.480  66.457  1.00  0.00    -0.122 A  
HETATM   13  O   UNL     1      -7.351   6.288  71.302  1.00  0.00    -0.077 OA 
HETATM   14  N   UNL     1      -8.083   7.279  69.364  1.00  0.00    -0.128 N  
HETATM   15  O   UNL     1      -7.494   7.904  67.231  1.00  0.00    -0.089 OA 
HETATM   16  C   UNL     1      -7.931   7.066  68.012  1.00  0.00    -0.115 C  
BRANCH  14  17
HETATM   17  C   UNL     1      -8.085   8.629  69.881  1.00  0.00    -0.111 C  
BRANCH  17  18
HETATM   18  C   UNL     1      -7.119   9.622  69.236  1.00  0.00    -0.063 C  
BRANCH  18  19
HETATM   19  C   UNL     1      -7.852  10.843  68.705  1.00  0.00    -0.126 A  
HETATM   20  C   UNL     1      -7.173  12.020  68.342  1.00  0.00    -0.092 A  
HETATM   21  C   UNL     1      -7.868  13.150  67.915  1.00  0.00    -0.151 A  
HETATM   22  C   UNL     1      -9.254  13.101  67.813  1.00  0.00    -0.203 A  
HETATM   23  C   UNL     1      -9.247  10.806  68.568  1.00  0.00    -0.174 A  
HETATM   24  C   UNL     1      -9.949  11.935  68.137  1.00  0.00    -0.197 A  
BRANCH  22  25
HETATM   25  S   UNL     1     -10.130  14.559  67.314  1.00  0.00    -0.248 S  
HETATM   26  O   UNL     1      -9.400  15.221  66.254  1.00  0.00    -0.268 OA 
HETATM   27  O   UNL     1     -11.518  14.187  67.126  1.00  0.00    -0.319 OA 
BRANCH  25  28
HETATM   28  N   UNL     1     -10.115  15.500  68.681  1.00  0.00    -0.206 N  
HETATM   29  H   UNL     1      -9.382  15.328  69.370  1.00  0.00     0.000 HD 
BRANCH  28  30
HETATM   30  C   UNL     1     -11.027  16.502  68.951  1.00  0.00    -0.325 C  
HETATM   31  O   UNL     1     -10.914  17.652  68.559  1.00  0.00    -0.171 OA 
BRANCH  30  32
HETATM   32  N   UNL     1     -12.065  16.058  69.710  1.00  0.00    -0.290 N  
HETATM   33  H   UNL     1     -12.966  16.534  69.650  1.00  0.00     0.000 HD 
BRANCH  32  34
HETATM   34  C   UNL     1     -11.920  14.917  70.608  1.00  0.00    -0.305 C  
HETATM   35  C   UNL     1     -11.324  15.339  71.957  1.00  0.00    -0.431 C  
HETATM   36  C   UNL     1     -12.279  16.237  72.741  1.00  0.00    -0.592 C  
HETATM   37  C   UNL     1     -13.657  15.602  72.911  1.00  0.00    -0.658 C  
HETATM   38  C   UNL     1     -14.251  15.094  71.598  1.00  0.00    -0.664 C  
HETATM   39  C   UNL     1     -13.267  14.221  70.819  1.00  0.00    -0.255 C  
ENDBRANCH  32  34
ENDBRANCH  30  32
ENDBRANCH  28  30
ENDBRANCH  25  28
ENDBRANCH  22  25
ENDBRANCH  18  19
ENDBRANCH  17  18
ENDBRANCH  14  17
ENDBRANCH   2   3
TORSDOF 9
ENDMDL
MODEL      192
REMARK 921   NORMALIZED FREE ENERGY PREDICTED BY IDOCK:   -4.16 KCAL/MOL
REMARK 922        TOTAL FREE ENERGY PREDICTED BY IDOCK:   -8.50 KCAL/MOL
REMARK 923 INTER-LIGAND FREE ENERGY PREDICTED BY IDOCK:   -7.32 KCAL/MOL
REMARK 924 INTRA-LIGAND FREE ENERGY PREDICTED BY IDOCK:   -1.18 KCAL/MOL
REMARK 927      BINDING AFFINITY PREDICTED BY RF-SCORE:    0.00 PKD
ROOT
HETATM    1  C   UNL     1     -12.603  12.200  63.792  1.00  0.00    -0.475 C  
HETATM    2  O   UNL     1     -12.777  13.610  63.672  1.00  0.00    -0.692 OA 
ENDROOT
BRANCH   2   3
HETATM    3  C   UNL     1     -11.994  14.368  64.497  1.00  0.00    -0.472 A  
HETATM    4  C   UNL     1     -11.437  13.926  65.691  1.00  0.00    -0.321 A  
HETATM    5  C   UNL     1     -10.610  14.779  66.436  1.00  0.00    -0.300 A  
HETATM    6  C   UNL     1     -10.370  16.101  66.030  1.00  0.00    -0.372 A  
HETATM    7  C   UNL     1     -10.907  16.519  64.803  1.00  0.00    -0.145 A  
HETATM    8  C   UNL     1      -9.497  17.016  66.881  1.00  0.00    -0.266 C  
HETATM    9  C   UNL     1      -9.225  16.405  68.264  1.00  0.00    -0.207 C  
HETATM   10  C   UNL     1      -8.106  17.159  66.224  1.00  0.00    -0.325 C  
HETATM   11  C   UNL     1     -10.119  18.412  67.060  1.00  0.00    -0.382 C  
HETATM   12  C   UNL     1     -11.698  15.652  64.040  1.00  0.00     0.061 A  
HETATM   13  O   UNL     1      -9.091  17.069  69.289  1.00  0.00    -0.112 OA 
HETATM   14  N   UNL     1      -8.982  15.045  68.212  1.00  0.00    -0.169 N  
HETATM   15  O   UNL     1     -10.030  13.022  67.894  1.00  0.00    -0.217 OA 
HETATM   16  C   UNL     1      -9.866  14.197  67.582  1.00  0.00    -0.229 C  
BRANCH  14  17
HETATM   17  C   UNL     1      -7.926  14.498  69.033  1.00  0.00    -0.090 C  
BRANCH  17  18
HETATM   18  C   UNL     1      -6.897  13.604  68.340  1.00  0.00    -0.102 C  
BRANCH  18  19
HETATM   19  C   UNL     1      -6.867  12.214  68.953  1.00  0.00    -0.100 A  
HETATM   20  C   UNL     1      -6.122  11.927  70.110  1.00  0.00    -0.137 A  
HETATM   21  C   UNL     1      -6.058  10.631  70.622  1.00  0.00    -0.075 A  
HETATM   22  C   UNL     1      -6.771   9.614  69.997  1.00  0.00    -0.079 A  
HETATM   23  C   UNL     1      -7.600  11.179  68.354  1.00  0.00    -0.110 A  
HETATM   24  C   UNL     1      -7.542   9.880  68.865  1.00  0.00    -0.083 A  
BRANCH  22  25
HETATM   25  S   UNL     1      -6.643   7.963  70.630  1.00  0.00    -0.037 S  
HETATM   26  O   UNL     1      -5.491   7.311  70.044  1.00  0.00    -0.022 OA 
HETATM   27  O   UNL     1      -6.790   8.039  72.069  1.00  0.00    -0.061 OA 
BRANCH  25  28
HETATM   28  N   UNL     1      -8.036   7.238  70.090  1.00  0.00    -0.126 N  
HETATM   29  H   UNL     1      -8.032   6.838  69.152  1.00  0.00     0.000 HD 
BRANCH  28  30
HETATM   30  C   UNL     1      -9.201   7.141  70.826  1.00  0.00    -0.157 C  
HETATM   31  O   UNL     1     -10.212   7.783  70.592  1.00  0.00    -0.198 OA 
BRANCH  30  32
HETATM   32  N   UNL     1      -9.088   6.248  71.847  1.00  0.00    -0.143 N  
HETATM   33  H   UNL     1      -8.399   5.499  71.781  1.00  0.00     0.000 HD 
BRANCH  32  34
HETATM   34  C   UNL     1      -9.930   6.339  73.035  1.00  0.00    -0.173 C  
HETATM   35  C   UNL     1     -11.112   5.364  72.959  1.00  0.00    -0.368 C  
HETATM   36  C   UNL     1     -10.649   3.910  73.011  1.00  0.00    -0.254 C  
HETATM   37  C   UNL     1      -9.769   3.629  74.226  1.00  0.00    -0.147 C  
HETATM   38  C   UNL     1      -8.625   4.630  74.384  1.00  0.00    -0.106 C  
HETATM   39  C   UNL     1      -9.109   6.077  74.300  1.00  0.00    -0.132 C  
ENDBRANCH  32  34
ENDBRANCH  30  32
ENDBRANCH  28  30
ENDBRANCH  25  28
ENDBRANCH  22  25
ENDBRANCH  18  19
ENDBRANCH  17  18
ENDBRANCH  14  17
ENDBRANCH   2   3
TORSDOF 9
ENDMDL
MODEL      193
REMARK 921   NORMALIZED FREE ENERGY PREDICTED BY IDOCK:   -4.15 KCAL/MOL
REMARK 922        TOTAL FREE ENERGY PREDICTED BY IDOCK:   -8.48 KCAL/MOL
REMARK 923 INTER-LIGAND FREE ENERGY PREDICTED BY IDOCK:   -7.38 KCAL/MOL
REMARK 924 INTRA-LIGAND FREE ENERGY PREDICTED BY IDOCK:   -1.10 KCAL/MOL
REMARK 927      BINDING AFFINITY PREDICTED BY RF-SCORE:    0.00 PKD
ROOT
HETATM    1  C   UNL     1     -12.857  12.215  63.308  1.00  0.00    -0.173 C  
HETATM    2  O   UNL     1     -12.709  13.623  63.472  1.00  0.00    -0.724 OA 
ENDROOT
BRANCH   2   3
HETATM    3  C   UNL     1     -11.825  14.010  64.439  1.00  0.00    -0.431 A  
HETATM    4  C   UNL     1     -11.177  13.148  65.316  1.00  0.00    -0.315 A  
HETATM    5  C   UNL     1     -10.253  13.652  66.241  1.00  0.00    -0.296 A  
HETATM    6  C   UNL     1     -10.001  15.030  66.343  1.00  0.00    -0.295 A  
HETATM    7  C   UNL     1     -10.633  15.883  65.425  1.00  0.00    -0.439 A  
HETATM    8  C   UNL     1      -9.018  15.552  67.385  1.00  0.00    -0.203 C  
HETATM    9  C   UNL     1      -8.644  14.461  68.399  1.00  0.00    -0.174 C  
HETATM   10  C   UNL     1      -7.689  15.933  66.695  1.00  0.00    -0.199 C  
HETATM   11  C   UNL     1      -9.567  16.775  68.140  1.00  0.00    -0.242 C  
HETATM   12  C   UNL     1     -11.523  15.372  64.475  1.00  0.00    -0.314 A  
HETATM   13  O   UNL     1      -8.390  14.686  69.580  1.00  0.00     0.067 OA 
HETATM   14  N   UNL     1      -8.458  13.223  67.812  1.00  0.00    -0.167 N  
HETATM   15  O   UNL     1      -9.608  11.473  66.859  1.00  0.00    -0.183 OA 
HETATM   16  C   UNL     1      -9.429  12.678  67.000  1.00  0.00    -0.220 C  
BRANCH  14  17
HETATM   17  C   UNL     1      -7.353  12.404  68.255  1.00  0.00    -0.113 C  
BRANCH  17  18
HETATM   18  C   UNL     1      -7.352  10.940  67.816  1.00  0.00    -0.093 C  
BRANCH  18  19
HETATM   19  C   UNL     1      -7.701  10.014  68.970  1.00  0.00    -0.094 A  
HETATM   20  C   UNL     1      -6.809   9.030  69.430  1.00  0.00    -0.049 A  
HETATM   21  C   UNL     1      -7.171   8.150  70.449  1.00  0.00    -0.048 A  
HETATM   22  C   UNL     1      -8.423   8.271  71.043  1.00  0.00    -0.133 A  
HETATM   23  C   UNL     1      -8.947  10.136  69.601  1.00  0.00    -0.190 A  
HETATM   24  C   UNL     1      -9.314   9.260  70.625  1.00  0.00    -0.329 A  
BRANCH  22  25
HETATM   25  S   UNL     1      -8.889   7.116  72.305  1.00  0.00    -0.128 S  
HETATM   26  O   UNL     1      -7.764   6.260  72.614  1.00  0.00    -0.100 OA 
HETATM   27  O   UNL     1      -9.550   7.866  73.354  1.00  0.00    -0.281 OA 
BRANCH  25  28
HETATM   28  N   UNL     1     -10.092   6.228  71.584  1.00  0.00    -0.187 N  
HETATM   29  H   UNL     1     -11.052   6.559  71.682  1.00  0.00     0.000 HD 
BRANCH  28  30
HETATM   30  C   UNL     1      -9.882   5.070  70.860  1.00  0.00    -0.205 C  
HETATM   31  O   UNL     1     -10.324   3.978  71.176  1.00  0.00    -0.014 OA 
BRANCH  30  32
HETATM   32  N   UNL     1      -9.117   5.289  69.756  1.00  0.00    -0.114 N  
HETATM   33  H   UNL     1      -8.196   5.714  69.864  1.00  0.00     0.000 HD 
BRANCH  32  34
HETATM   34  C   UNL     1      -9.584   4.930  68.422  1.00  0.00    -0.146 C  
HETATM   35  C   UNL     1     -10.543   5.988  67.861  1.00  0.00    -0.337 C  
HETATM   36  C   UNL     1      -9.832   7.314  67.599  1.00  0.00    -0.189 C  
HETATM   37  C   UNL     1      -8.604   7.141  66.708  1.00  0.00    -0.124 C  
HETATM   38  C   UNL     1      -7.662   6.039  67.188  1.00  0.00    -0.101 C  
HETATM   39  C   UNL     1      -8.401   4.731  67.470  1.00  0.00    -0.104 C  
ENDBRANCH  32  34
ENDBRANCH  30  32
ENDBRANCH  28  30
ENDBRANCH  25  28
ENDBRANCH  22  25
ENDBRANCH  18  19
ENDBRANCH  17  18
ENDBRANCH  14  17
ENDBRANCH   2   3
TORSDOF 9
ENDMDL
MODEL      194
REMARK 921   NORMALIZED FREE ENERGY PREDICTED BY IDOCK:   -4.13 KCAL/MOL
REMARK 922        TOTAL FREE ENERGY PREDICTED BY IDOCK:   -8.45 KCAL/MOL
REMARK 923 INTER-LIGAND FREE ENERGY PREDICTED BY IDOCK:   -7.28 KCAL/MOL
REMARK 924 INTRA-LIGAND FREE ENERGY PREDICTED BY IDOCK:   -1.17 KCAL/MOL
REMARK 927      BINDING AFFINITY PREDICTED BY RF-SCORE:    0.00 PKD
ROOT
HETATM    1  C   UNL     1      -5.911  20.356  70.154  1.00  0.00    -0.340 C  
HETATM    2  O   UNL     1      -5.513  19.368  69.207  1.00  0.00    -0.197 OA 
ENDROOT
BRANCH   2   3
HETATM    3  C   UNL     1      -6.535  18.677  68.619  1.00  0.00    -0.234 A  
HETATM    4  C   UNL     1      -6.555  17.301  68.423  1.00  0.00    -0.174 A  
HETATM    5  C   UNL     1      -7.679  16.691  67.848  1.00  0.00    -0.170 A  
HETATM    6  C   UNL     1      -8.777  17.450  67.412  1.00  0.00    -0.227 A  
HETATM    7  C   UNL     1      -8.758  18.832  67.653  1.00  0.00    -0.300 A  
HETATM    8  C   UNL     1      -9.969  16.762  66.756  1.00  0.00    -0.286 C  
HETATM    9  C   UNL     1      -9.650  15.301  66.405  1.00  0.00    -0.292 C  
HETATM   10  C   UNL     1     -11.139  16.688  67.763  1.00  0.00    -0.157 C  
HETATM   11  C   UNL     1     -10.438  17.494  65.487  1.00  0.00    -0.077 C  
HETATM   12  C   UNL     1      -7.653  19.432  68.265  1.00  0.00    -0.345 A  
HETATM   13  O   UNL     1     -10.117  14.716  65.430  1.00  0.00    -0.349 OA 
HETATM   14  N   UNL     1      -8.918  14.660  67.388  1.00  0.00    -0.185 N  
HETATM   15  O   UNL     1      -6.810  14.550  68.302  1.00  0.00    -0.094 OA 
HETATM   16  C   UNL     1      -7.745  15.208  67.860  1.00  0.00    -0.135 C  
BRANCH  14  17
HETATM   17  C   UNL     1      -9.262  13.299  67.732  1.00  0.00    -0.209 C  
BRANCH  17  18
HETATM   18  C   UNL     1     -10.687  13.046  68.226  1.00  0.00    -0.261 C  
BRANCH  18  19
HETATM   19  C   UNL     1     -10.765  11.785  69.072  1.00  0.00    -0.209 A  
HETATM   20  C   UNL     1      -9.641  10.971  69.299  1.00  0.00    -0.008 A  
HETATM   21  C   UNL     1      -9.746   9.786  70.027  1.00  0.00    -0.292 A  
HETATM   22  C   UNL     1     -10.975   9.422  70.565  1.00  0.00    -0.274 A  
HETATM   23  C   UNL     1     -11.988  11.414  69.646  1.00  0.00    -0.416 A  
HETATM   24  C   UNL     1     -12.098  10.229  70.380  1.00  0.00    -0.373 A  
BRANCH  22  25
HETATM   25  S   UNL     1     -11.106   7.890  71.447  1.00  0.00    -0.248 S  
HETATM   26  O   UNL     1     -12.381   7.835  72.130  1.00  0.00    -0.301 OA 
HETATM   27  O   UNL     1     -10.716   6.833  70.537  1.00  0.00    -0.222 OA 
BRANCH  25  28
HETATM   28  N   UNL     1      -9.875   7.982  72.557  1.00  0.00    -0.235 N  
HETATM   29  H   UNL     1      -9.598   8.907  72.884  1.00  0.00     0.000 HD 
BRANCH  28  30
HETATM   30  C   UNL     1      -9.201   6.890  73.068  1.00  0.00    -0.132 C  
HETATM   31  O   UNL     1      -9.363   6.454  74.196  1.00  0.00    -0.149 OA 
BRANCH  30  32
HETATM   32  N   UNL     1      -8.329   6.360  72.168  1.00  0.00    -0.109 N  
HETATM   33  H   UNL     1      -8.039   6.919  71.366  1.00  0.00     0.000 HD 
BRANCH  32  34
HETATM   34  C   UNL     1      -7.798   5.010  72.325  1.00  0.00    -0.100 C  
HETATM   35  C   UNL     1      -7.582   4.332  70.966  1.00  0.00    -0.059 C  
HETATM   36  C   UNL     1      -6.476   5.015  70.163  1.00  0.00    -0.034 C  
HETATM   37  C   UNL     1      -5.173   5.117  70.952  1.00  0.00    -0.004 C  
HETATM   38  C   UNL     1      -5.359   5.713  72.346  1.00  0.00    -0.018 C  
HETATM   39  C   UNL     1      -6.489   5.033  73.118  1.00  0.00    -0.060 C  
ENDBRANCH  32  34
ENDBRANCH  30  32
ENDBRANCH  28  30
ENDBRANCH  25  28
ENDBRANCH  22  25
ENDBRANCH  18  19
ENDBRANCH  17  18
ENDBRANCH  14  17
ENDBRANCH   2   3
TORSDOF 9
ENDMDL
MODEL      195
REMARK 921   NORMALIZED FREE ENERGY PREDICTED BY IDOCK:   -4.13 KCAL/MOL
REMARK 922        TOTAL FREE ENERGY PREDICTED BY IDOCK:   -8.45 KCAL/MOL
REMARK 923 INTER-LIGAND FREE ENERGY PREDICTED BY IDOCK:   -7.22 KCAL/MOL
REMARK 924 INTRA-LIGAND FREE ENERGY PREDICTED BY IDOCK:   -1.23 KCAL/MOL
REMARK 927      BINDING AFFINITY PREDICTED BY RF-SCORE:    0.00 PKD
ROOT
HETATM    1  C   UNL     1      -5.170  20.822  63.895  1.00  0.00    -0.200 C  
HETATM    2  O   UNL     1      -6.449  20.964  64.506  1.00  0.00    -0.298 OA 
ENDROOT
BRANCH   2   3
HETATM    3  C   UNL     1      -6.809  19.952  65.351  1.00  0.00    -0.299 A  
HETATM    4  C   UNL     1      -8.116  19.546  65.595  1.00  0.00     0.108 A  
HETATM    5  C   UNL     1      -8.366  18.464  66.450  1.00  0.00    -0.272 A  
HETATM    6  C   UNL     1      -7.321  17.804  67.117  1.00  0.00    -0.208 A  
HETATM    7  C   UNL     1      -6.006  18.200  66.829  1.00  0.00    -0.179 A  
HETATM    8  C   UNL     1      -7.627  16.654  68.069  1.00  0.00    -0.171 C  
HETATM    9  C   UNL     1      -9.129  16.570  68.382  1.00  0.00    -0.222 C  
HETATM   10  C   UNL     1      -7.282  15.312  67.385  1.00  0.00    -0.235 C  
HETATM   11  C   UNL     1      -6.843  16.767  69.388  1.00  0.00    -0.202 C  
HETATM   12  C   UNL     1      -5.757  19.254  65.943  1.00  0.00    -0.184 A  
HETATM   13  O   UNL     1      -9.580  16.195  69.462  1.00  0.00    -0.235 OA 
HETATM   14  N   UNL     1      -9.922  16.798  67.273  1.00  0.00    -0.265 N  
HETATM   15  O   UNL     1     -10.649  18.471  65.871  1.00  0.00    -0.488 OA 
HETATM   16  C   UNL     1      -9.750  17.930  66.507  1.00  0.00    -0.329 C  
BRANCH  14  17
HETATM   17  C   UNL     1     -11.087  15.967  67.071  1.00  0.00    -0.071 C  
BRANCH  17  18
HETATM   18  C   UNL     1     -11.442  14.984  68.187  1.00  0.00    -0.355 C  
BRANCH  18  19
HETATM   19  C   UNL     1     -11.132  13.551  67.783  1.00  0.00    -0.291 A  
HETATM   20  C   UNL     1     -11.432  12.462  68.619  1.00  0.00    -0.348 A  
HETATM   21  C   UNL     1     -11.084  11.161  68.258  1.00  0.00    -0.310 A  
HETATM   22  C   UNL     1     -10.462  10.934  67.035  1.00  0.00    -0.244 A  
HETATM   23  C   UNL     1     -10.529  13.299  66.543  1.00  0.00    -0.282 A  
HETATM   24  C   UNL     1     -10.182  11.996  66.174  1.00  0.00    -0.255 A  
BRANCH  22  25
HETATM   25  S   UNL     1      -9.982   9.282  66.609  1.00  0.00    -0.274 S  
HETATM   26  O   UNL     1     -11.018   8.358  67.022  1.00  0.00    -0.115 OA 
HETATM   27  O   UNL     1      -9.527   9.305  65.234  1.00  0.00    -0.245 OA 
BRANCH  25  28
HETATM   28  N   UNL     1      -8.613   9.036  67.515  1.00  0.00    -0.120 N  
HETATM   29  H   UNL     1      -8.718   8.581  68.422  1.00  0.00     0.000 HD 
BRANCH  28  30
HETATM   30  C   UNL     1      -7.341   9.404  67.124  1.00  0.00    -0.087 C  
HETATM   31  O   UNL     1      -6.825   9.065  66.071  1.00  0.00    -0.078 OA 
BRANCH  30  32
HETATM   32  N   UNL     1      -6.727  10.186  68.053  1.00  0.00    -0.063 N  
HETATM   33  H   UNL     1      -5.730  10.382  67.959  1.00  0.00     0.000 HD 
BRANCH  32  34
HETATM   34  C   UNL     1      -7.461  10.750  69.180  1.00  0.00    -0.123 C  
HETATM   35  C   UNL     1      -7.027  10.113  70.506  1.00  0.00    -0.059 C  
HETATM   36  C   UNL     1      -5.584  10.469  70.860  1.00  0.00    -0.092 C  
HETATM   37  C   UNL     1      -5.348  11.977  70.859  1.00  0.00    -0.139 C  
HETATM   38  C   UNL     1      -5.842  12.663  69.586  1.00  0.00    -0.114 C  
HETATM   39  C   UNL     1      -7.277  12.269  69.239  1.00  0.00     0.123 C  
ENDBRANCH  32  34
ENDBRANCH  30  32
ENDBRANCH  28  30
ENDBRANCH  25  28
ENDBRANCH  22  25
ENDBRANCH  18  19
ENDBRANCH  17  18
ENDBRANCH  14  17
ENDBRANCH   2   3
TORSDOF 9
ENDMDL
MODEL      196
REMARK 921   NORMALIZED FREE ENERGY PREDICTED BY IDOCK:   -4.12 KCAL/MOL
REMARK 922        TOTAL FREE ENERGY PREDICTED BY IDOCK:   -8.44 KCAL/MOL
REMARK 923 INTER-LIGAND FREE ENERGY PREDICTED BY IDOCK:   -6.66 KCAL/MOL
REMARK 924 INTRA-LIGAND FREE ENERGY PREDICTED BY IDOCK:   -1.78 KCAL/MOL
REMARK 927      BINDING AFFINITY PREDICTED BY RF-SCORE:    0.00 PKD
ROOT
HETATM    1  C   UNL     1     -12.683  11.354  70.369  1.00  0.00    -0.092 C  
HETATM    2  O   UNL     1     -11.280  11.102  70.352  1.00  0.00    -0.184 OA 
ENDROOT
BRANCH   2   3
HETATM    3  C   UNL     1     -10.919   9.793  70.510  1.00  0.00    -0.321 A  
HETATM    4  C   UNL     1     -10.636   8.916  69.470  1.00  0.00    -0.233 A  
HETATM    5  C   UNL     1     -10.230   7.604  69.751  1.00  0.00    -0.210 A  
HETATM    6  C   UNL     1     -10.152   7.131  71.072  1.00  0.00    -0.199 A  
HETATM    7  C   UNL     1     -10.403   8.040  72.110  1.00  0.00    -0.318 A  
HETATM    8  C   UNL     1      -9.744   5.688  71.344  1.00  0.00    -0.204 C  
HETATM    9  C   UNL     1      -9.748   4.851  70.056  1.00  0.00    -0.215 C  
HETATM   10  C   UNL     1      -8.282   5.651  71.843  1.00  0.00    -0.119 C  
HETATM   11  C   UNL     1     -10.653   5.013  72.386  1.00  0.00    -0.275 C  
HETATM   12  C   UNL     1     -10.767   9.361  71.827  1.00  0.00    -0.190 A  
HETATM   13  O   UNL     1     -10.033   3.656  70.019  1.00  0.00    -0.083 OA 
HETATM   14  N   UNL     1      -9.237   5.536  68.969  1.00  0.00    -0.117 N  
HETATM   15  O   UNL     1      -9.738   7.217  67.481  1.00  0.00    -0.136 OA 
HETATM   16  C   UNL     1      -9.729   6.776  68.625  1.00  0.00    -0.131 C  
BRANCH  14  17
HETATM   17  C   UNL     1      -8.361   4.835  68.057  1.00  0.00    -0.102 C  
BRANCH  17  18
HETATM   18  C   UNL     1      -6.873   5.180  68.119  1.00  0.00    -0.060 C  
BRANCH  18  19
HETATM   19  C   UNL     1      -6.597   6.557  67.535  1.00  0.00    -0.061 A  
HETATM   20  C   UNL     1      -6.344   7.673  68.351  1.00  0.00    -0.041 A  
HETATM   21  C   UNL     1      -6.154   8.939  67.800  1.00  0.00    -0.051 A  
HETATM   22  C   UNL     1      -6.182   9.094  66.418  1.00  0.00    -0.065 A  
HETATM   23  C   UNL     1      -6.594   6.729  66.144  1.00  0.00    -0.051 A  
HETATM   24  C   UNL     1      -6.400   7.995  65.586  1.00  0.00    -0.042 A  
BRANCH  22  25
HETATM   25  S   UNL     1      -5.986  10.716  65.731  1.00  0.00    -0.127 S  
HETATM   26  O   UNL     1      -5.167  11.517  66.615  1.00  0.00    -0.109 OA 
HETATM   27  O   UNL     1      -5.621  10.555  64.339  1.00  0.00    -0.141 OA 
BRANCH  25  28
HETATM   28  N   UNL     1      -7.536  11.310  65.707  1.00  0.00    -0.362 N  
HETATM   29  H   UNL     1      -8.101  11.132  64.877  1.00  0.00     0.000 HD 
BRANCH  28  30
HETATM   30  C   UNL     1      -8.114  12.028  66.736  1.00  0.00    -0.081 C  
HETATM   31  O   UNL     1      -7.683  12.053  67.877  1.00  0.00    -0.115 OA 
BRANCH  30  32
HETATM   32  N   UNL     1      -9.225  12.701  66.329  1.00  0.00    -0.404 N  
HETATM   33  H   UNL     1      -9.125  13.487  65.687  1.00  0.00     0.000 HD 
BRANCH  32  34
HETATM   34  C   UNL     1     -10.556  12.323  66.791  1.00  0.00    -0.224 C  
HETATM   35  C   UNL     1     -11.505  13.529  66.809  1.00  0.00    -0.374 C  
HETATM   36  C   UNL     1     -11.794  14.042  65.400  1.00  0.00    -0.363 C  
HETATM   37  C   UNL     1     -12.309  12.937  64.480  1.00  0.00    -0.483 C  
HETATM   38  C   UNL     1     -11.434  11.685  64.496  1.00  0.00    -0.272 C  
HETATM   39  C   UNL     1     -11.135  11.208  65.917  1.00  0.00    -0.105 C  
ENDBRANCH  32  34
ENDBRANCH  30  32
ENDBRANCH  28  30
ENDBRANCH  25  28
ENDBRANCH  22  25
ENDBRANCH  18  19
ENDBRANCH  17  18
ENDBRANCH  14  17
ENDBRANCH   2   3
TORSDOF 9
ENDMDL
MODEL      197
REMARK 921   NORMALIZED FREE ENERGY PREDICTED BY IDOCK:   -4.09 KCAL/MOL
REMARK 922        TOTAL FREE ENERGY PREDICTED BY IDOCK:   -8.39 KCAL/MOL
REMARK 923 INTER-LIGAND FREE ENERGY PREDICTED BY IDOCK:   -6.44 KCAL/MOL
REMARK 924 INTRA-LIGAND FREE ENERGY PREDICTED BY IDOCK:   -1.95 KCAL/MOL
REMARK 927      BINDING AFFINITY PREDICTED BY RF-SCORE:    0.00 PKD
ROOT
HETATM    1  C   UNL     1      -8.870  17.793  67.886  1.00  0.00    -0.251 C  
HETATM    2  O   UNL     1      -7.831  17.034  67.272  1.00  0.00    -0.164 OA 
ENDROOT
BRANCH   2   3
HETATM    3  C   UNL     1      -7.807  15.707  67.597  1.00  0.00    -0.154 A  
HETATM    4  C   UNL     1      -8.926  14.886  67.674  1.00  0.00    -0.181 A  
HETATM    5  C   UNL     1      -8.777  13.525  67.973  1.00  0.00    -0.181 A  
HETATM    6  C   UNL     1      -7.517  12.973  68.252  1.00  0.00    -0.128 A  
HETATM    7  C   UNL     1      -6.394  13.805  68.132  1.00  0.00    -0.125 A  
HETATM    8  C   UNL     1      -7.391  11.496  68.611  1.00  0.00    -0.106 C  
HETATM    9  C   UNL     1      -8.765  10.870  68.896  1.00  0.00    -0.140 C  
HETATM   10  C   UNL     1      -6.838  10.716  67.397  1.00  0.00    -0.077 C  
HETATM   11  C   UNL     1      -6.472  11.268  69.823  1.00  0.00    -0.140 C  
HETATM   12  C   UNL     1      -6.541  15.154  67.792  1.00  0.00    -0.186 A  
HETATM   13  O   UNL     1      -8.948   9.971  69.714  1.00  0.00    -0.207 OA 
HETATM   14  N   UNL     1      -9.745  11.304  68.022  1.00  0.00    -0.174 N  
HETATM   15  O   UNL     1     -11.054  13.127  67.519  1.00  0.00    -0.256 OA 
HETATM   16  C   UNL     1      -9.967  12.649  67.828  1.00  0.00    -0.218 C  
BRANCH  14  17
HETATM   17  C   UNL     1     -10.691  10.340  67.509  1.00  0.00    -0.294 C  
BRANCH  17  18
HETATM   18  C   UNL     1     -10.277   9.552  66.266  1.00  0.00    -0.290 C  
BRANCH  18  19
HETATM   19  C   UNL     1      -9.885   8.126  66.618  1.00  0.00    -0.331 A  
HETATM   20  C   UNL     1     -10.678   7.321  67.454  1.00  0.00    -0.358 A  
HETATM   21  C   UNL     1     -10.270   6.037  67.815  1.00  0.00    -0.219 A  
HETATM   22  C   UNL     1      -9.077   5.533  67.310  1.00  0.00    -0.110 A  
HETATM   23  C   UNL     1      -8.699   7.588  66.098  1.00  0.00    -0.174 A  
HETATM   24  C   UNL     1      -8.288   6.301  66.453  1.00  0.00    -0.118 A  
BRANCH  22  25
HETATM   25  S   UNL     1      -8.547   3.918  67.814  1.00  0.00    -0.102 S  
HETATM   26  O   UNL     1      -9.706   3.090  68.074  1.00  0.00    -0.137 OA 
HETATM   27  O   UNL     1      -7.532   3.484  66.875  1.00  0.00    -0.073 OA 
BRANCH  25  28
HETATM   28  N   UNL     1      -7.731   4.208  69.230  1.00  0.00    -0.054 N  
HETATM   29  H   UNL     1      -6.996   4.915  69.220  1.00  0.00     0.000 HD 
BRANCH  28  30
HETATM   30  C   UNL     1      -7.981   3.556  70.422  1.00  0.00    -0.046 C  
HETATM   31  O   UNL     1      -7.642   2.408  70.657  1.00  0.00    -0.036 OA 
BRANCH  30  32
HETATM   32  N   UNL     1      -8.655   4.344  71.304  1.00  0.00    -0.104 N  
HETATM   33  H   UNL     1      -8.143   5.048  71.836  1.00  0.00     0.000 HD 
BRANCH  32  34
HETATM   34  C   UNL     1     -10.093   4.204  71.506  1.00  0.00    -0.114 C  
HETATM   35  C   UNL     1     -10.404   3.439  72.799  1.00  0.00    -0.240 C  
HETATM   36  C   UNL     1      -9.987   4.229  74.038  1.00  0.00    -0.185 C  
HETATM   37  C   UNL     1     -10.593   5.630  74.056  1.00  0.00    -0.258 C  
HETATM   38  C   UNL     1     -10.374   6.397  72.753  1.00  0.00    -0.222 C  
HETATM   39  C   UNL     1     -10.772   5.575  71.527  1.00  0.00    -0.290 C  
ENDBRANCH  32  34
ENDBRANCH  30  32
ENDBRANCH  28  30
ENDBRANCH  25  28
ENDBRANCH  22  25
ENDBRANCH  18  19
ENDBRANCH  17  18
ENDBRANCH  14  17
ENDBRANCH   2   3
TORSDOF 9
ENDMDL
MODEL      198
REMARK 921   NORMALIZED FREE ENERGY PREDICTED BY IDOCK:   -4.09 KCAL/MOL
REMARK 922        TOTAL FREE ENERGY PREDICTED BY IDOCK:   -8.39 KCAL/MOL
REMARK 923 INTER-LIGAND FREE ENERGY PREDICTED BY IDOCK:   -7.00 KCAL/MOL
REMARK 924 INTRA-LIGAND FREE ENERGY PREDICTED BY IDOCK:   -1.38 KCAL/MOL
REMARK 927      BINDING AFFINITY PREDICTED BY RF-SCORE:    0.00 PKD
ROOT
HETATM    1  C   UNL     1     -12.408  11.607  63.569  1.00  0.00    -0.238 C  
HETATM    2  O   UNL     1     -13.117  12.436  64.486  1.00  0.00    -0.823 OA 
ENDROOT
BRANCH   2   3
HETATM    3  C   UNL     1     -12.384  13.438  65.057  1.00  0.00    -0.436 A  
HETATM    4  C   UNL     1     -11.886  13.419  66.354  1.00  0.00    -0.441 A  
HETATM    5  C   UNL     1     -11.106  14.486  66.821  1.00  0.00    -0.325 A  
HETATM    6  C   UNL     1     -10.855  15.611  66.019  1.00  0.00    -0.276 A  
HETATM    7  C   UNL     1     -11.331  15.597  64.699  1.00  0.00    -0.355 A  
HETATM    8  C   UNL     1     -10.033  16.773  66.568  1.00  0.00    -0.308 C  
HETATM    9  C   UNL     1      -9.829  16.647  68.085  1.00  0.00    -0.250 C  
HETATM   10  C   UNL     1      -8.611  16.728  65.965  1.00  0.00    -0.213 C  
HETATM   11  C   UNL     1     -10.674  18.136  66.256  1.00  0.00    -0.157 C  
HETATM   12  C   UNL     1     -12.074  14.512  64.223  1.00  0.00    -0.448 A  
HETATM   13  O   UNL     1      -9.753  17.611  68.845  1.00  0.00    -0.300 OA 
HETATM   14  N   UNL     1      -9.573  15.350  68.488  1.00  0.00    -0.196 N  
HETATM   15  O   UNL     1     -10.588  13.309  68.794  1.00  0.00    -0.244 OA 
HETATM   16  C   UNL     1     -10.418  14.323  68.126  1.00  0.00    -0.246 C  
BRANCH  14  17
HETATM   17  C   UNL     1      -8.558  15.122  69.491  1.00  0.00    -0.133 C  
BRANCH  17  18
HETATM   18  C   UNL     1      -7.189  14.651  69.000  1.00  0.00    -0.135 C  
BRANCH  18  19
HETATM   19  C   UNL     1      -6.975  13.174  69.288  1.00  0.00     0.027 A  
HETATM   20  C   UNL     1      -6.267  12.732  70.420  1.00  0.00     0.089 A  
HETATM   21  C   UNL     1      -6.028  11.375  70.635  1.00  0.00    -0.040 A  
HETATM   22  C   UNL     1      -6.529  10.442  69.733  1.00  0.00    -0.089 A  
HETATM   23  C   UNL     1      -7.494  12.216  68.406  1.00  0.00    -0.114 A  
HETATM   24  C   UNL     1      -7.261  10.854  68.619  1.00  0.00    -0.088 A  
BRANCH  22  25
HETATM   25  S   UNL     1      -6.178   8.724  69.992  1.00  0.00    -0.038 S  
HETATM   26  O   UNL     1      -5.955   8.080  68.715  1.00  0.00    -0.037 OA 
HETATM   27  O   UNL     1      -5.181   8.640  71.039  1.00  0.00    -0.028 OA 
BRANCH  25  28
HETATM   28  N   UNL     1      -7.576   8.148  70.678  1.00  0.00    -0.071 N  
HETATM   29  H   UNL     1      -7.727   8.325  71.671  1.00  0.00     0.000 HD 
BRANCH  28  30
HETATM   30  C   UNL     1      -8.549   7.445  69.995  1.00  0.00    -0.140 C  
HETATM   31  O   UNL     1      -9.166   7.886  69.039  1.00  0.00    -0.148 OA 
BRANCH  30  32
HETATM   32  N   UNL     1      -8.744   6.203  70.516  1.00  0.00    -0.141 N  
HETATM   33  H   UNL     1      -8.493   6.026  71.488  1.00  0.00     0.000 HD 
BRANCH  32  34
HETATM   34  C   UNL     1      -9.306   5.120  69.716  1.00  0.00    -0.129 C  
HETATM   35  C   UNL     1      -8.259   4.526  68.766  1.00  0.00    -0.082 C  
HETATM   36  C   UNL     1      -7.145   3.810  69.528  1.00  0.00    -0.045 C  
HETATM   37  C   UNL     1      -7.691   2.757  70.489  1.00  0.00    -0.043 C  
HETATM   38  C   UNL     1      -8.796   3.290  71.400  1.00  0.00    -0.136 C  
HETATM   39  C   UNL     1      -9.884   4.026  70.617  1.00  0.00    -0.229 C  
ENDBRANCH  32  34
ENDBRANCH  30  32
ENDBRANCH  28  30
ENDBRANCH  25  28
ENDBRANCH  22  25
ENDBRANCH  18  19
ENDBRANCH  17  18
ENDBRANCH  14  17
ENDBRANCH   2   3
TORSDOF 9
ENDMDL
MODEL      199
REMARK 921   NORMALIZED FREE ENERGY PREDICTED BY IDOCK:   -4.07 KCAL/MOL
REMARK 922        TOTAL FREE ENERGY PREDICTED BY IDOCK:   -8.36 KCAL/MOL
REMARK 923 INTER-LIGAND FREE ENERGY PREDICTED BY IDOCK:   -7.10 KCAL/MOL
REMARK 924 INTRA-LIGAND FREE ENERGY PREDICTED BY IDOCK:   -1.26 KCAL/MOL
REMARK 927      BINDING AFFINITY PREDICTED BY RF-SCORE:    0.00 PKD
ROOT
HETATM    1  C   UNL     1      -9.028   4.628  65.230  1.00  0.00    -0.148 C  
HETATM    2  O   UNL     1      -8.443   5.927  65.194  1.00  0.00    -0.151 OA 
ENDROOT
BRANCH   2   3
HETATM    3  C   UNL     1      -8.284   6.531  66.409  1.00  0.00    -0.116 A  
HETATM    4  C   UNL     1      -7.703   7.778  66.608  1.00  0.00    -0.098 A  
HETATM    5  C   UNL     1      -7.633   8.321  67.898  1.00  0.00    -0.102 A  
HETATM    6  C   UNL     1      -8.093   7.607  69.016  1.00  0.00    -0.126 A  
HETATM    7  C   UNL     1      -8.713   6.368  68.795  1.00  0.00    -0.122 A  
HETATM    8  C   UNL     1      -7.970   8.209  70.411  1.00  0.00    -0.099 C  
HETATM    9  C   UNL     1      -7.063   9.449  70.409  1.00  0.00    -0.104 C  
HETATM   10  C   UNL     1      -9.351   8.721  70.876  1.00  0.00    -0.266 C  
HETATM   11  C   UNL     1      -7.433   7.195  71.437  1.00  0.00    -0.080 C  
HETATM   12  C   UNL     1      -8.819   5.847  67.501  1.00  0.00    -0.106 A  
HETATM   13  O   UNL     1      -6.343   9.770  71.352  1.00  0.00    -0.276 OA 
HETATM   14  N   UNL     1      -7.264  10.259  69.306  1.00  0.00    -0.081 N  
HETATM   15  O   UNL     1      -6.868  10.378  67.043  1.00  0.00    -0.080 OA 
HETATM   16  C   UNL     1      -7.207   9.737  68.032  1.00  0.00    -0.080 C  
BRANCH  14  17
HETATM   17  C   UNL     1      -7.285  11.692  69.493  1.00  0.00     0.116 C  
BRANCH  17  18
HETATM   18  C   UNL     1      -6.062  12.474  69.015  1.00  0.00    -0.081 C  
BRANCH  18  19
HETATM   19  C   UNL     1      -6.432  13.893  68.615  1.00  0.00    -0.092 A  
HETATM   20  C   UNL     1      -6.049  15.007  69.383  1.00  0.00    -0.110 A  
HETATM   21  C   UNL     1      -6.450  16.295  69.033  1.00  0.00    -0.162 A  
HETATM   22  C   UNL     1      -7.212  16.485  67.885  1.00  0.00    -0.140 A  
HETATM   23  C   UNL     1      -7.178  14.109  67.448  1.00  0.00    -0.124 A  
HETATM   24  C   UNL     1      -7.579  15.399  67.090  1.00  0.00    -0.238 A  
BRANCH  22  25
HETATM   25  S   UNL     1      -7.756  18.122  67.477  1.00  0.00    -0.219 S  
HETATM   26  O   UNL     1      -6.753  19.080  67.892  1.00  0.00    -0.215 OA 
HETATM   27  O   UNL     1      -8.218  18.094  66.104  1.00  0.00    -0.428 OA 
BRANCH  25  28
HETATM   28  N   UNL     1      -9.128  18.309  68.392  1.00  0.00    -0.310 N  
HETATM   29  H   UNL     1      -9.016  18.608  69.361  1.00  0.00     0.000 HD 
BRANCH  28  30
HETATM   30  C   UNL     1     -10.411  18.087  67.932  1.00  0.00    -0.392 C  
HETATM   31  O   UNL     1     -11.062  18.905  67.303  1.00  0.00    -0.349 OA 
BRANCH  30  32
HETATM   32  N   UNL     1     -10.868  16.849  68.267  1.00  0.00    -0.372 N  
HETATM   33  H   UNL     1     -11.605  16.421  67.707  1.00  0.00     0.000 HD 
BRANCH  32  34
HETATM   34  C   UNL     1     -10.327  16.120  69.409  1.00  0.00    -0.277 C  
HETATM   35  C   UNL     1     -11.193  16.317  70.659  1.00  0.00    -0.310 C  
HETATM   36  C   UNL     1     -12.570  15.675  70.500  1.00  0.00    -0.423 C  
HETATM   37  C   UNL     1     -12.476  14.203  70.108  1.00  0.00    -0.391 C  
HETATM   38  C   UNL     1     -11.556  13.955  68.915  1.00  0.00    -0.353 C  
HETATM   39  C   UNL     1     -10.195  14.630  69.086  1.00  0.00    -0.199 C  
ENDBRANCH  32  34
ENDBRANCH  30  32
ENDBRANCH  28  30
ENDBRANCH  25  28
ENDBRANCH  22  25
ENDBRANCH  18  19
ENDBRANCH  17  18
ENDBRANCH  14  17
ENDBRANCH   2   3
TORSDOF 9
ENDMDL
MODEL      200
REMARK 921   NORMALIZED FREE ENERGY PREDICTED BY IDOCK:   -4.05 KCAL/MOL
REMARK 922        TOTAL FREE ENERGY PREDICTED BY IDOCK:   -8.33 KCAL/MOL
REMARK 923 INTER-LIGAND FREE ENERGY PREDICTED BY IDOCK:   -7.32 KCAL/MOL
REMARK 924 INTRA-LIGAND FREE ENERGY PREDICTED BY IDOCK:   -1.01 KCAL/MOL
REMARK 927      BINDING AFFINITY PREDICTED BY RF-SCORE:    0.00 PKD
ROOT
HETATM    1  C   UNL     1     -13.708  14.978  71.362  1.00  0.00    -0.473 C  
HETATM    2  O   UNL     1     -12.300  15.000  71.580  1.00  0.00    -0.304 OA 
ENDROOT
BRANCH   2   3
HETATM    3  C   UNL     1     -11.546  15.357  70.498  1.00  0.00    -0.326 A  
HETATM    4  C   UNL     1     -10.157  15.335  70.454  1.00  0.00     0.094 A  
HETATM    5  C   UNL     1      -9.487  15.680  69.272  1.00  0.00    -0.264 A  
HETATM    6  C   UNL     1     -10.190  16.104  68.133  1.00  0.00    -0.247 A  
HETATM    7  C   UNL     1     -11.592  16.082  68.180  1.00  0.00    -0.183 A  
HETATM    8  C   UNL     1      -9.432  16.508  66.873  1.00  0.00    -0.250 C  
HETATM    9  C   UNL     1      -7.928  16.661  67.149  1.00  0.00    -0.182 C  
HETATM   10  C   UNL     1      -9.535  15.378  65.824  1.00  0.00    -0.325 C  
HETATM   11  C   UNL     1      -9.969  17.815  66.266  1.00  0.00    -0.322 C  
HETATM   12  C   UNL     1     -12.259  15.698  69.348  1.00  0.00    -0.201 A  
HETATM   13  O   UNL     1      -7.209  17.476  66.575  1.00  0.00    -0.209 OA 
HETATM   14  N   UNL     1      -7.433  15.679  67.987  1.00  0.00    -0.120 N  
HETATM   15  O   UNL     1      -7.425  14.999  70.184  1.00  0.00    -0.038 OA 
HETATM   16  C   UNL     1      -8.025  15.431  69.206  1.00  0.00    -0.229 C  
BRANCH  14  17
HETATM   17  C   UNL     1      -6.148  15.092  67.682  1.00  0.00    -0.086 C  
BRANCH  17  18
HETATM   18  C   UNL     1      -5.916  13.651  68.136  1.00  0.00    -0.118 C  
BRANCH  18  19
HETATM   19  C   UNL     1      -6.757  12.673  67.331  1.00  0.00    -0.143 A  
HETATM   20  C   UNL     1      -8.158  12.777  67.264  1.00  0.00    -0.172 A  
HETATM   21  C   UNL     1      -8.916  11.835  66.570  1.00  0.00    -0.196 A  
HETATM   22  C   UNL     1      -8.274  10.796  65.904  1.00  0.00    -0.155 A  
HETATM   23  C   UNL     1      -6.127  11.635  66.631  1.00  0.00    -0.094 A  
HETATM   24  C   UNL     1      -6.883  10.690  65.930  1.00  0.00    -0.115 A  
BRANCH  22  25
HETATM   25  S   UNL     1      -9.252   9.579  65.066  1.00  0.00    -0.209 S  
HETATM   26  O   UNL     1     -10.283  10.239  64.293  1.00  0.00    -0.269 OA 
HETATM   27  O   UNL     1      -8.337   8.654  64.428  1.00  0.00    -0.164 OA 
BRANCH  25  28
HETATM   28  N   UNL     1      -9.941   8.721  66.308  1.00  0.00    -0.380 N  
HETATM   29  H   UNL     1      -9.925   7.702  66.250  1.00  0.00     0.000 HD 
BRANCH  28  30
HETATM   30  C   UNL     1     -10.536   9.291  67.417  1.00  0.00    -0.273 C  
HETATM   31  O   UNL     1     -11.323  10.222  67.366  1.00  0.00    -0.310 OA 
BRANCH  30  32
HETATM   32  N   UNL     1     -10.135   8.699  68.574  1.00  0.00    -0.185 N  
HETATM   33  H   UNL     1     -10.754   8.717  69.384  1.00  0.00     0.000 HD 
BRANCH  32  34
HETATM   34  C   UNL     1      -8.839   8.037  68.683  1.00  0.00    -0.134 C  
HETATM   35  C   UNL     1      -7.740   9.024  69.097  1.00  0.00    -0.092 C  
HETATM   36  C   UNL     1      -7.950   9.540  70.519  1.00  0.00    -0.188 C  
HETATM   37  C   UNL     1      -8.092   8.404  71.528  1.00  0.00    -0.172 C  
HETATM   38  C   UNL     1      -9.122   7.355  71.112  1.00  0.00    -0.148 C  
HETATM   39  C   UNL     1      -8.908   6.874  69.677  1.00  0.00    -0.141 C  
ENDBRANCH  32  34
ENDBRANCH  30  32
ENDBRANCH  28  30
ENDBRANCH  25  28
ENDBRANCH  22  25
ENDBRANCH  18  19
ENDBRANCH  17  18
ENDBRANCH  14  17
ENDBRANCH   2   3
TORSDOF 9
ENDMDL
MODEL      201
REMARK 921   NORMALIZED FREE ENERGY PREDICTED BY IDOCK:   -4.05 KCAL/MOL
REMARK 922        TOTAL FREE ENERGY PREDICTED BY IDOCK:   -8.32 KCAL/MOL
REMARK 923 INTER-LIGAND FREE ENERGY PREDICTED BY IDOCK:   -7.43 KCAL/MOL
REMARK 924 INTRA-LIGAND FREE ENERGY PREDICTED BY IDOCK:   -0.90 KCAL/MOL
REMARK 927      BINDING AFFINITY PREDICTED BY RF-SCORE:    0.00 PKD
ROOT
HETATM    1  C   UNL     1      -5.130   6.792  72.563  1.00  0.00    -0.032 C  
HETATM    2  O   UNL     1      -6.193   5.900  72.887  1.00  0.00    -0.053 OA 
ENDROOT
BRANCH   2   3
HETATM    3  C   UNL     1      -7.423   6.257  72.410  1.00  0.00    -0.093 A  
HETATM    4  C   UNL     1      -7.731   7.493  71.853  1.00  0.00    -0.088 A  
HETATM    5  C   UNL     1      -9.018   7.735  71.354  1.00  0.00    -0.151 A  
HETATM    6  C   UNL     1     -10.033   6.768  71.451  1.00  0.00    -0.191 A  
HETATM    7  C   UNL     1      -9.695   5.513  71.979  1.00  0.00    -0.192 A  
HETATM    8  C   UNL     1     -11.433   7.075  70.933  1.00  0.00    -0.349 C  
HETATM    9  C   UNL     1     -11.600   8.569  70.619  1.00  0.00    -0.194 C  
HETATM   10  C   UNL     1     -11.653   6.353  69.584  1.00  0.00    -0.351 C  
HETATM   11  C   UNL     1     -12.527   6.642  71.924  1.00  0.00    -0.334 C  
HETATM   12  C   UNL     1      -8.398   5.260  72.439  1.00  0.00    -0.118 A  
HETATM   13  O   UNL     1     -12.658   9.180  70.755  1.00  0.00    -0.134 OA 
HETATM   14  N   UNL     1     -10.487   9.118  70.011  1.00  0.00    -0.210 N  
HETATM   15  O   UNL     1      -8.329   9.792  70.438  1.00  0.00    -0.185 OA 
HETATM   16  C   UNL     1      -9.238   8.980  70.576  1.00  0.00    -0.220 C  
BRANCH  14  17
HETATM   17  C   UNL     1     -10.680  10.043  68.917  1.00  0.00    -0.219 C  
BRANCH  17  18
HETATM   18  C   UNL     1     -11.246  11.420  69.262  1.00  0.00    -0.342 C  
BRANCH  18  19
HETATM   19  C   UNL     1     -10.255  12.526  68.935  1.00  0.00    -0.012 A  
HETATM   20  C   UNL     1     -10.424  13.839  69.407  1.00  0.00     0.140 A  
HETATM   21  C   UNL     1      -9.538  14.853  69.046  1.00  0.00    -0.204 A  
HETATM   22  C   UNL     1      -8.449  14.552  68.235  1.00  0.00    -0.161 A  
HETATM   23  C   UNL     1      -9.137  12.238  68.141  1.00  0.00    -0.196 A  
HETATM   24  C   UNL     1      -8.243  13.249  67.779  1.00  0.00    -0.168 A  
BRANCH  22  25
HETATM   25  S   UNL     1      -7.357  15.859  67.745  1.00  0.00    -0.157 S  
HETATM   26  O   UNL     1      -7.359  16.894  68.757  1.00  0.00    -0.204 OA 
HETATM   27  O   UNL     1      -6.112  15.247  67.326  1.00  0.00    -0.325 OA 
BRANCH  25  28
HETATM   28  N   UNL     1      -8.049  16.433  66.350  1.00  0.00    -0.315 N  
HETATM   29  H   UNL     1      -8.015  15.838  65.522  1.00  0.00     0.000 HD 
BRANCH  28  30
HETATM   30  C   UNL     1      -8.669  17.662  66.233  1.00  0.00    -0.179 C  
HETATM   31  O   UNL     1      -9.746  17.834  65.686  1.00  0.00    -0.510 OA 
BRANCH  30  32
HETATM   32  N   UNL     1      -7.934  18.661  66.794  1.00  0.00    -0.246 N  
HETATM   33  H   UNL     1      -7.459  18.493  67.681  1.00  0.00     0.000 HD 
BRANCH  32  34
HETATM   34  C   UNL     1      -7.810  19.966  66.156  1.00  0.00    -0.326 C  
HETATM   35  C   UNL     1      -7.783  21.096  67.193  1.00  0.00    -0.014 C  
HETATM   36  C   UNL     1      -6.521  21.044  68.052  1.00  0.00    -0.313 C  
HETATM   37  C   UNL     1      -5.250  21.029  67.206  1.00  0.00    -0.268 C  
HETATM   38  C   UNL     1      -5.272  19.969  66.106  1.00  0.00    -0.176 C  
HETATM   39  C   UNL     1      -6.556  20.023  65.279  1.00  0.00    -0.330 C  
ENDBRANCH  32  34
ENDBRANCH  30  32
ENDBRANCH  28  30
ENDBRANCH  25  28
ENDBRANCH  22  25
ENDBRANCH  18  19
ENDBRANCH  17  18
ENDBRANCH  14  17
ENDBRANCH   2   3
TORSDOF 9
ENDMDL
MODEL      202
REMARK 921   NORMALIZED FREE ENERGY PREDICTED BY IDOCK:   -4.03 KCAL/MOL
REMARK 922        TOTAL FREE ENERGY PREDICTED BY IDOCK:   -8.30 KCAL/MOL
REMARK 923 INTER-LIGAND FREE ENERGY PREDICTED BY IDOCK:   -6.86 KCAL/MOL
REMARK 924 INTRA-LIGAND FREE ENERGY PREDICTED BY IDOCK:   -1.43 KCAL/MOL
REMARK 927      BINDING AFFINITY PREDICTED BY RF-SCORE:    0.00 PKD
ROOT
HETATM    1  C   UNL     1     -13.757  14.827  71.636  1.00  0.00    -0.428 C  
HETATM    2  O   UNL     1     -12.368  15.113  71.776  1.00  0.00    -0.311 OA 
ENDROOT
BRANCH   2   3
HETATM    3  C   UNL     1     -11.696  15.340  70.607  1.00  0.00    -0.332 A  
HETATM    4  C   UNL     1     -10.315  15.442  70.490  1.00  0.00    -0.040 A  
HETATM    5  C   UNL     1      -9.731  15.632  69.230  1.00  0.00    -0.271 A  
HETATM    6  C   UNL     1     -10.517  15.776  68.075  1.00  0.00    -0.270 A  
HETATM    7  C   UNL     1     -11.906  15.630  68.205  1.00  0.00    -0.096 A  
HETATM    8  C   UNL     1      -9.854  16.018  66.724  1.00  0.00    -0.260 C  
HETATM    9  C   UNL     1      -8.365  16.360  66.884  1.00  0.00    -0.228 C  
HETATM   10  C   UNL     1      -9.880  14.714  65.896  1.00  0.00    -0.358 C  
HETATM   11  C   UNL     1     -10.546  17.138  65.929  1.00  0.00    -0.219 C  
HETATM   12  C   UNL     1     -12.484  15.400  69.457  1.00  0.00    -0.110 A  
HETATM   13  O   UNL     1      -7.756  17.124  66.137  1.00  0.00    -0.307 OA 
HETATM   14  N   UNL     1      -7.738  15.596  67.851  1.00  0.00    -0.126 N  
HETATM   15  O   UNL     1      -7.576  15.324  70.129  1.00  0.00    -0.009 OA 
HETATM   16  C   UNL     1      -8.254  15.515  69.126  1.00  0.00    -0.247 C  
BRANCH  14  17
HETATM   17  C   UNL     1      -6.412  15.088  67.582  1.00  0.00    -0.150 C  
BRANCH  17  18
HETATM   18  C   UNL     1      -6.041  13.745  68.209  1.00  0.00    -0.111 C  
BRANCH  18  19
HETATM   19  C   UNL     1      -6.816  12.602  67.573  1.00  0.00    -0.151 A  
HETATM   20  C   UNL     1      -8.138  12.302  67.947  1.00  0.00    -0.155 A  
HETATM   21  C   UNL     1      -8.811  11.212  67.396  1.00  0.00    -0.139 A  
HETATM   22  C   UNL     1      -8.177  10.431  66.436  1.00  0.00    -0.141 A  
HETATM   23  C   UNL     1      -6.205  11.819  66.584  1.00  0.00    -0.025 A  
HETATM   24  C   UNL     1      -6.877  10.728  66.026  1.00  0.00    -0.107 A  
BRANCH  22  25
HETATM   25  S   UNL     1      -9.026   9.021  65.779  1.00  0.00    -0.209 S  
HETATM   26  O   UNL     1     -10.341   8.929  66.377  1.00  0.00    -0.259 OA 
HETATM   27  O   UNL     1      -8.877   9.060  64.338  1.00  0.00    -0.170 OA 
BRANCH  25  28
HETATM   28  N   UNL     1      -8.089   7.744  66.277  1.00  0.00    -0.109 N  
HETATM   29  H   UNL     1      -7.077   7.874  66.294  1.00  0.00     0.000 HD 
BRANCH  28  30
HETATM   30  C   UNL     1      -8.586   6.517  66.670  1.00  0.00    -0.118 C  
HETATM   31  O   UNL     1      -9.300   5.814  65.973  1.00  0.00    -0.161 OA 
BRANCH  30  32
HETATM   32  N   UNL     1      -8.192   6.185  67.930  1.00  0.00    -0.116 N  
HETATM   33  H   UNL     1      -7.722   5.293  68.086  1.00  0.00     0.000 HD 
BRANCH  32  34
HETATM   34  C   UNL     1      -8.426   7.076  69.061  1.00  0.00    -0.129 C  
HETATM   35  C   UNL     1      -9.925   7.258  69.329  1.00  0.00    -0.170 C  
HETATM   36  C   UNL     1     -10.576   5.962  69.808  1.00  0.00    -0.374 C  
HETATM   37  C   UNL     1      -9.858   5.372  71.020  1.00  0.00    -0.246 C  
HETATM   38  C   UNL     1      -8.348   5.250  70.823  1.00  0.00    -0.115 C  
HETATM   39  C   UNL     1      -7.725   6.550  70.316  1.00  0.00    -0.098 C  
ENDBRANCH  32  34
ENDBRANCH  30  32
ENDBRANCH  28  30
ENDBRANCH  25  28
ENDBRANCH  22  25
ENDBRANCH  18  19
ENDBRANCH  17  18
ENDBRANCH  14  17
ENDBRANCH   2   3
TORSDOF 9
ENDMDL
MODEL      203
REMARK 921   NORMALIZED FREE ENERGY PREDICTED BY IDOCK:   -4.02 KCAL/MOL
REMARK 922        TOTAL FREE ENERGY PREDICTED BY IDOCK:   -8.29 KCAL/MOL
REMARK 923 INTER-LIGAND FREE ENERGY PREDICTED BY IDOCK:   -7.90 KCAL/MOL
REMARK 924 INTRA-LIGAND FREE ENERGY PREDICTED BY IDOCK:   -0.38 KCAL/MOL
REMARK 927      BINDING AFFINITY PREDICTED BY RF-SCORE:    0.00 PKD
ROOT
HETATM    1  C   UNL     1      -8.464   1.470  70.871  1.00  0.00    -0.049 C  
HETATM    2  O   UNL     1      -7.609   2.607  70.953  1.00  0.00    -0.036 OA 
ENDROOT
BRANCH   2   3
HETATM    3  C   UNL     1      -8.204   3.807  70.680  1.00  0.00    -0.057 A  
HETATM    4  C   UNL     1      -7.524   4.998  70.451  1.00  0.00    -0.062 A  
HETATM    5  C   UNL     1      -8.237   6.162  70.135  1.00  0.00    -0.120 A  
HETATM    6  C   UNL     1      -9.641   6.169  70.094  1.00  0.00    -0.187 A  
HETATM    7  C   UNL     1     -10.310   4.951  70.288  1.00  0.00    -0.252 A  
HETATM    8  C   UNL     1     -10.390   7.460  69.782  1.00  0.00    -0.226 C  
HETATM    9  C   UNL     1      -9.454   8.678  69.837  1.00  0.00    -0.167 C  
HETATM   10  C   UNL     1     -10.910   7.417  68.328  1.00  0.00    -0.081 C  
HETATM   11  C   UNL     1     -11.573   7.690  70.738  1.00  0.00    -0.284 C  
HETATM   12  C   UNL     1      -9.593   3.782  70.563  1.00  0.00    -0.262 A  
HETATM   13  O   UNL     1      -9.812   9.796  70.201  1.00  0.00    -0.240 OA 
HETATM   14  N   UNL     1      -8.215   8.429  69.277  1.00  0.00    -0.115 N  
HETATM   15  O   UNL     1      -6.239   7.315  69.660  1.00  0.00    -0.030 OA 
HETATM   16  C   UNL     1      -7.465   7.348  69.686  1.00  0.00    -0.093 C  
BRANCH  14  17
HETATM   17  C   UNL     1      -7.612   9.446  68.446  1.00  0.00    -0.082 C  
BRANCH  17  18
HETATM   18  C   UNL     1      -8.498  10.086  67.378  1.00  0.00    -0.121 C  
BRANCH  18  19
HETATM   19  C   UNL     1      -8.297  11.592  67.319  1.00  0.00    -0.158 A  
HETATM   20  C   UNL     1      -9.290  12.456  66.825  1.00  0.00    -0.220 A  
HETATM   21  C   UNL     1      -9.063  13.828  66.722  1.00  0.00    -0.235 A  
HETATM   22  C   UNL     1      -7.847  14.354  67.147  1.00  0.00    -0.082 A  
HETATM   23  C   UNL     1      -7.089  12.145  67.767  1.00  0.00    -0.109 A  
HETATM   24  C   UNL     1      -6.858  13.520  67.670  1.00  0.00    -0.178 A  
BRANCH  22  25
HETATM   25  S   UNL     1      -7.554  16.093  66.967  1.00  0.00    -0.238 S  
HETATM   26  O   UNL     1      -6.128  16.341  66.952  1.00  0.00    -0.313 OA 
HETATM   27  O   UNL     1      -8.391  16.562  65.881  1.00  0.00    -0.388 OA 
BRANCH  25  28
HETATM   28  N   UNL     1      -8.224  16.738  68.342  1.00  0.00    -0.215 N  
HETATM   29  H   UNL     1      -7.592  17.045  69.080  1.00  0.00     0.000 HD 
BRANCH  28  30
HETATM   30  C   UNL     1      -9.581  16.887  68.553  1.00  0.00    -0.262 C  
HETATM   31  O   UNL     1     -10.173  16.445  69.524  1.00  0.00    -0.270 OA 
BRANCH  30  32
HETATM   32  N   UNL     1     -10.182  17.580  67.548  1.00  0.00    -0.327 N  
HETATM   33  H   UNL     1     -10.316  17.130  66.643  1.00  0.00     0.000 HD 
BRANCH  32  34
HETATM   34  C   UNL     1     -10.641  18.952  67.737  1.00  0.00    -0.398 C  
HETATM   35  C   UNL     1      -9.945  19.616  68.932  1.00  0.00    -0.524 C  
HETATM   36  C   UNL     1      -8.452  19.815  68.678  1.00  0.00    -0.225 C  
HETATM   37  C   UNL     1      -8.186  20.576  67.381  1.00  0.00    -0.344 C  
HETATM   38  C   UNL     1      -8.928  19.993  66.179  1.00  0.00    -0.338 C  
HETATM   39  C   UNL     1     -10.413  19.778  66.467  1.00  0.00    -0.615 C  
ENDBRANCH  32  34
ENDBRANCH  30  32
ENDBRANCH  28  30
ENDBRANCH  25  28
ENDBRANCH  22  25
ENDBRANCH  18  19
ENDBRANCH  17  18
ENDBRANCH  14  17
ENDBRANCH   2   3
TORSDOF 9
ENDMDL
MODEL      204
REMARK 921   NORMALIZED FREE ENERGY PREDICTED BY IDOCK:   -4.02 KCAL/MOL
REMARK 922        TOTAL FREE ENERGY PREDICTED BY IDOCK:   -8.29 KCAL/MOL
REMARK 923 INTER-LIGAND FREE ENERGY PREDICTED BY IDOCK:   -7.66 KCAL/MOL
REMARK 924 INTRA-LIGAND FREE ENERGY PREDICTED BY IDOCK:   -0.63 KCAL/MOL
REMARK 927      BINDING AFFINITY PREDICTED BY RF-SCORE:    0.00 PKD
ROOT
HETATM    1  C   UNL     1     -10.483  15.560  65.510  1.00  0.00    -0.386 C  
HETATM    2  O   UNL     1     -10.288  14.377  66.282  1.00  0.00    -0.281 OA 
ENDROOT
BRANCH   2   3
HETATM    3  C   UNL     1     -10.847  14.394  67.529  1.00  0.00    -0.282 A  
HETATM    4  C   UNL     1     -11.510  13.324  68.117  1.00  0.00    -0.347 A  
HETATM    5  C   UNL     1     -12.005  13.439  69.423  1.00  0.00    -0.369 A  
HETATM    6  C   UNL     1     -11.894  14.640  70.142  1.00  0.00    -0.365 A  
HETATM    7  C   UNL     1     -11.188  15.697  69.550  1.00  0.00    -0.313 A  
HETATM    8  C   UNL     1     -12.476  14.746  71.548  1.00  0.00    -0.403 C  
HETATM    9  C   UNL     1     -13.383  13.550  71.871  1.00  0.00    -0.443 C  
HETATM   10  C   UNL     1     -11.333  14.677  72.586  1.00  0.00     0.604 C  
HETATM   11  C   UNL     1     -13.269  16.049  71.752  1.00  0.00    -0.066 C  
HETATM   12  C   UNL     1     -10.658  15.565  68.262  1.00  0.00    -0.255 A  
HETATM   13  O   UNL     1     -14.376  13.622  72.591  1.00  0.00    -0.703 OA 
HETATM   14  N   UNL     1     -12.877  12.350  71.406  1.00  0.00    -0.330 N  
HETATM   15  O   UNL     1     -12.541  11.146  69.475  1.00  0.00    -0.245 OA 
HETATM   16  C   UNL     1     -12.507  12.209  70.086  1.00  0.00    -0.035 C  
BRANCH  14  17
HETATM   17  C   UNL     1     -12.972  11.183  72.252  1.00  0.00     0.140 C  
BRANCH  17  18
HETATM   18  C   UNL     1     -13.375   9.869  71.583  1.00  0.00    -0.481 C  
BRANCH  18  19
HETATM   19  C   UNL     1     -12.294   8.812  71.737  1.00  0.00    -0.412 A  
HETATM   20  C   UNL     1     -11.105   9.062  72.446  1.00  0.00     0.037 A  
HETATM   21  C   UNL     1     -10.099   8.101  72.524  1.00  0.00    -0.370 A  
HETATM   22  C   UNL     1     -10.288   6.862  71.921  1.00  0.00    -0.189 A  
HETATM   23  C   UNL     1     -12.476   7.548  71.160  1.00  0.00    -0.306 A  
HETATM   24  C   UNL     1     -11.472   6.579  71.239  1.00  0.00    -0.371 A  
BRANCH  22  25
HETATM   25  S   UNL     1      -8.982   5.666  71.988  1.00  0.00    -0.137 S  
HETATM   26  O   UNL     1      -8.146   5.930  73.140  1.00  0.00    -0.115 OA 
HETATM   27  O   UNL     1      -9.582   4.360  71.802  1.00  0.00    -0.142 OA 
BRANCH  25  28
HETATM   28  N   UNL     1      -8.129   5.954  70.594  1.00  0.00    -0.116 N  
HETATM   29  H   UNL     1      -7.933   5.160  69.983  1.00  0.00     0.000 HD 
BRANCH  28  30
HETATM   30  C   UNL     1      -7.665   7.195  70.203  1.00  0.00    -0.095 C  
HETATM   31  O   UNL     1      -6.941   7.899  70.887  1.00  0.00    -0.047 OA 
BRANCH  30  32
HETATM   32  N   UNL     1      -8.117   7.544  68.968  1.00  0.00    -0.125 N  
HETATM   33  H   UNL     1      -9.098   7.796  68.848  1.00  0.00     0.000 HD 
BRANCH  32  34
HETATM   34  C   UNL     1      -7.229   7.568  67.811  1.00  0.00    -0.094 C  
HETATM   35  C   UNL     1      -7.982   7.220  66.520  1.00  0.00    -0.115 C  
HETATM   36  C   UNL     1      -9.004   8.295  66.155  1.00  0.00    -0.222 C  
HETATM   37  C   UNL     1      -8.376   9.684  66.081  1.00  0.00    -0.122 C  
HETATM   38  C   UNL     1      -7.549  10.037  67.315  1.00  0.00    -0.095 C  
HETATM   39  C   UNL     1      -6.553   8.935  67.676  1.00  0.00    -0.061 C  
ENDBRANCH  32  34
ENDBRANCH  30  32
ENDBRANCH  28  30
ENDBRANCH  25  28
ENDBRANCH  22  25
ENDBRANCH  18  19
ENDBRANCH  17  18
ENDBRANCH  14  17
ENDBRANCH   2   3
TORSDOF 9
ENDMDL
MODEL      205
REMARK 921   NORMALIZED FREE ENERGY PREDICTED BY IDOCK:   -4.01 KCAL/MOL
REMARK 922        TOTAL FREE ENERGY PREDICTED BY IDOCK:   -8.27 KCAL/MOL
REMARK 923 INTER-LIGAND FREE ENERGY PREDICTED BY IDOCK:   -6.44 KCAL/MOL
REMARK 924 INTRA-LIGAND FREE ENERGY PREDICTED BY IDOCK:   -1.83 KCAL/MOL
REMARK 927      BINDING AFFINITY PREDICTED BY RF-SCORE:    0.00 PKD
ROOT
HETATM    1  C   UNL     1     -10.737  11.993  66.007  1.00  0.00    -0.279 C  
HETATM    2  O   UNL     1     -10.750  10.743  66.691  1.00  0.00    -0.249 OA 
ENDROOT
BRANCH   2   3
HETATM    3  C   UNL     1     -10.003   9.754  66.116  1.00  0.00    -0.268 A  
HETATM    4  C   UNL     1      -9.987   8.427  66.529  1.00  0.00    -0.335 A  
HETATM    5  C   UNL     1      -9.214   7.486  65.835  1.00  0.00    -0.034 A  
HETATM    6  C   UNL     1      -8.405   7.863  64.751  1.00  0.00    -0.066 A  
HETATM    7  C   UNL     1      -8.463   9.198  64.321  1.00  0.00    -0.200 A  
HETATM    8  C   UNL     1      -7.548   6.824  64.038  1.00  0.00    -0.108 C  
HETATM    9  C   UNL     1      -7.486   5.509  64.831  1.00  0.00    -0.074 C  
HETATM   10  C   UNL     1      -8.203   6.450  62.690  1.00  0.00    -0.035 C  
HETATM   11  C   UNL     1      -6.116   7.327  63.784  1.00  0.00    -0.045 C  
HETATM   12  C   UNL     1      -9.267  10.126  64.991  1.00  0.00    -0.266 A  
HETATM   13  O   UNL     1      -6.505   4.769  64.849  1.00  0.00    -0.034 OA 
HETATM   14  N   UNL     1      -8.703   5.160  65.387  1.00  0.00    -0.145 N  
HETATM   15  O   UNL     1     -10.156   5.722  67.078  1.00  0.00    -0.149 OA 
HETATM   16  C   UNL     1      -9.398   6.052  66.173  1.00  0.00    -0.118 C  
BRANCH  14  17
HETATM   17  C   UNL     1      -9.114   3.775  65.340  1.00  0.00    -0.145 C  
BRANCH  17  18
HETATM   18  C   UNL     1      -8.211   2.757  66.036  1.00  0.00    -0.086 C  
BRANCH  18  19
HETATM   19  C   UNL     1      -8.210   2.955  67.543  1.00  0.00    -0.086 A  
HETATM   20  C   UNL     1      -9.331   2.649  68.334  1.00  0.00    -0.256 A  
HETATM   21  C   UNL     1      -9.332   2.895  69.706  1.00  0.00    -0.207 A  
HETATM   22  C   UNL     1      -8.192   3.419  70.307  1.00  0.00    -0.048 A  
HETATM   23  C   UNL     1      -7.062   3.457  68.172  1.00  0.00    -0.050 A  
HETATM   24  C   UNL     1      -7.056   3.701  69.548  1.00  0.00    -0.042 A  
BRANCH  22  25
HETATM   25  S   UNL     1      -8.223   3.771  72.044  1.00  0.00    -0.077 S  
HETATM   26  O   UNL     1      -7.626   2.670  72.770  1.00  0.00    -0.044 OA 
HETATM   27  O   UNL     1      -7.724   5.120  72.220  1.00  0.00    -0.096 OA 
BRANCH  25  28
HETATM   28  N   UNL     1      -9.844   3.860  72.388  1.00  0.00    -0.149 N  
HETATM   29  H   UNL     1     -10.409   3.023  72.239  1.00  0.00     0.000 HD 
BRANCH  28  30
HETATM   30  C   UNL     1     -10.482   4.990  72.861  1.00  0.00    -0.208 C  
HETATM   31  O   UNL     1     -11.089   5.039  73.919  1.00  0.00    -0.285 OA 
BRANCH  30  32
HETATM   32  N   UNL     1     -10.360   6.042  72.007  1.00  0.00    -0.198 N  
HETATM   33  H   UNL     1      -9.516   6.614  72.038  1.00  0.00     0.000 HD 
BRANCH  32  34
HETATM   34  C   UNL     1     -11.409   6.371  71.047  1.00  0.00    -0.328 C  
HETATM   35  C   UNL     1     -12.630   6.986  71.742  1.00  0.00    -0.388 C  
HETATM   36  C   UNL     1     -12.311   8.354  72.341  1.00  0.00    -0.412 C  
HETATM   37  C   UNL     1     -11.714   9.308  71.309  1.00  0.00    -0.416 C  
HETATM   38  C   UNL     1     -10.543   8.702  70.536  1.00  0.00    -0.248 C  
HETATM   39  C   UNL     1     -10.878   7.322  69.971  1.00  0.00    -0.271 C  
ENDBRANCH  32  34
ENDBRANCH  30  32
ENDBRANCH  28  30
ENDBRANCH  25  28
ENDBRANCH  22  25
ENDBRANCH  18  19
ENDBRANCH  17  18
ENDBRANCH  14  17
ENDBRANCH   2   3
TORSDOF 9
ENDMDL
MODEL      206
REMARK 921   NORMALIZED FREE ENERGY PREDICTED BY IDOCK:   -3.99 KCAL/MOL
REMARK 922        TOTAL FREE ENERGY PREDICTED BY IDOCK:   -8.23 KCAL/MOL
REMARK 923 INTER-LIGAND FREE ENERGY PREDICTED BY IDOCK:   -6.98 KCAL/MOL
REMARK 924 INTRA-LIGAND FREE ENERGY PREDICTED BY IDOCK:   -1.25 KCAL/MOL
REMARK 927      BINDING AFFINITY PREDICTED BY RF-SCORE:    0.00 PKD
ROOT
HETATM    1  C   UNL     1      -5.126   7.087  70.080  1.00  0.00    -0.015 C  
HETATM    2  O   UNL     1      -6.229   6.831  69.214  1.00  0.00    -0.025 OA 
ENDROOT
BRANCH   2   3
HETATM    3  C   UNL     1      -7.457   6.830  69.815  1.00  0.00    -0.091 A  
HETATM    4  C   UNL     1      -8.089   7.955  70.332  1.00  0.00    -0.114 A  
HETATM    5  C   UNL     1      -9.371   7.844  70.888  1.00  0.00    -0.162 A  
HETATM    6  C   UNL     1     -10.020   6.602  70.985  1.00  0.00    -0.200 A  
HETATM    7  C   UNL     1      -9.385   5.484  70.423  1.00  0.00    -0.198 A  
HETATM    8  C   UNL     1     -11.399   6.508  71.628  1.00  0.00    -0.332 C  
HETATM    9  C   UNL     1     -11.767   7.809  72.357  1.00  0.00    -0.341 C  
HETATM   10  C   UNL     1     -12.471   6.346  70.528  1.00  0.00     0.406 C  
HETATM   11  C   UNL     1     -11.501   5.331  72.614  1.00  0.00    -0.270 C  
HETATM   12  C   UNL     1      -8.123   5.605  69.832  1.00  0.00    -0.095 A  
HETATM   13  O   UNL     1     -12.453   7.849  73.376  1.00  0.00     0.568 OA 
HETATM   14  N   UNL     1     -11.390   8.941  71.660  1.00  0.00    -0.312 N  
HETATM   15  O   UNL     1      -9.545  10.185  71.076  1.00  0.00     0.404 OA 
HETATM   16  C   UNL     1     -10.092   9.098  71.224  1.00  0.00    -0.318 C  
BRANCH  14  17
HETATM   17  C   UNL     1     -12.302  10.061  71.610  1.00  0.00    -0.394 C  
BRANCH  17  18
HETATM   18  C   UNL     1     -13.035  10.304  70.291  1.00  0.00    -0.059 C  
BRANCH  18  19
HETATM   19  C   UNL     1     -12.202  11.150  69.341  1.00  0.00    -0.329 A  
HETATM   20  C   UNL     1     -11.796  10.674  68.083  1.00  0.00     0.082 A  
HETATM   21  C   UNL     1     -10.981  11.442  67.251  1.00  0.00    -0.336 A  
HETATM   22  C   UNL     1     -10.594  12.713  67.660  1.00  0.00    -0.218 A  
HETATM   23  C   UNL     1     -11.823  12.445  69.723  1.00  0.00    -0.387 A  
HETATM   24  C   UNL     1     -11.010  13.220  68.891  1.00  0.00    -0.278 A  
BRANCH  22  25
HETATM   25  S   UNL     1      -9.519  13.660  66.615  1.00  0.00    -0.261 S  
HETATM   26  O   UNL     1      -8.145  13.443  67.015  1.00  0.00    -0.124 OA 
HETATM   27  O   UNL     1      -9.930  13.424  65.246  1.00  0.00    -0.259 OA 
BRANCH  25  28
HETATM   28  N   UNL     1      -9.959  15.228  66.936  1.00  0.00    -0.236 N  
HETATM   29  H   UNL     1     -10.298  15.445  67.873  1.00  0.00     0.000 HD 
BRANCH  28  30
HETATM   30  C   UNL     1      -9.896  16.260  66.020  1.00  0.00    -0.343 C  
HETATM   31  O   UNL     1     -10.656  16.380  65.073  1.00  0.00    -0.651 OA 
BRANCH  30  32
HETATM   32  N   UNL     1      -8.882  17.125  66.293  1.00  0.00    -0.251 N  
HETATM   33  H   UNL     1      -8.064  17.144  65.684  1.00  0.00     0.000 HD 
BRANCH  32  34
HETATM   34  C   UNL     1      -8.938  18.028  67.438  1.00  0.00    -0.246 C  
HETATM   35  C   UNL     1      -7.779  19.033  67.416  1.00  0.00    -0.254 C  
HETATM   36  C   UNL     1      -7.895  20.004  66.242  1.00  0.00    -0.323 C  
HETATM   37  C   UNL     1      -9.248  20.709  66.211  1.00  0.00     0.044 C  
HETATM   38  C   UNL     1     -10.430  19.747  66.314  1.00  0.00    -0.614 C  
HETATM   39  C   UNL     1     -10.278  18.768  67.478  1.00  0.00    -0.444 C  
ENDBRANCH  32  34
ENDBRANCH  30  32
ENDBRANCH  28  30
ENDBRANCH  25  28
ENDBRANCH  22  25
ENDBRANCH  18  19
ENDBRANCH  17  18
ENDBRANCH  14  17
ENDBRANCH   2   3
TORSDOF 9
ENDMDL
MODEL      207
REMARK 921   NORMALIZED FREE ENERGY PREDICTED BY IDOCK:   -3.97 KCAL/MOL
REMARK 922        TOTAL FREE ENERGY PREDICTED BY IDOCK:   -8.21 KCAL/MOL
REMARK 923 INTER-LIGAND FREE ENERGY PREDICTED BY IDOCK:   -7.50 KCAL/MOL
REMARK 924 INTRA-LIGAND FREE ENERGY PREDICTED BY IDOCK:   -0.71 KCAL/MOL
REMARK 927      BINDING AFFINITY PREDICTED BY RF-SCORE:    0.00 PKD
ROOT
HETATM    1  C   UNL     1     -10.918  20.033  65.733  1.00  0.00    -0.015 C  
HETATM    2  O   UNL     1     -10.858  19.778  67.134  1.00  0.00    -0.452 OA 
ENDROOT
BRANCH   2   3
HETATM    3  C   UNL     1      -9.978  18.803  67.514  1.00  0.00    -0.338 A  
HETATM    4  C   UNL     1     -10.314  17.474  67.744  1.00  0.00    -0.367 A  
HETATM    5  C   UNL     1      -9.319  16.549  68.086  1.00  0.00    -0.218 A  
HETATM    6  C   UNL     1      -7.982  16.945  68.258  1.00  0.00    -0.211 A  
HETATM    7  C   UNL     1      -7.653  18.280  67.983  1.00  0.00    -0.257 A  
HETATM    8  C   UNL     1      -6.928  15.922  68.667  1.00  0.00    -0.127 C  
HETATM    9  C   UNL     1      -7.573  14.604  69.122  1.00  0.00    -0.126 C  
HETATM   10  C   UNL     1      -6.069  15.546  67.439  1.00  0.00    -0.041 C  
HETATM   11  C   UNL     1      -6.012  16.447  69.786  1.00  0.00    -0.201 C  
HETATM   12  C   UNL     1      -8.642  19.193  67.601  1.00  0.00    -0.327 A  
HETATM   13  O   UNL     1      -7.100  13.878  69.994  1.00  0.00     0.168 OA 
HETATM   14  N   UNL     1      -8.649  14.233  68.337  1.00  0.00    -0.171 N  
HETATM   15  O   UNL     1     -10.842  14.764  67.892  1.00  0.00    -0.258 OA 
HETATM   16  C   UNL     1      -9.686  15.110  68.107  1.00  0.00    -0.217 C  
BRANCH  14  17
HETATM   17  C   UNL     1      -8.792  12.842  67.969  1.00  0.00    -0.195 C  
BRANCH  17  18
HETATM   18  C   UNL     1      -9.738  11.992  68.816  1.00  0.00    -0.029 C  
BRANCH  18  19
HETATM   19  C   UNL     1      -9.563  10.510  68.527  1.00  0.00    -0.164 A  
HETATM   20  C   UNL     1     -10.222   9.879  67.457  1.00  0.00    -0.265 A  
HETATM   21  C   UNL     1     -10.097   8.506  67.245  1.00  0.00    -0.317 A  
HETATM   22  C   UNL     1      -9.279   7.757  68.084  1.00  0.00    -0.138 A  
HETATM   23  C   UNL     1      -8.722   9.742  69.344  1.00  0.00    -0.178 A  
HETATM   24  C   UNL     1      -8.590   8.367  69.133  1.00  0.00    -0.134 A  
BRANCH  22  25
HETATM   25  S   UNL     1      -9.165   6.006  67.832  1.00  0.00    -0.110 S  
HETATM   26  O   UNL     1      -9.791   5.659  66.574  1.00  0.00    -0.152 OA 
HETATM   27  O   UNL     1      -7.795   5.619  68.101  1.00  0.00    -0.094 OA 
BRANCH  25  28
HETATM   28  N   UNL     1     -10.047   5.381  69.092  1.00  0.00    -0.203 N  
HETATM   29  H   UNL     1      -9.996   4.376  69.256  1.00  0.00     0.000 HD 
BRANCH  28  30
HETATM   30  C   UNL     1     -10.846   6.130  69.933  1.00  0.00    -0.353 C  
HETATM   31  O   UNL     1     -11.901   6.644  69.596  1.00  0.00    -0.255 OA 
BRANCH  30  32
HETATM   32  N   UNL     1     -10.317   6.234  71.183  1.00  0.00    -0.204 N  
HETATM   33  H   UNL     1      -9.333   6.010  71.327  1.00  0.00     0.000 HD 
BRANCH  32  34
HETATM   34  C   UNL     1     -11.126   6.659  72.320  1.00  0.00    -0.258 C  
HETATM   35  C   UNL     1     -10.989   5.687  73.498  1.00  0.00    -0.250 C  
HETATM   36  C   UNL     1      -9.581   5.707  74.088  1.00  0.00    -0.155 C  
HETATM   37  C   UNL     1      -9.138   7.118  74.471  1.00  0.00    -0.188 C  
HETATM   38  C   UNL     1      -9.335   8.135  73.349  1.00  0.00    -0.267 C  
HETATM   39  C   UNL     1     -10.742   8.076  72.756  1.00  0.00    -0.431 C  
ENDBRANCH  32  34
ENDBRANCH  30  32
ENDBRANCH  28  30
ENDBRANCH  25  28
ENDBRANCH  22  25
ENDBRANCH  18  19
ENDBRANCH  17  18
ENDBRANCH  14  17
ENDBRANCH   2   3
TORSDOF 9
ENDMDL
MODEL      208
REMARK 921   NORMALIZED FREE ENERGY PREDICTED BY IDOCK:   -3.97 KCAL/MOL
REMARK 922        TOTAL FREE ENERGY PREDICTED BY IDOCK:   -8.20 KCAL/MOL
REMARK 923 INTER-LIGAND FREE ENERGY PREDICTED BY IDOCK:   -7.73 KCAL/MOL
REMARK 924 INTRA-LIGAND FREE ENERGY PREDICTED BY IDOCK:   -0.47 KCAL/MOL
REMARK 927      BINDING AFFINITY PREDICTED BY RF-SCORE:    0.00 PKD
ROOT
HETATM    1  C   UNL     1     -10.636   1.741  72.904  1.00  0.00    -0.147 C  
HETATM    2  O   UNL     1     -10.228   2.956  73.527  1.00  0.00    -0.104 OA 
ENDROOT
BRANCH   2   3
HETATM    3  C   UNL     1      -9.682   3.888  72.689  1.00  0.00    -0.143 A  
HETATM    4  C   UNL     1      -9.582   3.755  71.309  1.00  0.00    -0.243 A  
HETATM    5  C   UNL     1      -9.044   4.797  70.542  1.00  0.00    -0.170 A  
HETATM    6  C   UNL     1      -8.548   5.966  71.143  1.00  0.00    -0.129 A  
HETATM    7  C   UNL     1      -8.693   6.101  72.532  1.00  0.00    -0.121 A  
HETATM    8  C   UNL     1      -7.935   7.066  70.285  1.00  0.00    -0.117 C  
HETATM    9  C   UNL     1      -7.689   6.584  68.847  1.00  0.00    -0.109 C  
HETATM   10  C   UNL     1      -8.936   8.235  70.152  1.00  0.00    -0.142 C  
HETATM   11  C   UNL     1      -6.614   7.593  70.873  1.00  0.00    -0.038 C  
HETATM   12  C   UNL     1      -9.269   5.077  73.291  1.00  0.00    -0.131 A  
HETATM   13  O   UNL     1      -6.754   6.971  68.149  1.00  0.00    -0.059 OA 
HETATM   14  N   UNL     1      -8.718   5.801  68.360  1.00  0.00    -0.111 N  
HETATM   15  O   UNL     1      -9.652   3.707  68.545  1.00  0.00    -0.162 OA 
HETATM   16  C   UNL     1      -9.158   4.702  69.064  1.00  0.00    -0.118 C  
BRANCH  14  17
HETATM   17  C   UNL     1      -9.155   5.999  66.996  1.00  0.00    -0.117 C  
BRANCH  17  18
HETATM   18  C   UNL     1      -8.270   6.867  66.102  1.00  0.00    -0.121 C  
BRANCH  18  19
HETATM   19  C   UNL     1      -8.953   8.179  65.751  1.00  0.00    -0.165 A  
HETATM   20  C   UNL     1      -8.604   8.917  64.606  1.00  0.00    -0.169 A  
HETATM   21  C   UNL     1      -9.199  10.148  64.334  1.00  0.00    -0.306 A  
HETATM   22  C   UNL     1     -10.179  10.637  65.191  1.00  0.00    -0.299 A  
HETATM   23  C   UNL     1      -9.962   8.677  66.587  1.00  0.00    -0.357 A  
HETATM   24  C   UNL     1     -10.564   9.909  66.317  1.00  0.00    -0.089 A  
BRANCH  22  25
HETATM   25  S   UNL     1     -10.893  12.225  64.859  1.00  0.00    -0.316 S  
HETATM   26  O   UNL     1     -10.763  12.528  63.450  1.00  0.00    -0.426 OA 
HETATM   27  O   UNL     1     -12.193  12.256  65.498  1.00  0.00    -0.577 OA 
BRANCH  25  28
HETATM   28  N   UNL     1      -9.949  13.262  65.748  1.00  0.00    -0.367 N  
HETATM   29  H   UNL     1      -9.238  12.855  66.356  1.00  0.00     0.000 HD 
BRANCH  28  30
HETATM   30  C   UNL     1     -10.061  14.638  65.720  1.00  0.00    -0.340 C  
HETATM   31  O   UNL     1     -10.184  15.293  64.698  1.00  0.00    -0.191 OA 
BRANCH  30  32
HETATM   32  N   UNL     1     -10.011  15.181  66.967  1.00  0.00    -0.239 N  
HETATM   33  H   UNL     1      -9.127  15.181  67.476  1.00  0.00     0.000 HD 
BRANCH  32  34
HETATM   34  C   UNL     1     -11.193  15.763  67.593  1.00  0.00    -0.246 C  
HETATM   35  C   UNL     1     -12.272  14.703  67.846  1.00  0.00    -0.087 C  
HETATM   36  C   UNL     1     -11.830  13.684  68.894  1.00  0.00    -0.402 C  
HETATM   37  C   UNL     1     -11.386  14.353  70.193  1.00  0.00    -0.221 C  
HETATM   38  C   UNL     1     -10.370  15.473  69.977  1.00  0.00    -0.315 C  
HETATM   39  C   UNL     1     -10.822  16.462  68.904  1.00  0.00    -0.334 C  
ENDBRANCH  32  34
ENDBRANCH  30  32
ENDBRANCH  28  30
ENDBRANCH  25  28
ENDBRANCH  22  25
ENDBRANCH  18  19
ENDBRANCH  17  18
ENDBRANCH  14  17
ENDBRANCH   2   3
TORSDOF 9
ENDMDL
MODEL      209
REMARK 921   NORMALIZED FREE ENERGY PREDICTED BY IDOCK:   -3.94 KCAL/MOL
REMARK 922        TOTAL FREE ENERGY PREDICTED BY IDOCK:   -8.16 KCAL/MOL
REMARK 923 INTER-LIGAND FREE ENERGY PREDICTED BY IDOCK:   -6.54 KCAL/MOL
REMARK 924 INTRA-LIGAND FREE ENERGY PREDICTED BY IDOCK:   -1.62 KCAL/MOL
REMARK 927      BINDING AFFINITY PREDICTED BY RF-SCORE:    0.00 PKD
ROOT
HETATM    1  C   UNL     1     -12.279  13.731  63.755  1.00  0.00    -0.311 C  
HETATM    2  O   UNL     1     -11.484  14.818  64.222  1.00  0.00    -0.271 OA 
ENDROOT
BRANCH   2   3
HETATM    3  C   UNL     1     -10.546  14.495  65.162  1.00  0.00    -0.410 A  
HETATM    4  C   UNL     1     -10.134  13.202  65.462  1.00  0.00    -0.271 A  
HETATM    5  C   UNL     1      -9.129  12.991  66.416  1.00  0.00    -0.073 A  
HETATM    6  C   UNL     1      -8.557  14.061  67.123  1.00  0.00    -0.220 A  
HETATM    7  C   UNL     1      -8.956  15.362  66.780  1.00  0.00    -0.288 A  
HETATM    8  C   UNL     1      -7.492  13.797  68.181  1.00  0.00    -0.124 C  
HETATM    9  C   UNL     1      -7.402  12.302  68.524  1.00  0.00    -0.105 C  
HETATM   10  C   UNL     1      -6.102  14.165  67.617  1.00  0.00    -0.075 C  
HETATM   11  C   UNL     1      -7.744  14.595  69.472  1.00  0.00    -0.004 C  
HETATM   12  C   UNL     1      -9.929  15.573  65.798  1.00  0.00    -0.391 A  
HETATM   13  O   UNL     1      -7.117  11.874  69.640  1.00  0.00     0.039 OA 
HETATM   14  N   UNL     1      -7.508  11.488  67.411  1.00  0.00    -0.119 N  
HETATM   15  O   UNL     1      -9.029  10.701  65.875  1.00  0.00    -0.163 OA 
HETATM   16  C   UNL     1      -8.570  11.621  66.543  1.00  0.00    -0.164 C  
BRANCH  14  17
HETATM   17  C   UNL     1      -6.636  10.341  67.305  1.00  0.00    -0.068 C  
BRANCH  17  18
HETATM   18  C   UNL     1      -7.290   8.996  66.988  1.00  0.00    -0.087 C  
BRANCH  18  19
HETATM   19  C   UNL     1      -8.303   8.608  68.052  1.00  0.00    -0.123 A  
HETATM   20  C   UNL     1      -9.489   7.923  67.735  1.00  0.00    -0.165 A  
HETATM   21  C   UNL     1     -10.435   7.629  68.716  1.00  0.00    -0.208 A  
HETATM   22  C   UNL     1     -10.185   7.989  70.036  1.00  0.00    -0.205 A  
HETATM   23  C   UNL     1      -8.057   8.937  69.392  1.00  0.00    -0.105 A  
HETATM   24  C   UNL     1      -9.000   8.641  70.380  1.00  0.00    -0.173 A  
BRANCH  22  25
HETATM   25  S   UNL     1     -11.416   7.652  71.266  1.00  0.00    -0.275 S  
HETATM   26  O   UNL     1     -11.755   6.245  71.235  1.00  0.00    -0.310 OA 
HETATM   27  O   UNL     1     -10.976   8.273  72.499  1.00  0.00    -0.338 OA 
BRANCH  25  28
HETATM   28  N   UNL     1     -12.714   8.556  70.764  1.00  0.00    -0.462 N  
HETATM   29  H   UNL     1     -13.458   8.079  70.255  1.00  0.00     0.000 HD 
BRANCH  28  30
HETATM   30  C   UNL     1     -12.857   9.911  70.990  1.00  0.00    -0.331 C  
HETATM   31  O   UNL     1     -12.990  10.409  72.096  1.00  0.00    -0.429 OA 
BRANCH  30  32
HETATM   32  N   UNL     1     -12.837  10.627  69.833  1.00  0.00    -0.427 N  
HETATM   33  H   UNL     1     -13.715  10.970  69.444  1.00  0.00     0.000 HD 
BRANCH  32  34
HETATM   34  C   UNL     1     -11.588  10.917  69.136  1.00  0.00    -0.319 C  
HETATM   35  C   UNL     1     -11.847  11.423  67.711  1.00  0.00    -0.196 C  
HETATM   36  C   UNL     1     -12.530  12.789  67.712  1.00  0.00     0.623 C  
HETATM   37  C   UNL     1     -11.763  13.816  68.542  1.00  0.00    -0.391 C  
HETATM   38  C   UNL     1     -11.414  13.317  69.943  1.00  0.00    -0.170 C  
HETATM   39  C   UNL     1     -10.757  11.937  69.918  1.00  0.00     0.565 C  
ENDBRANCH  32  34
ENDBRANCH  30  32
ENDBRANCH  28  30
ENDBRANCH  25  28
ENDBRANCH  22  25
ENDBRANCH  18  19
ENDBRANCH  17  18
ENDBRANCH  14  17
ENDBRANCH   2   3
TORSDOF 9
ENDMDL
MODEL      210
REMARK 921   NORMALIZED FREE ENERGY PREDICTED BY IDOCK:   -3.94 KCAL/MOL
REMARK 922        TOTAL FREE ENERGY PREDICTED BY IDOCK:   -8.16 KCAL/MOL
REMARK 923 INTER-LIGAND FREE ENERGY PREDICTED BY IDOCK:   -6.82 KCAL/MOL
REMARK 924 INTRA-LIGAND FREE ENERGY PREDICTED BY IDOCK:   -1.34 KCAL/MOL
REMARK 927      BINDING AFFINITY PREDICTED BY RF-SCORE:    0.00 PKD
ROOT
HETATM    1  C   UNL     1     -12.445  15.099  64.234  1.00  0.00    -0.052 C  
HETATM    2  O   UNL     1     -13.069  14.101  65.036  1.00  0.00    -0.728 OA 
ENDROOT
BRANCH   2   3
HETATM    3  C   UNL     1     -12.259  13.069  65.422  1.00  0.00    -0.471 A  
HETATM    4  C   UNL     1     -11.577  12.227  64.552  1.00  0.00    -0.418 A  
HETATM    5  C   UNL     1     -10.736  11.227  65.060  1.00  0.00    -0.322 A  
HETATM    6  C   UNL     1     -10.604  11.018  66.443  1.00  0.00    -0.308 A  
HETATM    7  C   UNL     1     -11.268  11.902  67.307  1.00  0.00    -0.376 A  
HETATM    8  C   UNL     1      -9.710   9.899  66.965  1.00  0.00    -0.230 C  
HETATM    9  C   UNL     1      -9.286   8.947  65.836  1.00  0.00    -0.236 C  
HETATM   10  C   UNL     1      -8.391  10.500  67.501  1.00  0.00    -0.118 C  
HETATM   11  C   UNL     1     -10.389   9.086  68.082  1.00  0.00    -0.262 C  
HETATM   12  C   UNL     1     -12.074  12.925  66.797  1.00  0.00    -0.335 A  
HETATM   13  O   UNL     1      -9.099   7.743  65.994  1.00  0.00    -0.173 OA 
HETATM   14  N   UNL     1      -8.975   9.610  64.663  1.00  0.00    -0.220 N  
HETATM   15  O   UNL     1      -9.936  10.734  62.901  1.00  0.00    -0.307 OA 
HETATM   16  C   UNL     1      -9.864  10.501  64.103  1.00  0.00    -0.337 C  
BRANCH  14  17
HETATM   17  C   UNL     1      -7.824   9.175  63.906  1.00  0.00    -0.129 C  
BRANCH  17  18
HETATM   18  C   UNL     1      -8.071   8.175  62.776  1.00  0.00    -0.151 C  
BRANCH  18  19
HETATM   19  C   UNL     1      -7.703   6.761  63.196  1.00  0.00    -0.103 A  
HETATM   20  C   UNL     1      -8.340   5.633  62.649  1.00  0.00    -0.091 A  
HETATM   21  C   UNL     1      -8.032   4.348  63.092  1.00  0.00    -0.078 A  
HETATM   22  C   UNL     1      -7.053   4.176  64.065  1.00  0.00    -0.046 A  
HETATM   23  C   UNL     1      -6.701   6.565  64.156  1.00  0.00    -0.038 A  
HETATM   24  C   UNL     1      -6.384   5.278  64.600  1.00  0.00    -0.034 A  
BRANCH  22  25
HETATM   25  S   UNL     1      -6.703   2.541  64.652  1.00  0.00    -0.040 S  
HETATM   26  O   UNL     1      -7.518   1.586  63.932  1.00  0.00    -0.053 OA 
HETATM   27  O   UNL     1      -5.263   2.394  64.690  1.00  0.00    -0.007 OA 
BRANCH  25  28
HETATM   28  N   UNL     1      -7.175   2.598  66.243  1.00  0.00    -0.064 N  
HETATM   29  H   UNL     1      -6.492   2.331  66.952  1.00  0.00     0.000 HD 
BRANCH  28  30
HETATM   30  C   UNL     1      -8.430   2.982  66.672  1.00  0.00    -0.103 C  
HETATM   31  O   UNL     1      -9.452   2.820  66.026  1.00  0.00    -0.065 OA 
BRANCH  30  32
HETATM   32  N   UNL     1      -8.394   3.569  67.900  1.00  0.00    -0.083 N  
HETATM   33  H   UNL     1      -7.492   3.813  68.309  1.00  0.00     0.000 HD 
BRANCH  32  34
HETATM   34  C   UNL     1      -9.615   3.857  68.643  1.00  0.00    -0.111 C  
HETATM   35  C   UNL     1      -9.637   3.122  69.990  1.00  0.00    -0.162 C  
HETATM   36  C   UNL     1      -8.560   3.647  70.937  1.00  0.00    -0.110 C  
HETATM   37  C   UNL     1      -8.645   5.160  71.123  1.00  0.00    -0.128 C  
HETATM   38  C   UNL     1      -8.707   5.925  69.802  1.00  0.00    -0.129 C  
HETATM   39  C   UNL     1      -9.773   5.364  68.861  1.00  0.00    -0.205 C  
ENDBRANCH  32  34
ENDBRANCH  30  32
ENDBRANCH  28  30
ENDBRANCH  25  28
ENDBRANCH  22  25
ENDBRANCH  18  19
ENDBRANCH  17  18
ENDBRANCH  14  17
ENDBRANCH   2   3
TORSDOF 9
ENDMDL
MODEL      211
REMARK 921   NORMALIZED FREE ENERGY PREDICTED BY IDOCK:   -3.93 KCAL/MOL
REMARK 922        TOTAL FREE ENERGY PREDICTED BY IDOCK:   -8.14 KCAL/MOL
REMARK 923 INTER-LIGAND FREE ENERGY PREDICTED BY IDOCK:   -6.45 KCAL/MOL
REMARK 924 INTRA-LIGAND FREE ENERGY PREDICTED BY IDOCK:   -1.69 KCAL/MOL
REMARK 927      BINDING AFFINITY PREDICTED BY RF-SCORE:    0.00 PKD
ROOT
HETATM    1  C   UNL     1     -13.874  14.853  71.537  1.00  0.00    -0.467 C  
HETATM    2  O   UNL     1     -12.472  15.062  71.692  1.00  0.00    -0.302 OA 
ENDROOT
BRANCH   2   3
HETATM    3  C   UNL     1     -11.768  15.189  70.528  1.00  0.00    -0.302 A  
HETATM    4  C   UNL     1     -10.385  15.297  70.444  1.00  0.00    -0.088 A  
HETATM    5  C   UNL     1      -9.763  15.378  69.190  1.00  0.00    -0.252 A  
HETATM    6  C   UNL     1     -10.514  15.406  68.004  1.00  0.00    -0.257 A  
HETATM    7  C   UNL     1     -11.906  15.256  68.104  1.00  0.00    -0.217 A  
HETATM    8  C   UNL     1      -9.812  15.531  66.657  1.00  0.00    -0.268 C  
HETATM    9  C   UNL     1      -8.332  15.906  66.829  1.00  0.00    -0.271 C  
HETATM   10  C   UNL     1      -9.800  14.157  65.951  1.00  0.00    -0.312 C  
HETATM   11  C   UNL     1     -10.490  16.566  65.742  1.00  0.00    -0.343 C  
HETATM   12  C   UNL     1     -12.520  15.133  69.355  1.00  0.00    -0.069 A  
HETATM   13  O   UNL     1      -7.708  16.605  66.034  1.00  0.00    -0.226 OA 
HETATM   14  N   UNL     1      -7.728  15.241  67.881  1.00  0.00    -0.126 N  
HETATM   15  O   UNL     1      -7.635  15.180  70.178  1.00  0.00    -0.013 OA 
HETATM   16  C   UNL     1      -8.283  15.271  69.141  1.00  0.00    -0.234 C  
BRANCH  14  17
HETATM   17  C   UNL     1      -6.390  14.727  67.699  1.00  0.00    -0.116 C  
BRANCH  17  18
HETATM   18  C   UNL     1      -6.049  13.411  68.398  1.00  0.00    -0.092 C  
BRANCH  18  19
HETATM   19  C   UNL     1      -6.842  12.252  67.815  1.00  0.00    -0.109 A  
HETATM   20  C   UNL     1      -8.069  11.840  68.364  1.00  0.00    -0.150 A  
HETATM   21  C   UNL     1      -8.751  10.736  67.853  1.00  0.00    -0.129 A  
HETATM   22  C   UNL     1      -8.226  10.053  66.762  1.00  0.00    -0.121 A  
HETATM   23  C   UNL     1      -6.343  11.566  66.699  1.00  0.00    -0.103 A  
HETATM   24  C   UNL     1      -7.025  10.462  66.181  1.00  0.00    -0.126 A  
BRANCH  22  25
HETATM   25  S   UNL     1      -9.078   8.623  66.153  1.00  0.00    -0.213 S  
HETATM   26  O   UNL     1     -10.418   8.592  66.700  1.00  0.00    -0.289 OA 
HETATM   27  O   UNL     1      -8.872   8.576  64.719  1.00  0.00    -0.090 OA 
BRANCH  25  28
HETATM   28  N   UNL     1      -8.190   7.361  66.761  1.00  0.00    -0.118 N  
HETATM   29  H   UNL     1      -7.197   7.518  66.936  1.00  0.00     0.000 HD 
BRANCH  28  30
HETATM   30  C   UNL     1      -8.703   6.111  67.048  1.00  0.00    -0.107 C  
HETATM   31  O   UNL     1      -8.673   5.597  68.154  1.00  0.00    -0.104 OA 
BRANCH  30  32
HETATM   32  N   UNL     1      -9.241   5.514  65.949  1.00  0.00    -0.177 N  
HETATM   33  H   UNL     1     -10.254   5.411  65.883  1.00  0.00     0.000 HD 
BRANCH  32  34
HETATM   34  C   UNL     1      -8.402   5.020  64.863  1.00  0.00    -0.142 C  
HETATM   35  C   UNL     1      -7.266   4.135  65.391  1.00  0.00    -0.071 C  
HETATM   36  C   UNL     1      -7.796   2.837  65.997  1.00  0.00    -0.081 C  
HETATM   37  C   UNL     1      -8.695   2.074  65.026  1.00  0.00    -0.115 C  
HETATM   38  C   UNL     1      -9.792   2.943  64.414  1.00  0.00    -0.105 C  
HETATM   39  C   UNL     1      -9.241   4.248  63.840  1.00  0.00    -0.143 C  
ENDBRANCH  32  34
ENDBRANCH  30  32
ENDBRANCH  28  30
ENDBRANCH  25  28
ENDBRANCH  22  25
ENDBRANCH  18  19
ENDBRANCH  17  18
ENDBRANCH  14  17
ENDBRANCH   2   3
TORSDOF 9
ENDMDL
MODEL      212
REMARK 921   NORMALIZED FREE ENERGY PREDICTED BY IDOCK:   -3.92 KCAL/MOL
REMARK 922        TOTAL FREE ENERGY PREDICTED BY IDOCK:   -8.13 KCAL/MOL
REMARK 923 INTER-LIGAND FREE ENERGY PREDICTED BY IDOCK:   -7.41 KCAL/MOL
REMARK 924 INTRA-LIGAND FREE ENERGY PREDICTED BY IDOCK:   -0.72 KCAL/MOL
REMARK 927      BINDING AFFINITY PREDICTED BY RF-SCORE:    0.00 PKD
ROOT
HETATM    1  C   UNL     1     -13.184  15.401  71.603  1.00  0.00    -0.478 C  
HETATM    2  O   UNL     1     -11.858  14.966  71.311  1.00  0.00    -0.307 OA 
ENDROOT
BRANCH   2   3
HETATM    3  C   UNL     1     -11.622  14.646  70.003  1.00  0.00    -0.284 A  
HETATM    4  C   UNL     1     -11.186  13.405  69.555  1.00  0.00    -0.181 A  
HETATM    5  C   UNL     1     -11.020  13.174  68.183  1.00  0.00    -0.275 A  
HETATM    6  C   UNL     1     -11.234  14.194  67.240  1.00  0.00    -0.330 A  
HETATM    7  C   UNL     1     -11.712  15.428  67.706  1.00  0.00    -0.159 A  
HETATM    8  C   UNL     1     -11.009  13.923  65.757  1.00  0.00    -0.285 C  
HETATM    9  C   UNL     1     -10.279  12.590  65.535  1.00  0.00    -0.275 C  
HETATM   10  C   UNL     1     -12.373  13.758  65.050  1.00  0.00    -0.456 C  
HETATM   11  C   UNL     1     -10.217  15.051  65.074  1.00  0.00    -0.349 C  
HETATM   12  C   UNL     1     -11.917  15.642  69.073  1.00  0.00    -0.323 A  
HETATM   13  O   UNL     1      -9.490  12.389  64.614  1.00  0.00     0.087 OA 
HETATM   14  N   UNL     1     -10.725  11.587  66.375  1.00  0.00    -0.264 N  
HETATM   15  O   UNL     1     -10.646  10.881  68.563  1.00  0.00    -0.170 OA 
HETATM   16  C   UNL     1     -10.767  11.780  67.739  1.00  0.00    -0.205 C  
BRANCH  14  17
HETATM   17  C   UNL     1     -10.907  10.259  65.834  1.00  0.00     0.211 C  
BRANCH  17  18
HETATM   18  C   UNL     1      -9.654   9.402  65.655  1.00  0.00    -0.345 C  
BRANCH  18  19
HETATM   19  C   UNL     1      -9.569   8.315  66.714  1.00  0.00    -0.288 A  
HETATM   20  C   UNL     1      -8.338   7.881  67.236  1.00  0.00    -0.122 A  
HETATM   21  C   UNL     1      -8.276   6.840  68.162  1.00  0.00    -0.114 A  
HETATM   22  C   UNL     1      -9.454   6.245  68.601  1.00  0.00    -0.121 A  
HETATM   23  C   UNL     1     -10.746   7.721  67.190  1.00  0.00    -0.337 A  
HETATM   24  C   UNL     1     -10.690   6.680  68.121  1.00  0.00    -0.320 A  
BRANCH  22  25
HETATM   25  S   UNL     1      -9.360   4.892  69.742  1.00  0.00    -0.154 S  
HETATM   26  O   UNL     1      -9.559   3.647  69.030  1.00  0.00    -0.171 OA 
HETATM   27  O   UNL     1      -8.174   5.091  70.551  1.00  0.00    -0.096 OA 
BRANCH  25  28
HETATM   28  N   UNL     1     -10.636   5.166  70.767  1.00  0.00    -0.188 N  
HETATM   29  H   UNL     1     -11.544   5.376  70.352  1.00  0.00     0.000 HD 
BRANCH  28  30
HETATM   30  C   UNL     1     -10.553   5.129  72.145  1.00  0.00    -0.211 C  
HETATM   31  O   UNL     1     -10.580   6.119  72.858  1.00  0.00    -0.209 OA 
BRANCH  30  32
HETATM   32  N   UNL     1     -10.430   3.858  72.616  1.00  0.00    -0.156 N  
HETATM   33  H   UNL     1     -10.587   3.074  71.983  1.00  0.00     0.000 HD 
BRANCH  32  34
HETATM   34  C   UNL     1     -10.080   3.591  74.007  1.00  0.00    -0.138 C  
HETATM   35  C   UNL     1      -9.899   2.089  74.260  1.00  0.00    -0.127 C  
HETATM   36  C   UNL     1      -8.686   1.532  73.517  1.00  0.00    -0.057 C  
HETATM   37  C   UNL     1      -7.412   2.311  73.833  1.00  0.00    -0.037 C  
HETATM   38  C   UNL     1      -7.574   3.822  73.671  1.00  0.00    -0.070 C  
HETATM   39  C   UNL     1      -8.810   4.350  74.400  1.00  0.00    -0.104 C  
ENDBRANCH  32  34
ENDBRANCH  30  32
ENDBRANCH  28  30
ENDBRANCH  25  28
ENDBRANCH  22  25
ENDBRANCH  18  19
ENDBRANCH  17  18
ENDBRANCH  14  17
ENDBRANCH   2   3
TORSDOF 9
ENDMDL
MODEL      213
REMARK 921   NORMALIZED FREE ENERGY PREDICTED BY IDOCK:   -3.90 KCAL/MOL
REMARK 922        TOTAL FREE ENERGY PREDICTED BY IDOCK:   -8.09 KCAL/MOL
REMARK 923 INTER-LIGAND FREE ENERGY PREDICTED BY IDOCK:   -6.78 KCAL/MOL
REMARK 924 INTRA-LIGAND FREE ENERGY PREDICTED BY IDOCK:   -1.31 KCAL/MOL
REMARK 927      BINDING AFFINITY PREDICTED BY RF-SCORE:    0.00 PKD
ROOT
HETATM    1  C   UNL     1      -6.305  17.485  68.717  1.00  0.00    -0.197 C  
HETATM    2  O   UNL     1      -6.275  16.303  67.922  1.00  0.00    -0.108 OA 
ENDROOT
BRANCH   2   3
HETATM    3  C   UNL     1      -7.453  15.613  67.855  1.00  0.00    -0.133 A  
HETATM    4  C   UNL     1      -7.564  14.228  67.866  1.00  0.00    -0.159 A  
HETATM    5  C   UNL     1      -8.830  13.626  67.838  1.00  0.00    -0.188 A  
HETATM    6  C   UNL     1     -10.001  14.396  67.746  1.00  0.00    -0.226 A  
HETATM    7  C   UNL     1      -9.873  15.792  67.776  1.00  0.00    -0.224 A  
HETATM    8  C   UNL     1     -11.362  13.712  67.680  1.00  0.00    -0.328 C  
HETATM    9  C   UNL     1     -11.219  12.202  67.434  1.00  0.00    -0.302 C  
HETATM   10  C   UNL     1     -12.066  13.831  69.050  1.00  0.00    -0.359 C  
HETATM   11  C   UNL     1     -12.265  14.317  66.591  1.00  0.00    -0.411 C  
HETATM   12  C   UNL     1      -8.610  16.390  67.846  1.00  0.00    -0.175 A  
HETATM   13  O   UNL     1     -12.028  11.536  66.791  1.00  0.00    -0.470 OA 
HETATM   14  N   UNL     1     -10.179  11.637  68.149  1.00  0.00    -0.190 N  
HETATM   15  O   UNL     1      -7.884  11.503  68.218  1.00  0.00    -0.122 OA 
HETATM   16  C   UNL     1      -8.908  12.162  68.072  1.00  0.00    -0.181 C  
BRANCH  14  17
HETATM   17  C   UNL     1     -10.387  10.351  68.775  1.00  0.00    -0.196 C  
BRANCH  17  18
HETATM   18  C   UNL     1     -10.504  10.331  70.299  1.00  0.00    -0.207 C  
BRANCH  18  19
HETATM   19  C   UNL     1     -10.226   8.945  70.859  1.00  0.00    -0.304 A  
HETATM   20  C   UNL     1     -10.946   7.814  70.435  1.00  0.00    -0.255 A  
HETATM   21  C   UNL     1     -10.719   6.562  71.004  1.00  0.00    -0.289 A  
HETATM   22  C   UNL     1      -9.740   6.423  71.982  1.00  0.00    -0.150 A  
HETATM   23  C   UNL     1      -9.226   8.778  71.826  1.00  0.00    -0.332 A  
HETATM   24  C   UNL     1      -8.991   7.525  72.397  1.00  0.00    -0.172 A  
BRANCH  22  25
HETATM   25  S   UNL     1      -9.494   4.835  72.731  1.00  0.00    -0.133 S  
HETATM   26  O   UNL     1      -8.839   5.003  74.011  1.00  0.00    -0.114 OA 
HETATM   27  O   UNL     1     -10.748   4.115  72.639  1.00  0.00    -0.158 OA 
BRANCH  25  28
HETATM   28  N   UNL     1      -8.474   4.067  71.672  1.00  0.00    -0.092 N  
HETATM   29  H   UNL     1      -7.562   3.769  72.020  1.00  0.00     0.000 HD 
BRANCH  28  30
HETATM   30  C   UNL     1      -8.775   3.802  70.350  1.00  0.00    -0.079 C  
HETATM   31  O   UNL     1      -9.699   3.092  69.989  1.00  0.00    -0.131 OA 
BRANCH  30  32
HETATM   32  N   UNL     1      -7.915   4.421  69.496  1.00  0.00    -0.061 N  
HETATM   33  H   UNL     1      -7.285   3.856  68.926  1.00  0.00     0.000 HD 
BRANCH  32  34
HETATM   34  C   UNL     1      -7.873   5.874  69.376  1.00  0.00    -0.094 C  
HETATM   35  C   UNL     1      -6.544   6.441  69.890  1.00  0.00    -0.048 C  
HETATM   36  C   UNL     1      -5.371   6.018  69.008  1.00  0.00    -0.004 C  
HETATM   37  C   UNL     1      -5.599   6.370  67.540  1.00  0.00    -0.009 C  
HETATM   38  C   UNL     1      -6.951   5.893  67.011  1.00  0.00    -0.069 C  
HETATM   39  C   UNL     1      -8.105   6.304  67.924  1.00  0.00    -0.114 C  
ENDBRANCH  32  34
ENDBRANCH  30  32
ENDBRANCH  28  30
ENDBRANCH  25  28
ENDBRANCH  22  25
ENDBRANCH  18  19
ENDBRANCH  17  18
ENDBRANCH  14  17
ENDBRANCH   2   3
TORSDOF 9
ENDMDL
MODEL      214
REMARK 921   NORMALIZED FREE ENERGY PREDICTED BY IDOCK:   -3.90 KCAL/MOL
REMARK 922        TOTAL FREE ENERGY PREDICTED BY IDOCK:   -8.09 KCAL/MOL
REMARK 923 INTER-LIGAND FREE ENERGY PREDICTED BY IDOCK:   -6.71 KCAL/MOL
REMARK 924 INTRA-LIGAND FREE ENERGY PREDICTED BY IDOCK:   -1.39 KCAL/MOL
REMARK 927      BINDING AFFINITY PREDICTED BY RF-SCORE:    0.00 PKD
ROOT
HETATM    1  C   UNL     1      -5.143  10.107  73.977  1.00  0.00     0.008 C  
HETATM    2  O   UNL     1      -5.583   8.824  74.416  1.00  0.00    -0.105 OA 
ENDROOT
BRANCH   2   3
HETATM    3  C   UNL     1      -6.384   8.148  73.538  1.00  0.00    -0.099 A  
HETATM    4  C   UNL     1      -7.584   8.627  73.026  1.00  0.00     0.054 A  
HETATM    5  C   UNL     1      -8.302   7.866  72.094  1.00  0.00    -0.168 A  
HETATM    6  C   UNL     1      -7.862   6.591  71.700  1.00  0.00    -0.100 A  
HETATM    7  C   UNL     1      -6.630   6.140  72.196  1.00  0.00    -0.059 A  
HETATM    8  C   UNL     1      -8.684   5.770  70.712  1.00  0.00    -0.131 C  
HETATM    9  C   UNL     1     -10.079   6.379  70.502  1.00  0.00    -0.186 C  
HETATM   10  C   UNL     1      -8.012   5.813  69.321  1.00  0.00    -0.101 C  
HETATM   11  C   UNL     1      -8.835   4.306  71.159  1.00  0.00    -0.151 C  
HETATM   12  C   UNL     1      -5.894   6.920  73.093  1.00  0.00    -0.049 A  
HETATM   13  O   UNL     1     -11.087   5.713  70.277  1.00  0.00    -0.278 OA 
HETATM   14  N   UNL     1     -10.057   7.759  70.426  1.00  0.00    -0.193 N  
HETATM   15  O   UNL     1      -9.795   9.646  71.715  1.00  0.00     0.071 OA 
HETATM   16  C   UNL     1      -9.454   8.507  71.414  1.00  0.00    -0.213 C  
BRANCH  14  17
HETATM   17  C   UNL     1     -10.883   8.412  69.436  1.00  0.00    -0.082 C  
BRANCH  17  18
HETATM   18  C   UNL     1     -10.242   8.703  68.078  1.00  0.00    -0.261 C  
BRANCH  18  19
HETATM   19  C   UNL     1     -10.055  10.196  67.862  1.00  0.00    -0.207 A  
HETATM   20  C   UNL     1     -11.066  10.999  67.305  1.00  0.00    -0.359 A  
HETATM   21  C   UNL     1     -10.854  12.355  67.058  1.00  0.00    -0.282 A  
HETATM   22  C   UNL     1      -9.634  12.929  67.400  1.00  0.00    -0.203 A  
HETATM   23  C   UNL     1      -8.843  10.800  68.225  1.00  0.00    -0.139 A  
HETATM   24  C   UNL     1      -8.627  12.160  67.983  1.00  0.00    -0.175 A  
BRANCH  22  25
HETATM   25  S   UNL     1      -9.360  14.642  67.037  1.00  0.00    -0.243 S  
HETATM   26  O   UNL     1      -9.487  14.859  65.611  1.00  0.00    -0.282 OA 
HETATM   27  O   UNL     1     -10.157  15.414  67.969  1.00  0.00    -0.223 OA 
BRANCH  25  28
HETATM   28  N   UNL     1      -7.787  14.885  67.507  1.00  0.00    -0.170 N  
HETATM   29  H   UNL     1      -7.102  14.167  67.268  1.00  0.00     0.000 HD 
BRANCH  28  30
HETATM   30  C   UNL     1      -7.340  15.994  68.198  1.00  0.00    -0.127 C  
HETATM   31  O   UNL     1      -6.993  15.975  69.368  1.00  0.00    -0.201 OA 
BRANCH  30  32
HETATM   32  N   UNL     1      -7.338  17.114  67.425  1.00  0.00    -0.149 N  
HETATM   33  H   UNL     1      -6.597  17.243  66.736  1.00  0.00     0.000 HD 
BRANCH  32  34
HETATM   34  C   UNL     1      -8.373  18.133  67.557  1.00  0.00    -0.237 C  
HETATM   35  C   UNL     1      -8.098  19.059  68.749  1.00  0.00    -0.372 C  
HETATM   36  C   UNL     1      -6.846  19.907  68.528  1.00  0.00    -0.344 C  
HETATM   37  C   UNL     1      -6.903  20.684  67.215  1.00  0.00    -0.376 C  
HETATM   38  C   UNL     1      -7.256  19.810  66.013  1.00  0.00    -0.305 C  
HETATM   39  C   UNL     1      -8.494  18.951  66.268  1.00  0.00    -0.268 C  
ENDBRANCH  32  34
ENDBRANCH  30  32
ENDBRANCH  28  30
ENDBRANCH  25  28
ENDBRANCH  22  25
ENDBRANCH  18  19
ENDBRANCH  17  18
ENDBRANCH  14  17
ENDBRANCH   2   3
TORSDOF 9
ENDMDL
MODEL      215
REMARK 921   NORMALIZED FREE ENERGY PREDICTED BY IDOCK:   -3.89 KCAL/MOL
REMARK 922        TOTAL FREE ENERGY PREDICTED BY IDOCK:   -8.09 KCAL/MOL
REMARK 923 INTER-LIGAND FREE ENERGY PREDICTED BY IDOCK:   -7.10 KCAL/MOL
REMARK 924 INTRA-LIGAND FREE ENERGY PREDICTED BY IDOCK:   -0.99 KCAL/MOL
REMARK 927      BINDING AFFINITY PREDICTED BY RF-SCORE:    0.00 PKD
ROOT
HETATM    1  C   UNL     1      -8.497   4.584  74.558  1.00  0.00    -0.103 C  
HETATM    2  O   UNL     1      -9.754   4.653  73.890  1.00  0.00    -0.128 OA 
ENDROOT
BRANCH   2   3
HETATM    3  C   UNL     1      -9.832   5.573  72.882  1.00  0.00    -0.163 A  
HETATM    4  C   UNL     1      -8.750   6.266  72.353  1.00  0.00    -0.121 A  
HETATM    5  C   UNL     1      -8.941   7.156  71.288  1.00  0.00    -0.147 A  
HETATM    6  C   UNL     1     -10.222   7.409  70.769  1.00  0.00    -0.200 A  
HETATM    7  C   UNL     1     -11.297   6.672  71.287  1.00  0.00    -0.346 A  
HETATM    8  C   UNL     1     -10.403   8.410  69.634  1.00  0.00    -0.218 C  
HETATM    9  C   UNL     1      -9.128   9.237  69.406  1.00  0.00    -0.152 C  
HETATM   10  C   UNL     1     -10.632   7.651  68.308  1.00  0.00    -0.175 C  
HETATM   11  C   UNL     1     -11.584   9.364  69.883  1.00  0.00     0.028 C  
HETATM   12  C   UNL     1     -11.097   5.753  72.323  1.00  0.00    -0.330 A  
HETATM   13  O   UNL     1      -9.132  10.407  69.032  1.00  0.00    -0.169 OA 
HETATM   14  N   UNL     1      -7.974   8.482  69.504  1.00  0.00    -0.103 N  
HETATM   15  O   UNL     1      -6.616   7.427  71.032  1.00  0.00    -0.043 OA 
HETATM   16  C   UNL     1      -7.736   7.703  70.615  1.00  0.00    -0.088 C  
BRANCH  14  17
HETATM   17  C   UNL     1      -6.914   8.710  68.548  1.00  0.00    -0.065 C  
BRANCH  17  18
HETATM   18  C   UNL     1      -5.794   9.663  68.966  1.00  0.00    -0.035 C  
BRANCH  18  19
HETATM   19  C   UNL     1      -6.180  11.113  68.722  1.00  0.00    -0.045 A  
HETATM   20  C   UNL     1      -6.068  12.091  69.726  1.00  0.00    -0.145 A  
HETATM   21  C   UNL     1      -6.485  13.403  69.501  1.00  0.00    -0.083 A  
HETATM   22  C   UNL     1      -6.987  13.756  68.254  1.00  0.00    -0.109 A  
HETATM   23  C   UNL     1      -6.663  11.496  67.463  1.00  0.00    -0.087 A  
HETATM   24  C   UNL     1      -7.078  12.810  67.232  1.00  0.00    -0.088 A  
BRANCH  22  25
HETATM   25  S   UNL     1      -7.557  15.415  67.996  1.00  0.00    -0.136 S  
HETATM   26  O   UNL     1      -6.423  16.315  67.969  1.00  0.00    -0.119 OA 
HETATM   27  O   UNL     1      -8.494  15.383  66.892  1.00  0.00    -0.214 OA 
BRANCH  25  28
HETATM   28  N   UNL     1      -8.482  15.714  69.341  1.00  0.00    -0.258 N  
HETATM   29  H   UNL     1      -8.116  15.416  70.246  1.00  0.00     0.000 HD 
BRANCH  28  30
HETATM   30  C   UNL     1      -9.713  16.339  69.320  1.00  0.00    -0.238 C  
HETATM   31  O   UNL     1      -9.973  17.313  68.631  1.00  0.00    -0.291 OA 
BRANCH  30  32
HETATM   32  N   UNL     1     -10.603  15.747  70.162  1.00  0.00    -0.328 N  
HETATM   33  H   UNL     1     -10.302  15.484  71.100  1.00  0.00     0.000 HD 
BRANCH  32  34
HETATM   34  C   UNL     1     -11.978  15.479  69.753  1.00  0.00    -0.364 C  
HETATM   35  C   UNL     1     -12.092  14.139  69.016  1.00  0.00    -0.348 C  
HETATM   36  C   UNL     1     -11.803  12.959  69.941  1.00  0.00    -0.373 C  
HETATM   37  C   UNL     1     -12.674  12.985  71.195  1.00  0.00    -0.372 C  
HETATM   38  C   UNL     1     -12.651  14.332  71.915  1.00  0.00    -0.396 C  
HETATM   39  C   UNL     1     -12.915  15.499  70.963  1.00  0.00    -0.550 C  
ENDBRANCH  32  34
ENDBRANCH  30  32
ENDBRANCH  28  30
ENDBRANCH  25  28
ENDBRANCH  22  25
ENDBRANCH  18  19
ENDBRANCH  17  18
ENDBRANCH  14  17
ENDBRANCH   2   3
TORSDOF 9
ENDMDL
MODEL      216
REMARK 921   NORMALIZED FREE ENERGY PREDICTED BY IDOCK:   -3.89 KCAL/MOL
REMARK 922        TOTAL FREE ENERGY PREDICTED BY IDOCK:   -8.08 KCAL/MOL
REMARK 923 INTER-LIGAND FREE ENERGY PREDICTED BY IDOCK:   -6.58 KCAL/MOL
REMARK 924 INTRA-LIGAND FREE ENERGY PREDICTED BY IDOCK:   -1.50 KCAL/MOL
REMARK 927      BINDING AFFINITY PREDICTED BY RF-SCORE:    0.00 PKD
ROOT
HETATM    1  C   UNL     1      -8.811  19.684  66.497  1.00  0.00    -0.364 C  
HETATM    2  O   UNL     1      -8.101  18.725  65.718  1.00  0.00    -0.473 OA 
ENDROOT
BRANCH   2   3
HETATM    3  C   UNL     1      -8.093  17.454  66.221  1.00  0.00    -0.263 A  
HETATM    4  C   UNL     1      -9.082  16.504  65.998  1.00  0.00    -0.290 A  
HETATM    5  C   UNL     1      -8.947  15.214  66.527  1.00  0.00    -0.326 A  
HETATM    6  C   UNL     1      -7.850  14.867  67.333  1.00  0.00    -0.224 A  
HETATM    7  C   UNL     1      -6.841  15.824  67.515  1.00  0.00    -0.219 A  
HETATM    8  C   UNL     1      -7.750  13.466  67.925  1.00  0.00    -0.153 C  
HETATM    9  C   UNL     1      -9.070  12.695  67.770  1.00  0.00    -0.192 C  
HETATM   10  C   UNL     1      -6.709  12.643  67.133  1.00  0.00    -0.025 C  
HETATM   11  C   UNL     1      -7.352  13.490  69.411  1.00  0.00     0.255 C  
HETATM   12  C   UNL     1      -6.958  17.098  66.950  1.00  0.00    -0.247 A  
HETATM   13  O   UNL     1      -9.478  11.870  68.585  1.00  0.00    -0.171 OA 
HETATM   14  N   UNL     1      -9.671  12.901  66.542  1.00  0.00    -0.253 N  
HETATM   15  O   UNL     1     -10.832  14.471  65.327  1.00  0.00    -0.322 OA 
HETATM   16  C   UNL     1      -9.913  14.177  66.083  1.00  0.00    -0.314 C  
BRANCH  14  17
HETATM   17  C   UNL     1     -10.263  11.771  65.862  1.00  0.00    -0.237 C  
BRANCH  17  18
HETATM   18  C   UNL     1      -9.320  10.651  65.422  1.00  0.00    -0.250 C  
BRANCH  18  19
HETATM   19  C   UNL     1      -9.425   9.444  66.341  1.00  0.00    -0.259 A  
HETATM   20  C   UNL     1     -10.652   8.807  66.594  1.00  0.00    -0.141 A  
HETATM   21  C   UNL     1     -10.738   7.740  67.487  1.00  0.00    -0.265 A  
HETATM   22  C   UNL     1      -9.584   7.276  68.111  1.00  0.00    -0.140 A  
HETATM   23  C   UNL     1      -8.270   8.944  66.959  1.00  0.00    -0.106 A  
HETATM   24  C   UNL     1      -8.349   7.872  67.851  1.00  0.00    -0.126 A  
BRANCH  22  25
HETATM   25  S   UNL     1      -9.714   5.950  69.280  1.00  0.00    -0.151 S  
HETATM   26  O   UNL     1     -10.683   6.298  70.297  1.00  0.00    -0.236 OA 
HETATM   27  O   UNL     1      -9.853   4.721  68.525  1.00  0.00    -0.157 OA 
BRANCH  25  28
HETATM   28  N   UNL     1      -8.196   5.879  69.947  1.00  0.00    -0.115 N  
HETATM   29  H   UNL     1      -7.778   6.751  70.272  1.00  0.00     0.000 HD 
BRANCH  28  30
HETATM   30  C   UNL     1      -7.460   4.720  70.093  1.00  0.00    -0.054 C  
HETATM   31  O   UNL     1      -6.690   4.289  69.250  1.00  0.00    -0.043 OA 
BRANCH  30  32
HETATM   32  N   UNL     1      -7.699   4.108  71.285  1.00  0.00    -0.068 N  
HETATM   33  H   UNL     1      -7.338   4.529  72.142  1.00  0.00     0.000 HD 
BRANCH  32  34
HETATM   34  C   UNL     1      -8.459   2.866  71.366  1.00  0.00    -0.064 C  
HETATM   35  C   UNL     1      -7.761   1.840  72.268  1.00  0.00    -0.044 C  
HETATM   36  C   UNL     1      -7.740   2.292  73.727  1.00  0.00    -0.046 C  
HETATM   37  C   UNL     1      -9.135   2.635  74.243  1.00  0.00    -0.090 C  
HETATM   38  C   UNL     1      -9.897   3.593  73.328  1.00  0.00    -0.169 C  
HETATM   39  C   UNL     1      -9.880   3.134  71.871  1.00  0.00    -0.238 C  
ENDBRANCH  32  34
ENDBRANCH  30  32
ENDBRANCH  28  30
ENDBRANCH  25  28
ENDBRANCH  22  25
ENDBRANCH  18  19
ENDBRANCH  17  18
ENDBRANCH  14  17
ENDBRANCH   2   3
TORSDOF 9
ENDMDL
MODEL      217
REMARK 921   NORMALIZED FREE ENERGY PREDICTED BY IDOCK:   -3.88 KCAL/MOL
REMARK 922        TOTAL FREE ENERGY PREDICTED BY IDOCK:   -8.07 KCAL/MOL
REMARK 923 INTER-LIGAND FREE ENERGY PREDICTED BY IDOCK:   -6.71 KCAL/MOL
REMARK 924 INTRA-LIGAND FREE ENERGY PREDICTED BY IDOCK:   -1.36 KCAL/MOL
REMARK 927      BINDING AFFINITY PREDICTED BY RF-SCORE:    0.00 PKD
ROOT
HETATM    1  C   UNL     1     -13.094  15.808  73.411  1.00  0.00    -0.579 C  
HETATM    2  O   UNL     1     -12.198  16.499  72.544  1.00  0.00    -0.440 OA 
ENDROOT
BRANCH   2   3
HETATM    3  C   UNL     1     -11.858  15.830  71.401  1.00  0.00    -0.442 A  
HETATM    4  C   UNL     1     -10.673  16.010  70.698  1.00  0.00    -0.058 A  
HETATM    5  C   UNL     1     -10.409  15.235  69.560  1.00  0.00    -0.267 A  
HETATM    6  C   UNL     1     -11.346  14.308  69.075  1.00  0.00    -0.303 A  
HETATM    7  C   UNL     1     -12.519  14.111  69.819  1.00  0.00    -0.266 A  
HETATM    8  C   UNL     1     -11.047  13.506  67.814  1.00  0.00    -0.291 C  
HETATM    9  C   UNL     1      -9.822  14.064  67.073  1.00  0.00    -0.260 C  
HETATM   10  C   UNL     1     -10.659  12.061  68.201  1.00  0.00    -0.233 C  
HETATM   11  C   UNL     1     -12.245  13.470  66.850  1.00  0.00    -0.377 C  
HETATM   12  C   UNL     1     -12.761  14.856  70.978  1.00  0.00    -0.412 A  
HETATM   13  O   UNL     1      -9.696  14.042  65.851  1.00  0.00    -0.285 OA 
HETATM   14  N   UNL     1      -8.803  14.442  67.928  1.00  0.00    -0.171 N  
HETATM   15  O   UNL     1      -8.210  16.069  69.441  1.00  0.00    -0.235 OA 
HETATM   16  C   UNL     1      -9.047  15.305  68.973  1.00  0.00    -0.225 C  
BRANCH  14  17
HETATM   17  C   UNL     1      -7.440  14.121  67.567  1.00  0.00    -0.174 C  
BRANCH  17  18
HETATM   18  C   UNL     1      -6.701  13.124  68.458  1.00  0.00    -0.092 C  
BRANCH  18  19
HETATM   19  C   UNL     1      -7.076  11.691  68.117  1.00  0.00    -0.078 A  
HETATM   20  C   UNL     1      -7.313  11.279  66.794  1.00  0.00    -0.146 A  
HETATM   21  C   UNL     1      -7.716   9.975  66.507  1.00  0.00    -0.105 A  
HETATM   22  C   UNL     1      -7.850   9.058  67.544  1.00  0.00    -0.100 A  
HETATM   23  C   UNL     1      -7.191  10.744  69.144  1.00  0.00    -0.107 A  
HETATM   24  C   UNL     1      -7.590   9.435  68.862  1.00  0.00    -0.075 A  
BRANCH  22  25
HETATM   25  S   UNL     1      -8.408   7.417  67.171  1.00  0.00    -0.119 S  
HETATM   26  O   UNL     1      -9.808   7.457  66.804  1.00  0.00    -0.201 OA 
HETATM   27  O   UNL     1      -7.434   6.822  66.280  1.00  0.00    -0.075 OA 
BRANCH  25  28
HETATM   28  N   UNL     1      -8.225   6.615  68.613  1.00  0.00    -0.119 N  
HETATM   29  H   UNL     1      -9.068   6.388  69.142  1.00  0.00     0.000 HD 
BRANCH  28  30
HETATM   30  C   UNL     1      -7.010   6.233  69.145  1.00  0.00    -0.068 C  
HETATM   31  O   UNL     1      -6.493   6.762  70.116  1.00  0.00    -0.038 OA 
BRANCH  30  32
HETATM   32  N   UNL     1      -6.451   5.201  68.457  1.00  0.00    -0.039 N  
HETATM   33  H   UNL     1      -6.270   5.307  67.458  1.00  0.00     0.000 HD 
BRANCH  32  34
HETATM   34  C   UNL     1      -6.104   3.945  69.113  1.00  0.00    -0.027 C  
HETATM   35  C   UNL     1      -7.122   3.584  70.203  1.00  0.00    -0.041 C  
HETATM   36  C   UNL     1      -8.493   3.261  69.611  1.00  0.00    -0.099 C  
HETATM   37  C   UNL     1      -8.415   2.180  68.536  1.00  0.00    -0.086 C  
HETATM   38  C   UNL     1      -7.353   2.464  67.474  1.00  0.00    -0.056 C  
HETATM   39  C   UNL     1      -5.999   2.811  68.091  1.00  0.00    -0.024 C  
ENDBRANCH  32  34
ENDBRANCH  30  32
ENDBRANCH  28  30
ENDBRANCH  25  28
ENDBRANCH  22  25
ENDBRANCH  18  19
ENDBRANCH  17  18
ENDBRANCH  14  17
ENDBRANCH   2   3
TORSDOF 9
ENDMDL
MODEL      218
REMARK 921   NORMALIZED FREE ENERGY PREDICTED BY IDOCK:   -3.88 KCAL/MOL
REMARK 922        TOTAL FREE ENERGY PREDICTED BY IDOCK:   -8.07 KCAL/MOL
REMARK 923 INTER-LIGAND FREE ENERGY PREDICTED BY IDOCK:   -6.89 KCAL/MOL
REMARK 924 INTRA-LIGAND FREE ENERGY PREDICTED BY IDOCK:   -1.18 KCAL/MOL
REMARK 927      BINDING AFFINITY PREDICTED BY RF-SCORE:    0.00 PKD
ROOT
HETATM    1  C   UNL     1     -12.582  11.914  63.450  1.00  0.00    -0.431 C  
HETATM    2  O   UNL     1     -12.758  13.325  63.553  1.00  0.00    -0.708 OA 
ENDROOT
BRANCH   2   3
HETATM    3  C   UNL     1     -11.934  13.953  64.444  1.00  0.00    -0.450 A  
HETATM    4  C   UNL     1     -11.278  13.328  65.498  1.00  0.00    -0.307 A  
HETATM    5  C   UNL     1     -10.419  14.065  66.325  1.00  0.00    -0.286 A  
HETATM    6  C   UNL     1     -10.243  15.447  66.147  1.00  0.00    -0.324 A  
HETATM    7  C   UNL     1     -10.880  16.055  65.055  1.00  0.00    -0.421 A  
HETATM    8  C   UNL     1      -9.330  16.228  67.085  1.00  0.00    -0.232 C  
HETATM    9  C   UNL     1      -8.941  15.392  68.314  1.00  0.00    -0.185 C  
HETATM   10  C   UNL     1      -7.996  16.537  66.370  1.00  0.00    -0.352 C  
HETATM   11  C   UNL     1      -9.971  17.546  67.556  1.00  0.00    -0.315 C  
HETATM   12  C   UNL     1     -11.704  15.308  64.206  1.00  0.00    -0.223 A  
HETATM   13  O   UNL     1      -8.746  15.868  69.430  1.00  0.00    -0.253 OA 
HETATM   14  N   UNL     1      -8.669  14.073  68.001  1.00  0.00    -0.171 N  
HETATM   15  O   UNL     1      -9.688  12.101  67.399  1.00  0.00    -0.178 OA 
HETATM   16  C   UNL     1      -9.577  13.317  67.293  1.00  0.00    -0.234 C  
BRANCH  14  17
HETATM   17  C   UNL     1      -7.541  13.428  68.636  1.00  0.00    -0.101 C  
BRANCH  17  18
HETATM   18  C   UNL     1      -6.600  12.629  67.735  1.00  0.00    -0.130 C  
BRANCH  18  19
HETATM   19  C   UNL     1      -6.603  11.153  68.099  1.00  0.00    -0.058 A  
HETATM   20  C   UNL     1      -7.233  10.675  69.262  1.00  0.00    -0.113 A  
HETATM   21  C   UNL     1      -7.173   9.326  69.611  1.00  0.00    -0.063 A  
HETATM   22  C   UNL     1      -6.508   8.434  68.776  1.00  0.00    -0.053 A  
HETATM   23  C   UNL     1      -5.962  10.233  67.258  1.00  0.00    -0.053 A  
HETATM   24  C   UNL     1      -5.902   8.879  67.601  1.00  0.00    -0.043 A  
BRANCH  22  25
HETATM   25  S   UNL     1      -6.399   6.731  69.255  1.00  0.00    -0.040 S  
HETATM   26  O   UNL     1      -5.410   6.588  70.302  1.00  0.00    -0.014 OA 
HETATM   27  O   UNL     1      -7.751   6.250  69.452  1.00  0.00    -0.096 OA 
BRANCH  25  28
HETATM   28  N   UNL     1      -5.868   5.979  67.873  1.00  0.00    -0.012 N  
HETATM   29  H   UNL     1      -4.866   5.821  67.772  1.00  0.00     0.000 HD 
BRANCH  28  30
HETATM   30  C   UNL     1      -6.693   5.552  66.851  1.00  0.00    -0.062 C  
HETATM   31  O   UNL     1      -7.011   6.242  65.896  1.00  0.00    -0.058 OA 
BRANCH  30  32
HETATM   32  N   UNL     1      -7.116   4.272  67.035  1.00  0.00    -0.066 N  
HETATM   33  H   UNL     1      -6.569   3.647  67.627  1.00  0.00     0.000 HD 
BRANCH  32  34
HETATM   34  C   UNL     1      -8.334   3.773  66.406  1.00  0.00    -0.105 C  
HETATM   35  C   UNL     1      -8.253   2.263  66.150  1.00  0.00    -0.089 C  
HETATM   36  C   UNL     1      -8.225   1.469  67.454  1.00  0.00    -0.071 C  
HETATM   37  C   UNL     1      -9.397   1.821  68.367  1.00  0.00    -0.245 C  
HETATM   38  C   UNL     1      -9.562   3.325  68.582  1.00  0.00    -0.117 C  
HETATM   39  C   UNL     1      -9.558   4.099  67.264  1.00  0.00    -0.228 C  
ENDBRANCH  32  34
ENDBRANCH  30  32
ENDBRANCH  28  30
ENDBRANCH  25  28
ENDBRANCH  22  25
ENDBRANCH  18  19
ENDBRANCH  17  18
ENDBRANCH  14  17
ENDBRANCH   2   3
TORSDOF 9
ENDMDL
MODEL      219
REMARK 921   NORMALIZED FREE ENERGY PREDICTED BY IDOCK:   -3.87 KCAL/MOL
REMARK 922        TOTAL FREE ENERGY PREDICTED BY IDOCK:   -8.06 KCAL/MOL
REMARK 923 INTER-LIGAND FREE ENERGY PREDICTED BY IDOCK:   -7.42 KCAL/MOL
REMARK 924 INTRA-LIGAND FREE ENERGY PREDICTED BY IDOCK:   -0.64 KCAL/MOL
REMARK 927      BINDING AFFINITY PREDICTED BY RF-SCORE:    0.00 PKD
ROOT
HETATM    1  C   UNL     1      -9.732   3.394  65.200  1.00  0.00    -0.093 C  
HETATM    2  O   UNL     1      -9.499   4.783  65.420  1.00  0.00    -0.160 OA 
ENDROOT
BRANCH   2   3
HETATM    3  C   UNL     1      -9.240   5.134  66.715  1.00  0.00    -0.123 A  
HETATM    4  C   UNL     1      -8.412   6.180  67.105  1.00  0.00    -0.104 A  
HETATM    5  C   UNL     1      -8.254   6.480  68.465  1.00  0.00    -0.121 A  
HETATM    6  C   UNL     1      -8.877   5.708  69.459  1.00  0.00    -0.116 A  
HETATM    7  C   UNL     1      -9.741   4.681  69.048  1.00  0.00    -0.242 A  
HETATM    8  C   UNL     1      -8.657   6.036  70.932  1.00  0.00    -0.131 C  
HETATM    9  C   UNL     1      -7.509   7.039  71.117  1.00  0.00    -0.081 C  
HETATM   10  C   UNL     1      -9.908   6.747  71.495  1.00  0.00    -0.179 C  
HETATM   11  C   UNL     1      -8.368   4.778  71.770  1.00  0.00    -0.114 C  
HETATM   12  C   UNL     1      -9.929   4.411  67.689  1.00  0.00    -0.111 A  
HETATM   13  O   UNL     1      -6.756   7.043  72.089  1.00  0.00    -0.056 OA 
HETATM   14  N   UNL     1      -7.512   8.041  70.164  1.00  0.00    -0.072 N  
HETATM   15  O   UNL     1      -7.055   8.439  67.945  1.00  0.00    -0.079 OA 
HETATM   16  C   UNL     1      -7.542   7.733  68.822  1.00  0.00    -0.101 C  
BRANCH  14  17
HETATM   17  C   UNL     1      -7.233   9.396  70.582  1.00  0.00    -0.128 C  
BRANCH  17  18
HETATM   18  C   UNL     1      -6.034  10.090  69.937  1.00  0.00    -0.048 C  
BRANCH  18  19
HETATM   19  C   UNL     1      -6.419  11.443  69.359  1.00  0.00    -0.108 A  
HETATM   20  C   UNL     1      -5.883  12.644  69.856  1.00  0.00    -0.133 A  
HETATM   21  C   UNL     1      -6.296  13.877  69.354  1.00  0.00    -0.110 A  
HETATM   22  C   UNL     1      -7.227  13.918  68.321  1.00  0.00    -0.112 A  
HETATM   23  C   UNL     1      -7.336  11.505  68.300  1.00  0.00    -0.091 A  
HETATM   24  C   UNL     1      -7.750  12.739  67.791  1.00  0.00    -0.152 A  
BRANCH  22  25
HETATM   25  S   UNL     1      -7.778  15.494  67.725  1.00  0.00    -0.154 S  
HETATM   26  O   UNL     1      -7.790  16.445  68.816  1.00  0.00    -0.195 OA 
HETATM   27  O   UNL     1      -7.038  15.779  66.512  1.00  0.00    -0.099 OA 
BRANCH  25  28
HETATM   28  N   UNL     1      -9.331  15.191  67.224  1.00  0.00    -0.199 N  
HETATM   29  H   UNL     1      -9.986  14.812  67.908  1.00  0.00     0.000 HD 
BRANCH  28  30
HETATM   30  C   UNL     1      -9.797  15.416  65.944  1.00  0.00    -0.356 C  
HETATM   31  O   UNL     1     -10.088  16.518  65.507  1.00  0.00    -0.535 OA 
BRANCH  30  32
HETATM   32  N   UNL     1      -9.902  14.264  65.227  1.00  0.00    -0.566 N  
HETATM   33  H   UNL     1      -9.620  14.260  64.247  1.00  0.00     0.000 HD 
BRANCH  32  34
HETATM   34  C   UNL     1     -10.408  13.035  65.828  1.00  0.00    -0.286 C  
HETATM   35  C   UNL     1     -11.932  13.079  65.994  1.00  0.00    -0.498 C  
HETATM   36  C   UNL     1     -12.647  13.086  64.644  1.00  0.00    -0.425 C  
HETATM   37  C   UNL     1     -12.212  11.922  63.757  1.00  0.00    -0.549 C  
HETATM   38  C   UNL     1     -10.694  11.794  63.633  1.00  0.00    -0.503 C  
HETATM   39  C   UNL     1     -10.000  11.818  64.994  1.00  0.00    -0.287 C  
ENDBRANCH  32  34
ENDBRANCH  30  32
ENDBRANCH  28  30
ENDBRANCH  25  28
ENDBRANCH  22  25
ENDBRANCH  18  19
ENDBRANCH  17  18
ENDBRANCH  14  17
ENDBRANCH   2   3
TORSDOF 9
ENDMDL
MODEL      220
REMARK 921   NORMALIZED FREE ENERGY PREDICTED BY IDOCK:   -3.86 KCAL/MOL
REMARK 922        TOTAL FREE ENERGY PREDICTED BY IDOCK:   -8.04 KCAL/MOL
REMARK 923 INTER-LIGAND FREE ENERGY PREDICTED BY IDOCK:   -6.71 KCAL/MOL
REMARK 924 INTRA-LIGAND FREE ENERGY PREDICTED BY IDOCK:   -1.32 KCAL/MOL
REMARK 927      BINDING AFFINITY PREDICTED BY RF-SCORE:    0.00 PKD
ROOT
HETATM    1  C   UNL     1      -8.664   4.163  74.141  1.00  0.00    -0.096 C  
HETATM    2  O   UNL     1      -9.886   4.346  73.430  1.00  0.00    -0.126 OA 
ENDROOT
BRANCH   2   3
HETATM    3  C   UNL     1      -9.922   5.429  72.597  1.00  0.00    -0.165 A  
HETATM    4  C   UNL     1      -8.809   6.155  72.190  1.00  0.00    -0.138 A  
HETATM    5  C   UNL     1      -8.959   7.223  71.294  1.00  0.00    -0.139 A  
HETATM    6  C   UNL     1     -10.226   7.616  70.833  1.00  0.00    -0.202 A  
HETATM    7  C   UNL     1     -11.334   6.848  71.222  1.00  0.00    -0.319 A  
HETATM    8  C   UNL     1     -10.361   8.805  69.888  1.00  0.00    -0.212 C  
HETATM    9  C   UNL     1      -9.051   9.603  69.800  1.00  0.00    -0.215 C  
HETATM   10  C   UNL     1     -10.620   8.297  68.453  1.00  0.00    -0.148 C  
HETATM   11  C   UNL     1     -11.500   9.752  70.305  1.00  0.00    -0.317 C  
HETATM   12  C   UNL     1     -11.176   5.757  72.083  1.00  0.00    -0.327 A  
HETATM   13  O   UNL     1      -9.003  10.819  69.634  1.00  0.00     0.029 OA 
HETATM   14  N   UNL     1      -7.931   8.793  69.760  1.00  0.00    -0.092 N  
HETATM   15  O   UNL     1      -6.624   7.433  71.077  1.00  0.00    -0.043 OA 
HETATM   16  C   UNL     1      -7.730   7.825  70.720  1.00  0.00    -0.084 C  
BRANCH  14  17
HETATM   17  C   UNL     1      -6.859   9.136  68.853  1.00  0.00    -0.056 C  
BRANCH  17  18
HETATM   18  C   UNL     1      -5.700   9.953  69.423  1.00  0.00    -0.037 C  
BRANCH  18  19
HETATM   19  C   UNL     1      -5.878  11.437  69.146  1.00  0.00    -0.047 A  
HETATM   20  C   UNL     1      -5.808  12.399  70.168  1.00  0.00    -0.163 A  
HETATM   21  C   UNL     1      -6.034  13.749  69.904  1.00  0.00    -0.132 A  
HETATM   22  C   UNL     1      -6.300  14.154  68.600  1.00  0.00    -0.089 A  
HETATM   23  C   UNL     1      -6.120  11.870  67.834  1.00  0.00    -0.057 A  
HETATM   24  C   UNL     1      -6.344  13.222  67.563  1.00  0.00    -0.130 A  
BRANCH  22  25
HETATM   25  S   UNL     1      -6.633  15.867  68.285  1.00  0.00    -0.126 S  
HETATM   26  O   UNL     1      -6.257  16.651  69.441  1.00  0.00    -0.179 OA 
HETATM   27  O   UNL     1      -6.089  16.179  66.979  1.00  0.00    -0.307 OA 
BRANCH  25  28
HETATM   28  N   UNL     1      -8.281  15.905  68.088  1.00  0.00    -0.148 N  
HETATM   29  H   UNL     1      -8.862  15.844  68.925  1.00  0.00     0.000 HD 
BRANCH  28  30
HETATM   30  C   UNL     1      -8.920  16.015  66.869  1.00  0.00    -0.227 C  
HETATM   31  O   UNL     1      -8.430  16.548  65.887  1.00  0.00    -0.420 OA 
BRANCH  30  32
HETATM   32  N   UNL     1     -10.164  15.463  66.892  1.00  0.00    -0.268 N  
HETATM   33  H   UNL     1     -10.779  15.652  67.683  1.00  0.00     0.000 HD 
BRANCH  32  34
HETATM   34  C   UNL     1     -10.639  14.608  65.809  1.00  0.00    -0.320 C  
HETATM   35  C   UNL     1      -9.732  13.385  65.624  1.00  0.00    -0.103 C  
HETATM   36  C   UNL     1      -9.802  12.442  66.824  1.00  0.00    -0.228 C  
HETATM   37  C   UNL     1     -11.236  12.033  67.151  1.00  0.00    -0.374 C  
HETATM   38  C   UNL     1     -12.190  13.221  67.263  1.00  0.00    -0.258 C  
HETATM   39  C   UNL     1     -12.081  14.163  66.065  1.00  0.00    -0.449 C  
ENDBRANCH  32  34
ENDBRANCH  30  32
ENDBRANCH  28  30
ENDBRANCH  25  28
ENDBRANCH  22  25
ENDBRANCH  18  19
ENDBRANCH  17  18
ENDBRANCH  14  17
ENDBRANCH   2   3
TORSDOF 9
ENDMDL
MODEL      221
REMARK 921   NORMALIZED FREE ENERGY PREDICTED BY IDOCK:   -3.85 KCAL/MOL
REMARK 922        TOTAL FREE ENERGY PREDICTED BY IDOCK:   -8.02 KCAL/MOL
REMARK 923 INTER-LIGAND FREE ENERGY PREDICTED BY IDOCK:   -6.42 KCAL/MOL
REMARK 924 INTRA-LIGAND FREE ENERGY PREDICTED BY IDOCK:   -1.60 KCAL/MOL
REMARK 927      BINDING AFFINITY PREDICTED BY RF-SCORE:    0.00 PKD
ROOT
HETATM    1  C   UNL     1     -12.140  13.137  66.067  1.00  0.00    -0.436 C  
HETATM    2  O   UNL     1     -11.987  11.776  66.462  1.00  0.00    -0.545 OA 
ENDROOT
BRANCH   2   3
HETATM    3  C   UNL     1     -10.958  11.105  65.863  1.00  0.00    -0.103 A  
HETATM    4  C   UNL     1     -10.223  10.084  66.455  1.00  0.00    -0.290 A  
HETATM    5  C   UNL     1      -9.217   9.434  65.728  1.00  0.00    -0.276 A  
HETATM    6  C   UNL     1      -8.891   9.826  64.419  1.00  0.00    -0.258 A  
HETATM    7  C   UNL     1      -9.669  10.830  63.823  1.00  0.00    -0.372 A  
HETATM    8  C   UNL     1      -7.766   9.124  63.668  1.00  0.00    -0.118 C  
HETATM    9  C   UNL     1      -6.935   8.235  64.606  1.00  0.00    -0.075 C  
HETATM   10  C   UNL     1      -8.368   8.156  62.625  1.00  0.00    -0.102 C  
HETATM   11  C   UNL     1      -6.832  10.119  62.957  1.00  0.00    -0.135 C  
HETATM   12  C   UNL     1     -10.700  11.449  64.536  1.00  0.00    -0.391 A  
HETATM   13  O   UNL     1      -5.730   8.038  64.468  1.00  0.00    -0.044 OA 
HETATM   14  N   UNL     1      -7.711   7.546  65.520  1.00  0.00    -0.096 N  
HETATM   15  O   UNL     1      -8.947   7.836  67.438  1.00  0.00    -0.123 OA 
HETATM   16  C   UNL     1      -8.612   8.213  66.320  1.00  0.00    -0.144 C  
BRANCH  14  17
HETATM   17  C   UNL     1      -7.390   6.165  65.800  1.00  0.00    -0.080 C  
BRANCH  17  18
HETATM   18  C   UNL     1      -6.046   5.886  66.474  1.00  0.00    -0.026 C  
BRANCH  18  19
HETATM   19  C   UNL     1      -6.072   6.270  67.945  1.00  0.00    -0.024 A  
HETATM   20  C   UNL     1      -6.630   5.428  68.923  1.00  0.00    -0.051 A  
HETATM   21  C   UNL     1      -6.700   5.824  70.258  1.00  0.00    -0.048 A  
HETATM   22  C   UNL     1      -6.178   7.057  70.633  1.00  0.00    -0.032 A  
HETATM   23  C   UNL     1      -5.528   7.497  68.348  1.00  0.00    -0.026 A  
HETATM   24  C   UNL     1      -5.591   7.897  69.685  1.00  0.00    -0.023 A  
BRANCH  22  25
HETATM   25  S   UNL     1      -6.316   7.570  72.324  1.00  0.00    -0.043 S  
HETATM   26  O   UNL     1      -5.152   7.121  73.059  1.00  0.00    -0.036 OA 
HETATM   27  O   UNL     1      -6.687   8.970  72.323  1.00  0.00    -0.285 OA 
BRANCH  25  28
HETATM   28  N   UNL     1      -7.665   6.764  72.859  1.00  0.00    -0.094 N  
HETATM   29  H   UNL     1      -7.547   5.810  73.198  1.00  0.00     0.000 HD 
BRANCH  28  30
HETATM   30  C   UNL     1      -8.939   7.299  72.875  1.00  0.00    -0.134 C  
HETATM   31  O   UNL     1      -9.450   7.816  73.855  1.00  0.00    -0.264 OA 
BRANCH  30  32
HETATM   32  N   UNL     1      -9.561   7.176  71.671  1.00  0.00    -0.156 N  
HETATM   33  H   UNL     1      -9.170   7.651  70.857  1.00  0.00     0.000 HD 
BRANCH  32  34
HETATM   34  C   UNL     1     -10.774   6.381  71.517  1.00  0.00    -0.238 C  
HETATM   35  C   UNL     1     -11.317   6.459  70.085  1.00  0.00    -0.485 C  
HETATM   36  C   UNL     1     -10.374   5.792  69.085  1.00  0.00    -0.316 C  
HETATM   37  C   UNL     1     -10.041   4.356  69.480  1.00  0.00    -0.059 C  
HETATM   38  C   UNL     1      -9.572   4.223  70.928  1.00  0.00    -0.253 C  
HETATM   39  C   UNL     1     -10.517   4.922  71.906  1.00  0.00    -0.233 C  
ENDBRANCH  32  34
ENDBRANCH  30  32
ENDBRANCH  28  30
ENDBRANCH  25  28
ENDBRANCH  22  25
ENDBRANCH  18  19
ENDBRANCH  17  18
ENDBRANCH  14  17
ENDBRANCH   2   3
TORSDOF 9
ENDMDL
MODEL      222
REMARK 921   NORMALIZED FREE ENERGY PREDICTED BY IDOCK:   -3.84 KCAL/MOL
REMARK 922        TOTAL FREE ENERGY PREDICTED BY IDOCK:   -8.01 KCAL/MOL
REMARK 923 INTER-LIGAND FREE ENERGY PREDICTED BY IDOCK:   -6.53 KCAL/MOL
REMARK 924 INTRA-LIGAND FREE ENERGY PREDICTED BY IDOCK:   -1.48 KCAL/MOL
REMARK 927      BINDING AFFINITY PREDICTED BY RF-SCORE:    0.00 PKD
ROOT
HETATM    1  C   UNL     1     -12.115  16.431  72.983  1.00  0.00    -0.482 C  
HETATM    2  O   UNL     1     -12.640  15.178  72.553  1.00  0.00    -0.316 OA 
ENDROOT
BRANCH   2   3
HETATM    3  C   UNL     1     -12.208  14.751  71.328  1.00  0.00    -0.333 A  
HETATM    4  C   UNL     1     -11.037  15.171  70.708  1.00  0.00    -0.293 A  
HETATM    5  C   UNL     1     -10.668  14.631  69.468  1.00  0.00    -0.202 A  
HETATM    6  C   UNL     1     -11.489  13.706  68.802  1.00  0.00    -0.346 A  
HETATM    7  C   UNL     1     -12.647  13.264  69.459  1.00  0.00     0.218 A  
HETATM    8  C   UNL     1     -11.079  13.165  67.437  1.00  0.00    -0.301 C  
HETATM    9  C   UNL     1      -9.909  13.965  66.845  1.00  0.00    -0.268 C  
HETATM   10  C   UNL     1     -10.543  11.724  67.593  1.00  0.00    -0.237 C  
HETATM   11  C   UNL     1     -12.249  13.166  66.437  1.00  0.00    -0.396 C  
HETATM   12  C   UNL     1     -12.991  13.773  70.716  1.00  0.00    -0.238 A  
HETATM   13  O   UNL     1      -9.759  14.163  65.641  1.00  0.00    -0.271 OA 
HETATM   14  N   UNL     1      -8.954  14.298  67.788  1.00  0.00    -0.180 N  
HETATM   15  O   UNL     1      -8.573  15.700  69.571  1.00  0.00    -0.258 OA 
HETATM   16  C   UNL     1      -9.312  14.942  68.952  1.00  0.00    -0.197 C  
BRANCH  14  17
HETATM   17  C   UNL     1      -7.559  14.188  67.429  1.00  0.00    -0.158 C  
BRANCH  17  18
HETATM   18  C   UNL     1      -6.758  13.063  68.085  1.00  0.00    -0.103 C  
BRANCH  18  19
HETATM   19  C   UNL     1      -6.941  11.748  67.345  1.00  0.00    -0.121 A  
HETATM   20  C   UNL     1      -7.288  10.561  68.014  1.00  0.00    -0.089 A  
HETATM   21  C   UNL     1      -7.392   9.352  67.327  1.00  0.00    -0.087 A  
HETATM   22  C   UNL     1      -7.183   9.327  65.952  1.00  0.00    -0.091 A  
HETATM   23  C   UNL     1      -6.762  11.706  65.955  1.00  0.00     0.547 A  
HETATM   24  C   UNL     1      -6.868  10.498  65.261  1.00  0.00    -0.050 A  
BRANCH  22  25
HETATM   25  S   UNL     1      -7.271   7.776  65.098  1.00  0.00    -0.068 S  
HETATM   26  O   UNL     1      -7.751   7.995  63.750  1.00  0.00    -0.121 OA 
HETATM   27  O   UNL     1      -6.018   7.086  65.326  1.00  0.00    -0.035 OA 
BRANCH  25  28
HETATM   28  N   UNL     1      -8.400   6.925  65.967  1.00  0.00    -0.128 N  
HETATM   29  H   UNL     1      -9.380   7.186  65.858  1.00  0.00     0.000 HD 
BRANCH  28  30
HETATM   30  C   UNL     1      -8.102   5.887  66.828  1.00  0.00    -0.102 C  
HETATM   31  O   UNL     1      -7.357   4.961  66.551  1.00  0.00    -0.079 OA 
BRANCH  30  32
HETATM   32  N   UNL     1      -8.743   6.013  68.022  1.00  0.00    -0.113 N  
HETATM   33  H   UNL     1      -8.328   6.592  68.752  1.00  0.00     0.000 HD 
BRANCH  32  34
HETATM   34  C   UNL     1     -10.010   5.338  68.282  1.00  0.00    -0.156 C  
HETATM   35  C   UNL     1      -9.894   4.362  69.460  1.00  0.00    -0.258 C  
HETATM   36  C   UNL     1      -9.650   5.094  70.778  1.00  0.00    -0.241 C  
HETATM   37  C   UNL     1     -10.702   6.168  71.043  1.00  0.00    -0.317 C  
HETATM   38  C   UNL     1     -10.907   7.114  69.860  1.00  0.00    -0.276 C  
HETATM   39  C   UNL     1     -11.121   6.358  68.548  1.00  0.00    -0.385 C  
ENDBRANCH  32  34
ENDBRANCH  30  32
ENDBRANCH  28  30
ENDBRANCH  25  28
ENDBRANCH  22  25
ENDBRANCH  18  19
ENDBRANCH  17  18
ENDBRANCH  14  17
ENDBRANCH   2   3
TORSDOF 9
ENDMDL
MODEL      223
REMARK 921   NORMALIZED FREE ENERGY PREDICTED BY IDOCK:   -3.79 KCAL/MOL
REMARK 922        TOTAL FREE ENERGY PREDICTED BY IDOCK:   -7.93 KCAL/MOL
REMARK 923 INTER-LIGAND FREE ENERGY PREDICTED BY IDOCK:   -7.33 KCAL/MOL
REMARK 924 INTRA-LIGAND FREE ENERGY PREDICTED BY IDOCK:   -0.61 KCAL/MOL
REMARK 927      BINDING AFFINITY PREDICTED BY RF-SCORE:    0.00 PKD
ROOT
HETATM    1  C   UNL     1      -5.179  20.796  63.707  1.00  0.00    -0.198 C  
HETATM    2  O   UNL     1      -6.450  20.925  64.338  1.00  0.00    -0.315 OA 
ENDROOT
BRANCH   2   3
HETATM    3  C   UNL     1      -6.769  19.930  65.219  1.00  0.00    -0.296 A  
HETATM    4  C   UNL     1      -8.062  19.585  65.595  1.00  0.00     0.108 A  
HETATM    5  C   UNL     1      -8.274  18.514  66.475  1.00  0.00    -0.299 A  
HETATM    6  C   UNL     1      -7.198  17.806  67.035  1.00  0.00    -0.209 A  
HETATM    7  C   UNL     1      -5.902  18.141  66.615  1.00  0.00    -0.183 A  
HETATM    8  C   UNL     1      -7.459  16.670  68.017  1.00  0.00    -0.170 C  
HETATM    9  C   UNL     1      -8.924  16.655  68.480  1.00  0.00    -0.235 C  
HETATM   10  C   UNL     1      -7.248  15.315  67.307  1.00  0.00    -0.213 C  
HETATM   11  C   UNL     1      -6.542  16.746  69.250  1.00  0.00    -0.223 C  
HETATM   12  C   UNL     1      -5.696  19.183  65.704  1.00  0.00    -0.198 A  
HETATM   13  O   UNL     1      -9.281  16.301  69.602  1.00  0.00    -0.095 OA 
HETATM   14  N   UNL     1      -9.814  16.921  67.456  1.00  0.00    -0.254 N  
HETATM   15  O   UNL     1     -10.601  18.627  66.129  1.00  0.00    -0.436 OA 
HETATM   16  C   UNL     1      -9.669  18.045  66.674  1.00  0.00    -0.332 C  
BRANCH  14  17
HETATM   17  C   UNL     1     -11.031  16.145  67.377  1.00  0.00    -0.210 C  
BRANCH  17  18
HETATM   18  C   UNL     1     -11.240  15.068  68.441  1.00  0.00    -0.303 C  
BRANCH  18  19
HETATM   19  C   UNL     1     -10.956  13.680  67.889  1.00  0.00    -0.277 A  
HETATM   20  C   UNL     1     -10.976  12.536  68.706  1.00  0.00    -0.294 A  
HETATM   21  C   UNL     1     -10.653  11.281  68.194  1.00  0.00    -0.225 A  
HETATM   22  C   UNL     1     -10.339  11.153  66.845  1.00  0.00    -0.231 A  
HETATM   23  C   UNL     1     -10.664  13.526  66.526  1.00  0.00    -0.287 A  
HETATM   24  C   UNL     1     -10.343  12.269  66.007  1.00  0.00    -0.273 A  
BRANCH  22  25
HETATM   25  S   UNL     1      -9.884   9.559  66.216  1.00  0.00    -0.273 S  
HETATM   26  O   UNL     1     -10.770   8.554  66.765  1.00  0.00    -0.238 OA 
HETATM   27  O   UNL     1      -9.722   9.690  64.783  1.00  0.00    -0.237 OA 
BRANCH  25  28
HETATM   28  N   UNL     1      -8.348   9.340  66.808  1.00  0.00    -0.122 N  
HETATM   29  H   UNL     1      -7.593   9.879  66.383  1.00  0.00     0.000 HD 
BRANCH  28  30
HETATM   30  C   UNL     1      -8.023   8.478  67.836  1.00  0.00    -0.108 C  
HETATM   31  O   UNL     1      -8.081   8.772  69.019  1.00  0.00    -0.112 OA 
BRANCH  30  32
HETATM   32  N   UNL     1      -7.623   7.261  67.376  1.00  0.00    -0.103 N  
HETATM   33  H   UNL     1      -7.225   6.587  68.031  1.00  0.00     0.000 HD 
BRANCH  32  34
HETATM   34  C   UNL     1      -7.750   6.898  65.969  1.00  0.00    -0.096 C  
HETATM   35  C   UNL     1      -6.444   6.307  65.423  1.00  0.00    -0.039 C  
HETATM   36  C   UNL     1      -6.119   4.961  66.068  1.00  0.00    -0.027 C  
HETATM   37  C   UNL     1      -7.276   3.972  65.945  1.00  0.00    -0.068 C  
HETATM   38  C   UNL     1      -8.614   4.551  66.404  1.00  0.00    -0.112 C  
HETATM   39  C   UNL     1      -8.902   5.910  65.767  1.00  0.00    -0.145 C  
ENDBRANCH  32  34
ENDBRANCH  30  32
ENDBRANCH  28  30
ENDBRANCH  25  28
ENDBRANCH  22  25
ENDBRANCH  18  19
ENDBRANCH  17  18
ENDBRANCH  14  17
ENDBRANCH   2   3
TORSDOF 9
ENDMDL
MODEL      224
REMARK 921   NORMALIZED FREE ENERGY PREDICTED BY IDOCK:   -3.78 KCAL/MOL
REMARK 922        TOTAL FREE ENERGY PREDICTED BY IDOCK:   -7.92 KCAL/MOL
REMARK 923 INTER-LIGAND FREE ENERGY PREDICTED BY IDOCK:   -7.12 KCAL/MOL
REMARK 924 INTRA-LIGAND FREE ENERGY PREDICTED BY IDOCK:   -0.80 KCAL/MOL
REMARK 927      BINDING AFFINITY PREDICTED BY RF-SCORE:    0.00 PKD
ROOT
HETATM    1  C   UNL     1      -5.677  20.387  69.690  1.00  0.00    -0.350 C  
HETATM    2  O   UNL     1      -5.364  19.556  68.575  1.00  0.00    -0.191 OA 
ENDROOT
BRANCH   2   3
HETATM    3  C   UNL     1      -6.398  18.799  68.101  1.00  0.00    -0.211 A  
HETATM    4  C   UNL     1      -6.312  17.450  67.775  1.00  0.00    -0.160 A  
HETATM    5  C   UNL     1      -7.451  16.760  67.340  1.00  0.00    -0.187 A  
HETATM    6  C   UNL     1      -8.682  17.416  67.172  1.00  0.00    -0.239 A  
HETATM    7  C   UNL     1      -8.762  18.766  67.544  1.00  0.00    -0.292 A  
HETATM    8  C   UNL     1      -9.895  16.646  66.662  1.00  0.00    -0.285 C  
HETATM    9  C   UNL     1      -9.495  15.266  66.119  1.00  0.00    -0.326 C  
HETATM   10  C   UNL     1     -10.853  16.354  67.839  1.00  0.00    -0.328 C  
HETATM   11  C   UNL     1     -10.655  17.418  65.569  1.00  0.00    -0.115 C  
HETATM   12  C   UNL     1      -7.633  19.442  68.018  1.00  0.00    -0.324 A  
HETATM   13  O   UNL     1     -10.066  14.710  65.183  1.00  0.00    -0.377 OA 
HETATM   14  N   UNL     1      -8.538  14.640  66.895  1.00  0.00    -0.224 N  
HETATM   15  O   UNL     1      -6.301  14.707  67.426  1.00  0.00    -0.323 OA 
HETATM   16  C   UNL     1      -7.362  15.283  67.215  1.00  0.00    -0.195 C  
BRANCH  14  17
HETATM   17  C   UNL     1      -8.673  13.225  67.155  1.00  0.00    -0.212 C  
BRANCH  17  18
HETATM   18  C   UNL     1      -9.693  12.807  68.215  1.00  0.00    -0.216 C  
BRANCH  18  19
HETATM   19  C   UNL     1      -9.821  11.294  68.296  1.00  0.00    -0.201 A  
HETATM   20  C   UNL     1      -8.696  10.457  68.394  1.00  0.00    -0.129 A  
HETATM   21  C   UNL     1      -8.830   9.069  68.406  1.00  0.00    -0.134 A  
HETATM   22  C   UNL     1     -10.101   8.506  68.356  1.00  0.00    -0.194 A  
HETATM   23  C   UNL     1     -11.094  10.707  68.274  1.00  0.00    -0.334 A  
HETATM   24  C   UNL     1     -11.234   9.317  68.290  1.00  0.00     0.202 A  
BRANCH  22  25
HETATM   25  S   UNL     1     -10.256   6.740  68.324  1.00  0.00    -0.187 S  
HETATM   26  O   UNL     1     -11.381   6.341  69.141  1.00  0.00    -0.395 OA 
HETATM   27  O   UNL     1     -10.172   6.325  66.938  1.00  0.00    -0.171 OA 
BRANCH  25  28
HETATM   28  N   UNL     1      -8.841   6.220  69.019  1.00  0.00    -0.124 N  
HETATM   29  H   UNL     1      -8.410   6.817  69.725  1.00  0.00     0.000 HD 
BRANCH  28  30
HETATM   30  C   UNL     1      -8.208   5.033  68.706  1.00  0.00    -0.084 C  
HETATM   31  O   UNL     1      -7.905   4.698  67.572  1.00  0.00    -0.089 OA 
BRANCH  30  32
HETATM   32  N   UNL     1      -7.965   4.276  69.811  1.00  0.00    -0.056 N  
HETATM   33  H   UNL     1      -7.048   4.321  70.255  1.00  0.00     0.000 HD 
BRANCH  32  34
HETATM   34  C   UNL     1      -8.988   3.402  70.375  1.00  0.00    -0.099 C  
HETATM   35  C   UNL     1      -8.371   2.126  70.963  1.00  0.00    -0.073 C  
HETATM   36  C   UNL     1      -7.505   2.427  72.184  1.00  0.00    -0.044 C  
HETATM   37  C   UNL     1      -8.263   3.223  73.244  1.00  0.00    -0.074 C  
HETATM   38  C   UNL     1      -8.961   4.460  72.682  1.00  0.00    -0.127 C  
HETATM   39  C   UNL     1      -9.798   4.138  71.445  1.00  0.00    -0.254 C  
ENDBRANCH  32  34
ENDBRANCH  30  32
ENDBRANCH  28  30
ENDBRANCH  25  28
ENDBRANCH  22  25
ENDBRANCH  18  19
ENDBRANCH  17  18
ENDBRANCH  14  17
ENDBRANCH   2   3
TORSDOF 9
ENDMDL
MODEL      225
REMARK 921   NORMALIZED FREE ENERGY PREDICTED BY IDOCK:   -3.72 KCAL/MOL
REMARK 922        TOTAL FREE ENERGY PREDICTED BY IDOCK:   -7.82 KCAL/MOL
REMARK 923 INTER-LIGAND FREE ENERGY PREDICTED BY IDOCK:   -7.04 KCAL/MOL
REMARK 924 INTRA-LIGAND FREE ENERGY PREDICTED BY IDOCK:   -0.79 KCAL/MOL
REMARK 927      BINDING AFFINITY PREDICTED BY RF-SCORE:    0.00 PKD
ROOT
HETATM    1  C   UNL     1      -6.254   5.462  73.823  1.00  0.00    -0.061 C  
HETATM    2  O   UNL     1      -7.555   5.425  74.402  1.00  0.00    -0.091 OA 
ENDROOT
BRANCH   2   3
HETATM    3  C   UNL     1      -8.562   5.897  73.608  1.00  0.00    -0.122 A  
HETATM    4  C   UNL     1      -8.661   7.203  73.141  1.00  0.00    -0.147 A  
HETATM    5  C   UNL     1      -9.716   7.566  72.293  1.00  0.00    -0.203 A  
HETATM    6  C   UNL     1     -10.719   6.648  71.941  1.00  0.00    -0.251 A  
HETATM    7  C   UNL     1     -10.583   5.325  72.388  1.00  0.00    -0.280 A  
HETATM    8  C   UNL     1     -11.874   7.083  71.047  1.00  0.00    -0.395 C  
HETATM    9  C   UNL     1     -11.914   8.610  70.885  1.00  0.00    -0.191 C  
HETATM   10  C   UNL     1     -11.657   6.533  69.619  1.00  0.00    -0.348 C  
HETATM   11  C   UNL     1     -13.234   6.596  71.577  1.00  0.00    -0.080 C  
HETATM   12  C   UNL     1      -9.506   4.955  73.200  1.00  0.00    -0.144 A  
HETATM   13  O   UNL     1     -12.952   9.255  70.754  1.00  0.00    -0.081 OA 
HETATM   14  N   UNL     1     -10.658   9.167  70.736  1.00  0.00    -0.237 N  
HETATM   15  O   UNL     1      -8.745   9.676  71.908  1.00  0.00     0.376 OA 
HETATM   16  C   UNL     1      -9.659   8.902  71.647  1.00  0.00    -0.293 C  
BRANCH  14  17
HETATM   17  C   UNL     1     -10.477  10.220  69.762  1.00  0.00    -0.259 C  
BRANCH  17  18
HETATM   18  C   UNL     1     -11.682  11.117  69.476  1.00  0.00    -0.405 C  
BRANCH  18  19
HETATM   19  C   UNL     1     -11.250  12.470  68.935  1.00  0.00    -0.330 A  
HETATM   20  C   UNL     1     -10.624  12.606  67.684  1.00  0.00    -0.232 A  
HETATM   21  C   UNL     1     -10.180  13.848  67.233  1.00  0.00    -0.249 A  
HETATM   22  C   UNL     1     -10.391  14.976  68.018  1.00  0.00    -0.236 A  
HETATM   23  C   UNL     1     -11.478  13.623  69.700  1.00  0.00    -0.286 A  
HETATM   24  C   UNL     1     -11.039  14.871  69.250  1.00  0.00    -0.284 A  
BRANCH  22  25
HETATM   25  S   UNL     1      -9.780  16.542  67.454  1.00  0.00    -0.250 S  
HETATM   26  O   UNL     1      -8.956  16.343  66.281  1.00  0.00    -0.281 OA 
HETATM   27  O   UNL     1     -10.904  17.455  67.414  1.00  0.00    -0.290 OA 
BRANCH  25  28
HETATM   28  N   UNL     1      -8.843  17.064  68.721  1.00  0.00    -0.263 N  
HETATM   29  H   UNL     1      -9.264  17.706  69.392  1.00  0.00     0.000 HD 
BRANCH  28  30
HETATM   30  C   UNL     1      -7.530  16.689  68.927  1.00  0.00    -0.232 C  
HETATM   31  O   UNL     1      -6.609  17.476  69.076  1.00  0.00    -0.221 OA 
BRANCH  30  32
HETATM   32  N   UNL     1      -7.380  15.336  68.939  1.00  0.00    -0.134 N  
HETATM   33  H   UNL     1      -8.180  14.748  69.175  1.00  0.00     0.000 HD 
BRANCH  32  34
HETATM   34  C   UNL     1      -6.102  14.707  68.622  1.00  0.00    -0.087 C  
HETATM   35  C   UNL     1      -5.385  14.226  69.889  1.00  0.00    -0.095 C  
HETATM   36  C   UNL     1      -6.139  13.083  70.566  1.00  0.00     0.000 C  
HETATM   37  C   UNL     1      -6.415  11.929  69.606  1.00  0.00    -0.101 C  
HETATM   38  C   UNL     1      -7.056  12.378  68.294  1.00  0.00    -0.098 C  
HETATM   39  C   UNL     1      -6.301  13.540  67.651  1.00  0.00    -0.156 C  
ENDBRANCH  32  34
ENDBRANCH  30  32
ENDBRANCH  28  30
ENDBRANCH  25  28
ENDBRANCH  22  25
ENDBRANCH  18  19
ENDBRANCH  17  18
ENDBRANCH  14  17
ENDBRANCH   2   3
TORSDOF 9
ENDMDL
MODEL      226
REMARK 921   NORMALIZED FREE ENERGY PREDICTED BY IDOCK:   -3.69 KCAL/MOL
REMARK 922        TOTAL FREE ENERGY PREDICTED BY IDOCK:   -7.77 KCAL/MOL
REMARK 923 INTER-LIGAND FREE ENERGY PREDICTED BY IDOCK:   -6.42 KCAL/MOL
REMARK 924 INTRA-LIGAND FREE ENERGY PREDICTED BY IDOCK:   -1.36 KCAL/MOL
REMARK 927      BINDING AFFINITY PREDICTED BY RF-SCORE:    0.00 PKD
ROOT
HETATM    1  C   UNL     1     -11.941  13.204  66.187  1.00  0.00    -0.422 C  
HETATM    2  O   UNL     1     -11.832  11.855  66.633  1.00  0.00    -0.591 OA 
ENDROOT
BRANCH   2   3
HETATM    3  C   UNL     1     -10.754  11.165  66.153  1.00  0.00    -0.225 A  
HETATM    4  C   UNL     1     -10.134  10.106  66.804  1.00  0.00    -0.277 A  
HETATM    5  C   UNL     1      -9.061   9.440  66.196  1.00  0.00    -0.214 A  
HETATM    6  C   UNL     1      -8.556   9.855  64.952  1.00  0.00    -0.183 A  
HETATM    7  C   UNL     1      -9.219  10.899  64.290  1.00  0.00    -0.221 A  
HETATM    8  C   UNL     1      -7.365   9.134  64.332  1.00  0.00    -0.100 C  
HETATM    9  C   UNL     1      -6.690   8.194  65.343  1.00  0.00    -0.052 C  
HETATM   10  C   UNL     1      -7.855   8.214  63.192  1.00  0.00    -0.149 C  
HETATM   11  C   UNL     1      -6.316  10.115  63.778  1.00  0.00    -0.131 C  
HETATM   12  C   UNL     1     -10.316  11.535  64.882  1.00  0.00    -0.340 A  
HETATM   13  O   UNL     1      -5.484   7.961  65.357  1.00  0.00    -0.032 OA 
HETATM   14  N   UNL     1      -7.598   7.509  66.128  1.00  0.00    -0.086 N  
HETATM   15  O   UNL     1      -9.065   7.792  67.878  1.00  0.00    -0.132 OA 
HETATM   16  C   UNL     1      -8.576   8.186  66.824  1.00  0.00    -0.132 C  
BRANCH  14  17
HETATM   17  C   UNL     1      -7.358   6.111  66.407  1.00  0.00    -0.085 C  
BRANCH  17  18
HETATM   18  C   UNL     1      -6.158   5.774  67.291  1.00  0.00    -0.025 C  
BRANCH  18  19
HETATM   19  C   UNL     1      -6.585   5.486  68.721  1.00  0.00    -0.048 A  
HETATM   20  C   UNL     1      -7.314   4.333  69.062  1.00  0.00    -0.055 A  
HETATM   21  C   UNL     1      -7.749   4.117  70.368  1.00  0.00    -0.045 A  
HETATM   22  C   UNL     1      -7.427   5.040  71.357  1.00  0.00    -0.086 A  
HETATM   23  C   UNL     1      -6.247   6.390  69.738  1.00  0.00    -0.034 A  
HETATM   24  C   UNL     1      -6.678   6.176  71.050  1.00  0.00    -0.061 A  
BRANCH  22  25
HETATM   25  S   UNL     1      -8.027   4.778  73.005  1.00  0.00    -0.101 S  
HETATM   26  O   UNL     1      -7.216   3.773  73.658  1.00  0.00    -0.056 OA 
HETATM   27  O   UNL     1      -8.208   6.081  73.611  1.00  0.00    -0.112 OA 
BRANCH  25  28
HETATM   28  N   UNL     1      -9.562   4.194  72.764  1.00  0.00    -0.125 N  
HETATM   29  H   UNL     1      -9.672   3.381  72.158  1.00  0.00     0.000 HD 
BRANCH  28  30
HETATM   30  C   UNL     1     -10.701   4.734  73.328  1.00  0.00    -0.248 C  
HETATM   31  O   UNL     1     -10.971   4.669  74.517  1.00  0.00    -0.295 OA 
BRANCH  30  32
HETATM   32  N   UNL     1     -11.491   5.344  72.403  1.00  0.00    -0.200 N  
HETATM   33  H   UNL     1     -12.480   5.098  72.353  1.00  0.00     0.000 HD 
BRANCH  32  34
HETATM   34  C   UNL     1     -10.957   6.341  71.482  1.00  0.00    -0.271 C  
HETATM   35  C   UNL     1     -11.938   6.628  70.338  1.00  0.00    -0.342 C  
HETATM   36  C   UNL     1     -13.208   7.311  70.840  1.00  0.00    -0.047 C  
HETATM   37  C   UNL     1     -12.903   8.571  71.646  1.00  0.00    -0.366 C  
HETATM   38  C   UNL     1     -11.867   8.345  72.746  1.00  0.00    -0.234 C  
HETATM   39  C   UNL     1     -10.617   7.636  72.225  1.00  0.00    -0.298 C  
ENDBRANCH  32  34
ENDBRANCH  30  32
ENDBRANCH  28  30
ENDBRANCH  25  28
ENDBRANCH  22  25
ENDBRANCH  18  19
ENDBRANCH  17  18
ENDBRANCH  14  17
ENDBRANCH   2   3
TORSDOF 9
ENDMDL
MODEL      227
REMARK 921   NORMALIZED FREE ENERGY PREDICTED BY IDOCK:   -3.69 KCAL/MOL
REMARK 922        TOTAL FREE ENERGY PREDICTED BY IDOCK:   -7.77 KCAL/MOL
REMARK 923 INTER-LIGAND FREE ENERGY PREDICTED BY IDOCK:   -5.97 KCAL/MOL
REMARK 924 INTRA-LIGAND FREE ENERGY PREDICTED BY IDOCK:   -1.80 KCAL/MOL
REMARK 927      BINDING AFFINITY PREDICTED BY RF-SCORE:    0.00 PKD
ROOT
HETATM    1  C   UNL     1     -10.556   2.712  63.406  1.00  0.00    -0.217 C  
HETATM    2  O   UNL     1      -9.536   2.479  64.374  1.00  0.00    -0.138 OA 
ENDROOT
BRANCH   2   3
HETATM    3  C   UNL     1      -9.553   3.316  65.454  1.00  0.00    -0.069 A  
HETATM    4  C   UNL     1      -8.708   3.214  66.553  1.00  0.00    -0.133 A  
HETATM    5  C   UNL     1      -8.785   4.158  67.586  1.00  0.00    -0.119 A  
HETATM    6  C   UNL     1      -9.741   5.187  67.565  1.00  0.00    -0.177 A  
HETATM    7  C   UNL     1     -10.559   5.299  66.431  1.00  0.00    -0.338 A  
HETATM    8  C   UNL     1      -9.824   6.177  68.722  1.00  0.00    -0.160 C  
HETATM    9  C   UNL     1      -8.991   5.706  69.923  1.00  0.00    -0.129 C  
HETATM   10  C   UNL     1      -9.194   7.521  68.296  1.00  0.00    -0.138 C  
HETATM   11  C   UNL     1     -11.274   6.417  69.177  1.00  0.00    -0.421 C  
HETATM   12  C   UNL     1     -10.452   4.380  65.382  1.00  0.00    -0.219 A  
HETATM   13  O   UNL     1      -9.295   5.928  71.093  1.00  0.00    -0.152 OA 
HETATM   14  N   UNL     1      -7.778   5.154  69.553  1.00  0.00    -0.068 N  
HETATM   15  O   UNL     1      -6.852   3.276  68.602  1.00  0.00    -0.044 OA 
HETATM   16  C   UNL     1      -7.724   4.138  68.625  1.00  0.00    -0.062 C  
BRANCH  14  17
HETATM   17  C   UNL     1      -6.603   5.481  70.327  1.00  0.00    -0.042 C  
BRANCH  17  18
HETATM   18  C   UNL     1      -5.331   5.822  69.551  1.00  0.00    -0.004 C  
BRANCH  18  19
HETATM   19  C   UNL     1      -5.541   7.024  68.644  1.00  0.00    -0.018 A  
HETATM   20  C   UNL     1      -5.707   8.323  69.157  1.00  0.00    -0.034 A  
HETATM   21  C   UNL     1      -5.959   9.403  68.312  1.00  0.00    -0.044 A  
HETATM   22  C   UNL     1      -6.012   9.198  66.938  1.00  0.00    -0.053 A  
HETATM   23  C   UNL     1      -5.571   6.843  67.254  1.00  0.00    -0.017 A  
HETATM   24  C   UNL     1      -5.819   7.923  66.403  1.00  0.00    -0.040 A  
BRANCH  22  25
HETATM   25  S   UNL     1      -6.381  10.570  65.878  1.00  0.00    -0.129 S  
HETATM   26  O   UNL     1      -5.222  11.433  65.787  1.00  0.00    -0.283 OA 
HETATM   27  O   UNL     1      -6.993  10.037  64.678  1.00  0.00    -0.129 OA 
BRANCH  25  28
HETATM   28  N   UNL     1      -7.605  11.353  66.679  1.00  0.00    -0.231 N  
HETATM   29  H   UNL     1      -7.362  12.173  67.236  1.00  0.00     0.000 HD 
BRANCH  28  30
HETATM   30  C   UNL     1      -8.932  10.971  66.643  1.00  0.00    -0.168 C  
HETATM   31  O   UNL     1      -9.318   9.880  66.256  1.00  0.00    -0.160 OA 
BRANCH  30  32
HETATM   32  N   UNL     1      -9.761  11.957  67.084  1.00  0.00    -0.184 N  
HETATM   33  H   UNL     1      -9.396  12.903  67.193  1.00  0.00     0.000 HD 
BRANCH  32  34
HETATM   34  C   UNL     1     -11.159  11.691  67.403  1.00  0.00    -0.281 C  
HETATM   35  C   UNL     1     -11.459  11.972  68.881  1.00  0.00    -0.356 C  
HETATM   36  C   UNL     1     -11.338  13.459  69.210  1.00  0.00    -0.314 C  
HETATM   37  C   UNL     1     -12.196  14.323  68.290  1.00  0.00    -0.181 C  
HETATM   38  C   UNL     1     -11.986  14.016  66.808  1.00  0.00    -0.473 C  
HETATM   39  C   UNL     1     -12.084  12.521  66.509  1.00  0.00    -0.245 C  
ENDBRANCH  32  34
ENDBRANCH  30  32
ENDBRANCH  28  30
ENDBRANCH  25  28
ENDBRANCH  22  25
ENDBRANCH  18  19
ENDBRANCH  17  18
ENDBRANCH  14  17
ENDBRANCH   2   3
TORSDOF 9
ENDMDL
MODEL      228
REMARK 921   NORMALIZED FREE ENERGY PREDICTED BY IDOCK:   -3.68 KCAL/MOL
REMARK 922        TOTAL FREE ENERGY PREDICTED BY IDOCK:   -7.76 KCAL/MOL
REMARK 923 INTER-LIGAND FREE ENERGY PREDICTED BY IDOCK:   -6.65 KCAL/MOL
REMARK 924 INTRA-LIGAND FREE ENERGY PREDICTED BY IDOCK:   -1.11 KCAL/MOL
REMARK 927      BINDING AFFINITY PREDICTED BY RF-SCORE:    0.00 PKD
ROOT
HETATM    1  C   UNL     1      -8.498   4.631  74.529  1.00  0.00    -0.103 C  
HETATM    2  O   UNL     1      -9.711   4.705  73.785  1.00  0.00    -0.132 OA 
ENDROOT
BRANCH   2   3
HETATM    3  C   UNL     1      -9.741   5.661  72.808  1.00  0.00    -0.156 A  
HETATM    4  C   UNL     1      -8.655   6.439  72.424  1.00  0.00    -0.120 A  
HETATM    5  C   UNL     1      -8.789   7.360  71.376  1.00  0.00    -0.129 A  
HETATM    6  C   UNL     1     -10.021   7.558  70.731  1.00  0.00    -0.182 A  
HETATM    7  C   UNL     1     -11.096   6.737  71.104  1.00  0.00    -0.313 A  
HETATM    8  C   UNL     1     -10.145   8.594  69.620  1.00  0.00    -0.201 C  
HETATM    9  C   UNL     1      -8.908   9.503  69.561  1.00  0.00    -0.179 C  
HETATM   10  C   UNL     1     -10.183   7.879  68.251  1.00  0.00    -0.240 C  
HETATM   11  C   UNL     1     -11.404   9.464  69.774  1.00  0.00    -0.071 C  
HETATM   12  C   UNL     1     -10.948   5.789  72.122  1.00  0.00    -0.311 A  
HETATM   13  O   UNL     1      -8.947  10.687  69.231  1.00  0.00    -0.159 OA 
HETATM   14  N   UNL     1      -7.725   8.815  69.756  1.00  0.00    -0.081 N  
HETATM   15  O   UNL     1      -6.472   7.780  71.384  1.00  0.00    -0.038 OA 
HETATM   16  C   UNL     1      -7.557   8.006  70.858  1.00  0.00    -0.078 C  
BRANCH  14  17
HETATM   17  C   UNL     1      -6.586   9.146  68.930  1.00  0.00    -0.048 C  
BRANCH  17  18
HETATM   18  C   UNL     1      -5.583  10.150  69.498  1.00  0.00    -0.037 C  
BRANCH  18  19
HETATM   19  C   UNL     1      -5.974  11.579  69.157  1.00  0.00    -0.056 A  
HETATM   20  C   UNL     1      -6.103  12.570  70.145  1.00  0.00    -0.099 A  
HETATM   21  C   UNL     1      -6.522  13.860  69.820  1.00  0.00    -0.095 A  
HETATM   22  C   UNL     1      -6.782  14.179  68.492  1.00  0.00    -0.101 A  
HETATM   23  C   UNL     1      -6.215  11.928  67.821  1.00  0.00    -0.070 A  
HETATM   24  C   UNL     1      -6.632  13.220  67.490  1.00  0.00    -0.153 A  
BRANCH  22  25
HETATM   25  S   UNL     1      -7.360  15.808  68.099  1.00  0.00    -0.130 S  
HETATM   26  O   UNL     1      -6.307  16.767  68.356  1.00  0.00    -0.133 OA 
HETATM   27  O   UNL     1      -7.987  15.740  66.794  1.00  0.00    -0.232 OA 
BRANCH  25  28
HETATM   28  N   UNL     1      -8.608  16.039  69.168  1.00  0.00    -0.247 N  
HETATM   29  H   UNL     1      -8.515  15.641  70.102  1.00  0.00     0.000 HD 
BRANCH  28  30
HETATM   30  C   UNL     1      -9.765  16.736  68.879  1.00  0.00    -0.257 C  
HETATM   31  O   UNL     1     -10.855  16.483  69.367  1.00  0.00    -0.302 OA 
BRANCH  30  32
HETATM   32  N   UNL     1      -9.550  17.735  67.980  1.00  0.00    -0.281 N  
HETATM   33  H   UNL     1      -9.189  17.504  67.055  1.00  0.00     0.000 HD 
BRANCH  32  34
HETATM   34  C   UNL     1      -9.825  19.129  68.310  1.00  0.00    -0.390 C  
HETATM   35  C   UNL     1      -8.746  19.709  69.233  1.00  0.00     0.060 C  
HETATM   36  C   UNL     1      -7.395  19.813  68.528  1.00  0.00    -0.351 C  
HETATM   37  C   UNL     1      -7.489  20.590  67.218  1.00  0.00    -0.384 C  
HETATM   38  C   UNL     1      -8.607  20.095  66.303  1.00  0.00    -0.272 C  
HETATM   39  C   UNL     1      -9.942  19.973  67.038  1.00  0.00    -0.582 C  
ENDBRANCH  32  34
ENDBRANCH  30  32
ENDBRANCH  28  30
ENDBRANCH  25  28
ENDBRANCH  22  25
ENDBRANCH  18  19
ENDBRANCH  17  18
ENDBRANCH  14  17
ENDBRANCH   2   3
TORSDOF 9
ENDMDL
MODEL      229
REMARK 921   NORMALIZED FREE ENERGY PREDICTED BY IDOCK:   -3.66 KCAL/MOL
REMARK 922        TOTAL FREE ENERGY PREDICTED BY IDOCK:   -7.74 KCAL/MOL
REMARK 923 INTER-LIGAND FREE ENERGY PREDICTED BY IDOCK:   -6.81 KCAL/MOL
REMARK 924 INTRA-LIGAND FREE ENERGY PREDICTED BY IDOCK:   -0.93 KCAL/MOL
REMARK 927      BINDING AFFINITY PREDICTED BY RF-SCORE:    0.00 PKD
ROOT
HETATM    1  C   UNL     1     -12.834  11.772  63.382  1.00  0.00    -0.176 C  
HETATM    2  O   UNL     1     -12.632  13.181  63.303  1.00  0.00    -0.700 OA 
ENDROOT
BRANCH   2   3
HETATM    3  C   UNL     1     -11.877  13.720  64.307  1.00  0.00    -0.417 A  
HETATM    4  C   UNL     1     -11.105  12.989  65.202  1.00  0.00    -0.317 A  
HETATM    5  C   UNL     1     -10.332  13.651  66.165  1.00  0.00    -0.297 A  
HETATM    6  C   UNL     1     -10.359  15.050  66.286  1.00  0.00    -0.304 A  
HETATM    7  C   UNL     1     -11.112  15.776  65.350  1.00  0.00    -0.232 A  
HETATM    8  C   UNL     1      -9.537  15.740  67.368  1.00  0.00    -0.217 C  
HETATM    9  C   UNL     1      -8.992  14.729  68.389  1.00  0.00    -0.187 C  
HETATM   10  C   UNL     1      -8.284  16.384  66.732  1.00  0.00    -0.286 C  
HETATM   11  C   UNL     1     -10.342  16.822  68.110  1.00  0.00    -0.318 C  
HETATM   12  C   UNL     1     -11.850  15.114  64.363  1.00  0.00    -0.314 A  
HETATM   13  O   UNL     1      -8.831  14.983  69.581  1.00  0.00    -0.122 OA 
HETATM   14  N   UNL     1      -8.547  13.560  67.801  1.00  0.00    -0.169 N  
HETATM   15  O   UNL     1      -9.295  11.633  66.793  1.00  0.00    -0.177 OA 
HETATM   16  C   UNL     1      -9.361  12.847  66.949  1.00  0.00    -0.240 C  
BRANCH  14  17
HETATM   17  C   UNL     1      -7.319  12.967  68.282  1.00  0.00    -0.116 C  
BRANCH  17  18
HETATM   18  C   UNL     1      -6.914  11.621  67.680  1.00  0.00    -0.095 C  
BRANCH  18  19
HETATM   19  C   UNL     1      -6.883  10.528  68.736  1.00  0.00    -0.060 A  
HETATM   20  C   UNL     1      -7.409  10.724  70.025  1.00  0.00     0.110 A  
HETATM   21  C   UNL     1      -7.315   9.730  70.998  1.00  0.00     0.235 A  
HETATM   22  C   UNL     1      -6.723   8.513  70.678  1.00  0.00    -0.040 A  
HETATM   23  C   UNL     1      -6.314   9.285  68.425  1.00  0.00    -0.053 A  
HETATM   24  C   UNL     1      -6.222   8.284  69.396  1.00  0.00    -0.037 A  
BRANCH  22  25
HETATM   25  S   UNL     1      -6.568   7.276  71.938  1.00  0.00    -0.051 S  
HETATM   26  O   UNL     1      -5.166   7.011  72.183  1.00  0.00    -0.035 OA 
HETATM   27  O   UNL     1      -7.443   7.658  73.028  1.00  0.00    -0.086 OA 
BRANCH  25  28
HETATM   28  N   UNL     1      -7.283   5.943  71.254  1.00  0.00    -0.076 N  
HETATM   29  H   UNL     1      -6.682   5.160  70.998  1.00  0.00     0.000 HD 
BRANCH  28  30
HETATM   30  C   UNL     1      -8.637   5.822  71.010  1.00  0.00    -0.131 C  
HETATM   31  O   UNL     1      -9.265   4.784  71.145  1.00  0.00    -0.132 OA 
BRANCH  30  32
HETATM   32  N   UNL     1      -9.188   6.994  70.593  1.00  0.00    -0.158 N  
HETATM   33  H   UNL     1      -8.621   7.841  70.596  1.00  0.00     0.000 HD 
BRANCH  32  34
HETATM   34  C   UNL     1     -10.574   7.066  70.140  1.00  0.00    -0.228 C  
HETATM   35  C   UNL     1     -11.418   7.955  71.062  1.00  0.00    -0.298 C  
HETATM   36  C   UNL     1     -10.985   9.418  70.987  1.00  0.00    -0.409 C  
HETATM   37  C   UNL     1     -10.979   9.943  69.553  1.00  0.00    -0.274 C  
HETATM   38  C   UNL     1     -10.215   9.040  68.586  1.00  0.00    -0.226 C  
HETATM   39  C   UNL     1     -10.646   7.578  68.699  1.00  0.00    -0.171 C  
ENDBRANCH  32  34
ENDBRANCH  30  32
ENDBRANCH  28  30
ENDBRANCH  25  28
ENDBRANCH  22  25
ENDBRANCH  18  19
ENDBRANCH  17  18
ENDBRANCH  14  17
ENDBRANCH   2   3
TORSDOF 9
ENDMDL
MODEL      230
REMARK 921   NORMALIZED FREE ENERGY PREDICTED BY IDOCK:   -3.64 KCAL/MOL
REMARK 922        TOTAL FREE ENERGY PREDICTED BY IDOCK:   -7.71 KCAL/MOL
REMARK 923 INTER-LIGAND FREE ENERGY PREDICTED BY IDOCK:   -7.19 KCAL/MOL
REMARK 924 INTRA-LIGAND FREE ENERGY PREDICTED BY IDOCK:   -0.52 KCAL/MOL
REMARK 927      BINDING AFFINITY PREDICTED BY RF-SCORE:    0.00 PKD
ROOT
HETATM    1  C   UNL     1     -11.079  15.077  65.287  1.00  0.00    -0.386 C  
HETATM    2  O   UNL     1     -10.588  14.023  66.112  1.00  0.00    -0.283 OA 
ENDROOT
BRANCH   2   3
HETATM    3  C   UNL     1     -11.108  13.979  67.375  1.00  0.00    -0.303 A  
HETATM    4  C   UNL     1     -11.541  12.825  68.017  1.00  0.00    -0.388 A  
HETATM    5  C   UNL     1     -12.016  12.891  69.334  1.00  0.00    -0.327 A  
HETATM    6  C   UNL     1     -12.117  14.117  70.012  1.00  0.00    -0.409 A  
HETATM    7  C   UNL     1     -11.639  15.267  69.365  1.00  0.00    -0.347 A  
HETATM    8  C   UNL     1     -12.672  14.162  71.431  1.00  0.00    -0.439 C  
HETATM    9  C   UNL     1     -13.327  12.828  71.820  1.00  0.00    -0.342 C  
HETATM   10  C   UNL     1     -11.511  14.347  72.434  1.00  0.00     0.859 C  
HETATM   11  C   UNL     1     -13.692  15.299  71.621  1.00  0.00    -0.600 C  
HETATM   12  C   UNL     1     -11.126  15.191  68.066  1.00  0.00    -0.310 A  
HETATM   13  O   UNL     1     -14.298  12.738  72.569  1.00  0.00    -0.363 OA 
HETATM   14  N   UNL     1     -12.615  11.730  71.376  1.00  0.00    -0.310 N  
HETATM   15  O   UNL     1     -12.106  10.542  69.473  1.00  0.00    -0.236 OA 
HETATM   16  C   UNL     1     -12.259  11.613  70.050  1.00  0.00    -0.263 C  
BRANCH  14  17
HETATM   17  C   UNL     1     -12.465  10.597  72.260  1.00  0.00     0.575 C  
BRANCH  17  18
HETATM   18  C   UNL     1     -13.023   9.258  71.776  1.00  0.00    -0.471 C  
BRANCH  18  19
HETATM   19  C   UNL     1     -12.047   8.123  72.036  1.00  0.00    -0.388 A  
HETATM   20  C   UNL     1     -10.753   8.354  72.537  1.00  0.00    -0.372 A  
HETATM   21  C   UNL     1      -9.851   7.306  72.711  1.00  0.00    -0.219 A  
HETATM   22  C   UNL     1     -10.250   6.006  72.418  1.00  0.00    -0.189 A  
HETATM   23  C   UNL     1     -12.438   6.802  71.773  1.00  0.00    -0.394 A  
HETATM   24  C   UNL     1     -11.538   5.747  71.950  1.00  0.00    -0.184 A  
BRANCH  22  25
HETATM   25  S   UNL     1      -9.078   4.688  72.599  1.00  0.00    -0.127 S  
HETATM   26  O   UNL     1      -7.807   5.229  73.030  1.00  0.00    -0.096 OA 
HETATM   27  O   UNL     1      -9.723   3.638  73.361  1.00  0.00    -0.106 OA 
BRANCH  25  28
HETATM   28  N   UNL     1      -8.941   4.084  71.059  1.00  0.00    -0.101 N  
HETATM   29  H   UNL     1      -9.324   3.156  70.875  1.00  0.00     0.000 HD 
BRANCH  28  30
HETATM   30  C   UNL     1      -8.345   4.753  70.008  1.00  0.00    -0.068 C  
HETATM   31  O   UNL     1      -8.473   5.948  69.798  1.00  0.00    -0.121 OA 
BRANCH  30  32
HETATM   32  N   UNL     1      -7.601   3.921  69.228  1.00  0.00    -0.053 N  
HETATM   33  H   UNL     1      -6.592   3.876  69.369  1.00  0.00     0.000 HD 
BRANCH  32  34
HETATM   34  C   UNL     1      -8.215   3.092  68.196  1.00  0.00    -0.077 C  
HETATM   35  C   UNL     1      -8.858   3.950  67.099  1.00  0.00    -0.133 C  
HETATM   36  C   UNL     1      -7.812   4.724  66.301  1.00  0.00    -0.099 C  
HETATM   37  C   UNL     1      -6.728   3.810  65.734  1.00  0.00    -0.045 C  
HETATM   38  C   UNL     1      -6.118   2.880  66.782  1.00  0.00    -0.024 C  
HETATM   39  C   UNL     1      -7.185   2.138  67.586  1.00  0.00    -0.051 C  
ENDBRANCH  32  34
ENDBRANCH  30  32
ENDBRANCH  28  30
ENDBRANCH  25  28
ENDBRANCH  22  25
ENDBRANCH  18  19
ENDBRANCH  17  18
ENDBRANCH  14  17
ENDBRANCH   2   3
TORSDOF 9
ENDMDL
MODEL      231
REMARK 921   NORMALIZED FREE ENERGY PREDICTED BY IDOCK:   -3.63 KCAL/MOL
REMARK 922        TOTAL FREE ENERGY PREDICTED BY IDOCK:   -7.69 KCAL/MOL
REMARK 923 INTER-LIGAND FREE ENERGY PREDICTED BY IDOCK:   -5.76 KCAL/MOL
REMARK 924 INTRA-LIGAND FREE ENERGY PREDICTED BY IDOCK:   -1.94 KCAL/MOL
REMARK 927      BINDING AFFINITY PREDICTED BY RF-SCORE:    0.00 PKD
ROOT
HETATM    1  C   UNL     1      -7.879  20.495  67.891  1.00  0.00    -0.098 C  
HETATM    2  O   UNL     1      -8.763  19.821  66.998  1.00  0.00    -0.300 OA 
ENDROOT
BRANCH   2   3
HETATM    3  C   UNL     1      -9.320  18.672  67.484  1.00  0.00    -0.283 A  
HETATM    4  C   UNL     1      -9.992  17.728  66.716  1.00  0.00    -0.333 A  
HETATM    5  C   UNL     1     -10.485  16.560  67.315  1.00  0.00    -0.304 A  
HETATM    6  C   UNL     1     -10.362  16.341  68.697  1.00  0.00    -0.263 A  
HETATM    7  C   UNL     1      -9.647  17.283  69.450  1.00  0.00     0.134 A  
HETATM    8  C   UNL     1     -10.941  15.078  69.324  1.00  0.00    -0.269 C  
HETATM    9  C   UNL     1     -11.859  14.334  68.343  1.00  0.00    -0.338 C  
HETATM   10  C   UNL     1      -9.798  14.086  69.637  1.00  0.00     0.681 C  
HETATM   11  C   UNL     1     -11.721  15.376  70.617  1.00  0.00    -0.373 C  
HETATM   12  C   UNL     1      -9.120  18.428  68.843  1.00  0.00    -0.185 A  
HETATM   13  O   UNL     1     -12.850  13.694  68.687  1.00  0.00     0.653 OA 
HETATM   14  N   UNL     1     -11.364  14.317  67.052  1.00  0.00    -0.326 N  
HETATM   15  O   UNL     1     -11.042  15.659  65.212  1.00  0.00    -0.344 OA 
HETATM   16  C   UNL     1     -10.997  15.488  66.425  1.00  0.00    -0.238 C  
BRANCH  14  17
HETATM   17  C   UNL     1     -11.469  13.096  66.285  1.00  0.00    -0.334 C  
BRANCH  17  18
HETATM   18  C   UNL     1     -10.168  12.357  65.973  1.00  0.00    -0.267 C  
BRANCH  18  19
HETATM   19  C   UNL     1      -9.795  11.393  67.088  1.00  0.00    -0.212 A  
HETATM   20  C   UNL     1      -8.505  10.847  67.199  1.00  0.00    -0.128 A  
HETATM   21  C   UNL     1      -8.200   9.917  68.193  1.00  0.00    -0.109 A  
HETATM   22  C   UNL     1      -9.179   9.553  69.110  1.00  0.00    -0.163 A  
HETATM   23  C   UNL     1     -10.760  11.033  68.039  1.00  0.00    -0.260 A  
HETATM   24  C   UNL     1     -10.459  10.105  69.040  1.00  0.00    -0.239 A  
BRANCH  22  25
HETATM   25  S   UNL     1      -8.793   8.335  70.340  1.00  0.00    -0.145 S  
HETATM   26  O   UNL     1      -8.439   7.091  69.690  1.00  0.00    -0.131 OA 
HETATM   27  O   UNL     1      -7.886   8.951  71.287  1.00  0.00    -0.137 OA 
BRANCH  25  28
HETATM   28  N   UNL     1     -10.223   8.155  71.163  1.00  0.00    -0.192 N  
HETATM   29  H   UNL     1     -11.075   8.500  70.718  1.00  0.00     0.000 HD 
BRANCH  28  30
HETATM   30  C   UNL     1     -10.340   7.571  72.409  1.00  0.00    -0.228 C  
HETATM   31  O   UNL     1     -11.361   7.585  73.077  1.00  0.00    -0.341 OA 
BRANCH  30  32
HETATM   32  N   UNL     1      -9.179   6.983  72.809  1.00  0.00    -0.134 N  
HETATM   33  H   UNL     1      -8.310   7.516  72.767  1.00  0.00     0.000 HD 
BRANCH  32  34
HETATM   34  C   UNL     1      -9.150   5.608  73.295  1.00  0.00    -0.129 C  
HETATM   35  C   UNL     1      -8.724   4.633  72.191  1.00  0.00    -0.127 C  
HETATM   36  C   UNL     1      -7.271   4.851  71.774  1.00  0.00    -0.067 C  
HETATM   37  C   UNL     1      -6.317   4.800  72.965  1.00  0.00    -0.042 C  
HETATM   38  C   UNL     1      -6.751   5.699  74.122  1.00  0.00    -0.080 C  
HETATM   39  C   UNL     1      -8.216   5.482  74.502  1.00  0.00    -0.106 C  
ENDBRANCH  32  34
ENDBRANCH  30  32
ENDBRANCH  28  30
ENDBRANCH  25  28
ENDBRANCH  22  25
ENDBRANCH  18  19
ENDBRANCH  17  18
ENDBRANCH  14  17
ENDBRANCH   2   3
TORSDOF 9
ENDMDL
MODEL      232
REMARK 921   NORMALIZED FREE ENERGY PREDICTED BY IDOCK:   -3.61 KCAL/MOL
REMARK 922        TOTAL FREE ENERGY PREDICTED BY IDOCK:   -7.66 KCAL/MOL
REMARK 923 INTER-LIGAND FREE ENERGY PREDICTED BY IDOCK:   -6.78 KCAL/MOL
REMARK 924 INTRA-LIGAND FREE ENERGY PREDICTED BY IDOCK:   -0.88 KCAL/MOL
REMARK 927      BINDING AFFINITY PREDICTED BY RF-SCORE:    0.00 PKD
ROOT
HETATM    1  C   UNL     1     -10.586  19.960  66.349  1.00  0.00    -0.420 C  
HETATM    2  O   UNL     1     -10.458  19.596  67.721  1.00  0.00    -0.423 OA 
ENDROOT
BRANCH   2   3
HETATM    3  C   UNL     1      -9.544  18.614  67.983  1.00  0.00    -0.316 A  
HETATM    4  C   UNL     1      -9.818  17.251  67.976  1.00  0.00    -0.284 A  
HETATM    5  C   UNL     1      -8.791  16.329  68.215  1.00  0.00    -0.188 A  
HETATM    6  C   UNL     1      -7.486  16.752  68.517  1.00  0.00    -0.213 A  
HETATM    7  C   UNL     1      -7.217  18.128  68.480  1.00  0.00    -0.274 A  
HETATM    8  C   UNL     1      -6.397  15.725  68.808  1.00  0.00    -0.109 C  
HETATM    9  C   UNL     1      -6.990  14.322  69.010  1.00  0.00    -0.112 C  
HETATM   10  C   UNL     1      -5.467  15.597  67.582  1.00  0.00    -0.108 C  
HETATM   11  C   UNL     1      -5.560  16.101  70.043  1.00  0.00    -0.171 C  
HETATM   12  C   UNL     1      -8.236  19.045  68.200  1.00  0.00    -0.349 A  
HETATM   13  O   UNL     1      -6.516  13.485  69.775  1.00  0.00    -0.117 OA 
HETATM   14  N   UNL     1      -8.009  14.036  68.120  1.00  0.00    -0.137 N  
HETATM   15  O   UNL     1     -10.206  14.532  67.655  1.00  0.00    -0.225 OA 
HETATM   16  C   UNL     1      -9.080  14.891  67.982  1.00  0.00    -0.180 C  
BRANCH  14  17
HETATM   17  C   UNL     1      -8.061  12.720  67.525  1.00  0.00    -0.180 C  
BRANCH  17  18
HETATM   18  C   UNL     1      -8.835  11.643  68.284  1.00  0.00    -0.167 C  
BRANCH  18  19
HETATM   19  C   UNL     1      -8.645  10.274  67.653  1.00  0.00    -0.118 A  
HETATM   20  C   UNL     1      -9.358   9.878  66.507  1.00  0.00    -0.206 A  
HETATM   21  C   UNL     1      -9.215   8.596  65.978  1.00  0.00    -0.276 A  
HETATM   22  C   UNL     1      -8.327   7.706  66.574  1.00  0.00    -0.129 A  
HETATM   23  C   UNL     1      -7.736   9.371  68.221  1.00  0.00    -0.083 A  
HETATM   24  C   UNL     1      -7.586   8.086  67.693  1.00  0.00    -0.102 A  
BRANCH  22  25
HETATM   25  S   UNL     1      -8.191   6.064  65.920  1.00  0.00    -0.135 S  
HETATM   26  O   UNL     1      -8.434   6.091  64.494  1.00  0.00    -0.091 OA 
HETATM   27  O   UNL     1      -6.967   5.491  66.445  1.00  0.00    -0.061 OA 
BRANCH  25  28
HETATM   28  N   UNL     1      -9.415   5.245  66.686  1.00  0.00    -0.136 N  
HETATM   29  H   UNL     1      -9.538   4.257  66.465  1.00  0.00     0.000 HD 
BRANCH  28  30
HETATM   30  C   UNL     1     -10.280   5.811  67.602  1.00  0.00    -0.193 C  
HETATM   31  O   UNL     1     -11.332   6.354  67.303  1.00  0.00    -0.295 OA 
BRANCH  30  32
HETATM   32  N   UNL     1      -9.820   5.699  68.877  1.00  0.00    -0.137 N  
HETATM   33  H   UNL     1     -10.081   6.404  69.566  1.00  0.00     0.000 HD 
BRANCH  32  34
HETATM   34  C   UNL     1      -8.961   4.591  69.283  1.00  0.00    -0.096 C  
HETATM   35  C   UNL     1      -7.657   5.096  69.914  1.00  0.00    -0.064 C  
HETATM   36  C   UNL     1      -7.909   5.803  71.244  1.00  0.00    -0.111 C  
HETATM   37  C   UNL     1      -8.702   4.933  72.216  1.00  0.00    -0.128 C  
HETATM   38  C   UNL     1      -9.969   4.343  71.599  1.00  0.00    -0.256 C  
HETATM   39  C   UNL     1      -9.696   3.666  70.257  1.00  0.00    -0.193 C  
ENDBRANCH  32  34
ENDBRANCH  30  32
ENDBRANCH  28  30
ENDBRANCH  25  28
ENDBRANCH  22  25
ENDBRANCH  18  19
ENDBRANCH  17  18
ENDBRANCH  14  17
ENDBRANCH   2   3
TORSDOF 9
ENDMDL
MODEL      233
REMARK 921   NORMALIZED FREE ENERGY PREDICTED BY IDOCK:   -3.59 KCAL/MOL
REMARK 922        TOTAL FREE ENERGY PREDICTED BY IDOCK:   -7.62 KCAL/MOL
REMARK 923 INTER-LIGAND FREE ENERGY PREDICTED BY IDOCK:   -6.35 KCAL/MOL
REMARK 924 INTRA-LIGAND FREE ENERGY PREDICTED BY IDOCK:   -1.27 KCAL/MOL
REMARK 927      BINDING AFFINITY PREDICTED BY RF-SCORE:    0.00 PKD
ROOT
HETATM    1  C   UNL     1      -9.864  19.775  67.959  1.00  0.00    -0.417 C  
HETATM    2  O   UNL     1      -9.212  18.660  68.562  1.00  0.00    -0.328 OA 
ENDROOT
BRANCH   2   3
HETATM    3  C   UNL     1      -9.651  17.433  68.150  1.00  0.00    -0.287 A  
HETATM    4  C   UNL     1      -8.829  16.393  67.734  1.00  0.00    -0.189 A  
HETATM    5  C   UNL     1      -9.387  15.158  67.376  1.00  0.00    -0.200 A  
HETATM    6  C   UNL     1     -10.778  14.959  67.375  1.00  0.00    -0.292 A  
HETATM    7  C   UNL     1     -11.591  16.006  67.835  1.00  0.00    -0.054 A  
HETATM    8  C   UNL     1     -11.358  13.617  66.944  1.00  0.00    -0.345 C  
HETATM    9  C   UNL     1     -10.292  12.733  66.280  1.00  0.00    -0.258 C  
HETATM   10  C   UNL     1     -11.814  12.828  68.192  1.00  0.00    -0.372 C  
HETATM   11  C   UNL     1     -12.549  13.780  65.983  1.00  0.00    -0.458 C  
HETATM   12  C   UNL     1     -11.028  17.223  68.232  1.00  0.00    -0.188 A  
HETATM   13  O   UNL     1     -10.533  11.937  65.374  1.00  0.00    -0.250 OA 
HETATM   14  N   UNL     1      -9.065  12.801  66.914  1.00  0.00    -0.219 N  
HETATM   15  O   UNL     1      -7.251  14.181  67.218  1.00  0.00    -0.148 OA 
HETATM   16  C   UNL     1      -8.464  14.017  67.152  1.00  0.00    -0.190 C  
BRANCH  14  17
HETATM   17  C   UNL     1      -8.312  11.581  67.100  1.00  0.00    -0.160 C  
BRANCH  17  18
HETATM   18  C   UNL     1      -8.118  11.095  68.537  1.00  0.00    -0.146 C  
BRANCH  18  19
HETATM   19  C   UNL     1      -8.165   9.578  68.620  1.00  0.00    -0.112 A  
HETATM   20  C   UNL     1      -9.311   8.848  68.257  1.00  0.00    -0.149 A  
HETATM   21  C   UNL     1      -9.356   7.462  68.399  1.00  0.00    -0.144 A  
HETATM   22  C   UNL     1      -8.236   6.788  68.875  1.00  0.00    -0.121 A  
HETATM   23  C   UNL     1      -7.039   8.877  69.072  1.00  0.00    -0.064 A  
HETATM   24  C   UNL     1      -7.077   7.487  69.212  1.00  0.00    -0.077 A  
BRANCH  22  25
HETATM   25  S   UNL     1      -8.322   5.031  69.096  1.00  0.00    -0.086 S  
HETATM   26  O   UNL     1      -6.991   4.469  69.009  1.00  0.00    -0.049 OA 
HETATM   27  O   UNL     1      -9.149   4.782  70.259  1.00  0.00    -0.105 OA 
BRANCH  25  28
HETATM   28  N   UNL     1      -9.232   4.527  67.802  1.00  0.00    -0.123 N  
HETATM   29  H   UNL     1      -9.898   5.189  67.402  1.00  0.00     0.000 HD 
BRANCH  28  30
HETATM   30  C   UNL     1      -9.149   3.273  67.229  1.00  0.00    -0.174 C  
HETATM   31  O   UNL     1      -9.709   2.283  67.670  1.00  0.00    -0.036 OA 
BRANCH  30  32
HETATM   32  N   UNL     1      -8.363   3.270  66.118  1.00  0.00    -0.098 N  
HETATM   33  H   UNL     1      -7.539   2.669  66.092  1.00  0.00     0.000 HD 
BRANCH  32  34
HETATM   34  C   UNL     1      -8.673   4.104  64.962  1.00  0.00    -0.124 C  
HETATM   35  C   UNL     1      -7.401   4.510  64.208  1.00  0.00    -0.066 C  
HETATM   36  C   UNL     1      -6.722   3.307  63.555  1.00  0.00    -0.035 C  
HETATM   37  C   UNL     1      -7.679   2.524  62.660  1.00  0.00    -0.058 C  
HETATM   38  C   UNL     1      -8.995   2.170  63.350  1.00  0.00    -0.089 C  
HETATM   39  C   UNL     1      -9.640   3.383  64.019  1.00  0.00    -0.143 C  
ENDBRANCH  32  34
ENDBRANCH  30  32
ENDBRANCH  28  30
ENDBRANCH  25  28
ENDBRANCH  22  25
ENDBRANCH  18  19
ENDBRANCH  17  18
ENDBRANCH  14  17
ENDBRANCH   2   3
TORSDOF 9
ENDMDL
MODEL      234
REMARK 921   NORMALIZED FREE ENERGY PREDICTED BY IDOCK:   -3.56 KCAL/MOL
REMARK 922        TOTAL FREE ENERGY PREDICTED BY IDOCK:   -7.58 KCAL/MOL
REMARK 923 INTER-LIGAND FREE ENERGY PREDICTED BY IDOCK:   -7.15 KCAL/MOL
REMARK 924 INTRA-LIGAND FREE ENERGY PREDICTED BY IDOCK:   -0.43 KCAL/MOL
REMARK 927      BINDING AFFINITY PREDICTED BY RF-SCORE:    0.00 PKD
ROOT
HETATM    1  C   UNL     1      -5.998  20.193  69.753  1.00  0.00    -0.352 C  
HETATM    2  O   UNL     1      -5.619  19.148  68.861  1.00  0.00    -0.194 OA 
ENDROOT
BRANCH   2   3
HETATM    3  C   UNL     1      -6.654  18.444  68.312  1.00  0.00    -0.221 A  
HETATM    4  C   UNL     1      -6.586  17.116  67.908  1.00  0.00    -0.154 A  
HETATM    5  C   UNL     1      -7.725  16.479  67.398  1.00  0.00    -0.174 A  
HETATM    6  C   UNL     1      -8.935  17.172  67.231  1.00  0.00    -0.228 A  
HETATM    7  C   UNL     1      -8.998  18.500  67.680  1.00  0.00    -0.283 A  
HETATM    8  C   UNL     1     -10.148  16.463  66.639  1.00  0.00    -0.290 C  
HETATM    9  C   UNL     1      -9.761  15.108  66.027  1.00  0.00    -0.330 C  
HETATM   10  C   UNL     1     -11.149  16.124  67.765  1.00  0.00    -0.254 C  
HETATM   11  C   UNL     1     -10.855  17.315  65.570  1.00  0.00    -0.024 C  
HETATM   12  C   UNL     1      -7.870  19.120  68.228  1.00  0.00    -0.351 A  
HETATM   13  O   UNL     1     -10.313  14.622  65.042  1.00  0.00    -0.403 OA 
HETATM   14  N   UNL     1      -8.843  14.415  66.793  1.00  0.00    -0.228 N  
HETATM   15  O   UNL     1      -6.623  14.398  67.397  1.00  0.00    -0.287 OA 
HETATM   16  C   UNL     1      -7.665  15.011  67.187  1.00  0.00    -0.167 C  
BRANCH  14  17
HETATM   17  C   UNL     1      -9.017  12.990  66.965  1.00  0.00    -0.225 C  
BRANCH  17  18
HETATM   18  C   UNL     1     -10.024  12.298  66.047  1.00  0.00    -0.270 C  
BRANCH  18  19
HETATM   19  C   UNL     1      -9.499  10.957  65.558  1.00  0.00    -0.249 A  
HETATM   20  C   UNL     1      -9.018   9.979  66.446  1.00  0.00    -0.164 A  
HETATM   21  C   UNL     1      -8.484   8.780  65.975  1.00  0.00    -0.144 A  
HETATM   22  C   UNL     1      -8.459   8.535  64.606  1.00  0.00    -0.108 A  
HETATM   23  C   UNL     1      -9.490  10.679  64.184  1.00  0.00    -0.327 A  
HETATM   24  C   UNL     1      -8.960   9.477  63.707  1.00  0.00    -0.211 A  
BRANCH  22  25
HETATM   25  S   UNL     1      -7.734   7.028  64.018  1.00  0.00    -0.108 S  
HETATM   26  O   UNL     1      -7.537   7.115  62.586  1.00  0.00    -0.090 OA 
HETATM   27  O   UNL     1      -6.623   6.712  64.893  1.00  0.00    -0.040 OA 
BRANCH  25  28
HETATM   28  N   UNL     1      -8.892   5.888  64.359  1.00  0.00    -0.342 N  
HETATM   29  H   UNL     1      -9.843   6.213  64.531  1.00  0.00     0.000 HD 
BRANCH  28  30
HETATM   30  C   UNL     1      -8.655   4.529  64.425  1.00  0.00    -0.138 C  
HETATM   31  O   UNL     1      -8.901   3.748  63.521  1.00  0.00    -0.095 OA 
BRANCH  30  32
HETATM   32  N   UNL     1      -8.119   4.161  65.621  1.00  0.00    -0.101 N  
HETATM   33  H   UNL     1      -7.108   4.197  65.747  1.00  0.00     0.000 HD 
BRANCH  32  34
HETATM   34  C   UNL     1      -8.959   3.716  66.728  1.00  0.00    -0.142 C  
HETATM   35  C   UNL     1      -8.206   2.745  67.646  1.00  0.00    -0.087 C  
HETATM   36  C   UNL     1      -7.058   3.436  68.380  1.00  0.00    -0.050 C  
HETATM   37  C   UNL     1      -7.524   4.677  69.137  1.00  0.00    -0.056 C  
HETATM   38  C   UNL     1      -8.349   5.632  68.277  1.00  0.00    -0.102 C  
HETATM   39  C   UNL     1      -9.473   4.913  67.531  1.00  0.00    -0.161 C  
ENDBRANCH  32  34
ENDBRANCH  30  32
ENDBRANCH  28  30
ENDBRANCH  25  28
ENDBRANCH  22  25
ENDBRANCH  18  19
ENDBRANCH  17  18
ENDBRANCH  14  17
ENDBRANCH   2   3
TORSDOF 9
ENDMDL
MODEL      235
REMARK 921   NORMALIZED FREE ENERGY PREDICTED BY IDOCK:   -3.51 KCAL/MOL
REMARK 922        TOTAL FREE ENERGY PREDICTED BY IDOCK:   -7.50 KCAL/MOL
REMARK 923 INTER-LIGAND FREE ENERGY PREDICTED BY IDOCK:   -6.09 KCAL/MOL
REMARK 924 INTRA-LIGAND FREE ENERGY PREDICTED BY IDOCK:   -1.41 KCAL/MOL
REMARK 927      BINDING AFFINITY PREDICTED BY RF-SCORE:    0.00 PKD
ROOT
HETATM    1  C   UNL     1     -11.738   6.024  66.555  1.00  0.00     1.450 C  
HETATM    2  O   UNL     1     -10.995   6.441  67.698  1.00  0.00    -0.310 OA 
ENDROOT
BRANCH   2   3
HETATM    3  C   UNL     1      -9.922   7.246  67.437  1.00  0.00    -0.174 A  
HETATM    4  C   UNL     1      -9.705   8.493  68.012  1.00  0.00    -0.180 A  
HETATM    5  C   UNL     1      -8.543   9.214  67.703  1.00  0.00    -0.117 A  
HETATM    6  C   UNL     1      -7.607   8.727  66.776  1.00  0.00    -0.090 A  
HETATM    7  C   UNL     1      -7.821   7.450  66.235  1.00  0.00    -0.106 A  
HETATM    8  C   UNL     1      -6.371   9.551  66.433  1.00  0.00    -0.069 C  
HETATM    9  C   UNL     1      -6.485  10.985  66.974  1.00  0.00    -0.092 C  
HETATM   10  C   UNL     1      -5.137   8.951  67.143  1.00  0.00    -0.032 C  
HETATM   11  C   UNL     1      -6.109   9.603  64.918  1.00  0.00    -0.083 C  
HETATM   12  C   UNL     1      -8.961   6.715  66.577  1.00  0.00    -0.155 A  
HETATM   13  O   UNL     1      -6.002  11.966  66.413  1.00  0.00    -0.171 OA 
HETATM   14  N   UNL     1      -7.041  11.039  68.239  1.00  0.00    -0.069 N  
HETATM   15  O   UNL     1      -9.039  10.816  69.357  1.00  0.00    -0.102 OA 
HETATM   16  C   UNL     1      -8.248  10.430  68.502  1.00  0.00    -0.119 C  
BRANCH  14  17
HETATM   17  C   UNL     1      -6.469  11.945  69.209  1.00  0.00    -0.111 C  
BRANCH  17  18
HETATM   18  C   UNL     1      -5.918  13.270  68.683  1.00  0.00    -0.083 C  
BRANCH  18  19
HETATM   19  C   UNL     1      -7.030  14.168  68.166  1.00  0.00    -0.126 A  
HETATM   20  C   UNL     1      -6.826  15.071  67.108  1.00  0.00     0.142 A  
HETATM   21  C   UNL     1      -7.842  15.930  66.689  1.00  0.00    -0.236 A  
HETATM   22  C   UNL     1      -9.087  15.866  67.304  1.00  0.00    -0.205 A  
HETATM   23  C   UNL     1      -8.301  14.100  68.754  1.00  0.00    -0.069 A  
HETATM   24  C   UNL     1      -9.324  14.955  68.334  1.00  0.00    -0.197 A  
BRANCH  22  25
HETATM   25  S   UNL     1     -10.355  16.995  66.793  1.00  0.00    -0.274 S  
HETATM   26  O   UNL     1     -10.911  17.653  67.957  1.00  0.00    -0.369 OA 
HETATM   27  O   UNL     1      -9.823  17.774  65.695  1.00  0.00    -0.528 OA 
BRANCH  25  28
HETATM   28  N   UNL     1     -11.496  16.003  66.108  1.00  0.00     0.312 N  
HETATM   29  H   UNL     1     -12.230  15.633  66.713  1.00  0.00     0.000 HD 
BRANCH  28  30
HETATM   30  C   UNL     1     -11.520  15.645  64.775  1.00  0.00    -0.283 C  
HETATM   31  O   UNL     1     -12.223  16.184  63.935  1.00  0.00    -0.935 OA 
BRANCH  30  32
HETATM   32  N   UNL     1     -10.674  14.613  64.506  1.00  0.00    -0.610 N  
HETATM   33  H   UNL     1      -9.673  14.736  64.662  1.00  0.00     0.000 HD 
BRANCH  32  34
HETATM   34  C   UNL     1     -11.164  13.336  64.001  1.00  0.00    -0.339 C  
HETATM   35  C   UNL     1     -10.079  12.254  64.067  1.00  0.00    -0.351 C  
HETATM   36  C   UNL     1      -9.715  11.904  65.509  1.00  0.00    -0.237 C  
HETATM   37  C   UNL     1     -10.941  11.519  66.333  1.00  0.00    -0.336 C  
HETATM   38  C   UNL     1     -12.079  12.533  66.229  1.00  0.00    -0.315 C  
HETATM   39  C   UNL     1     -12.405  12.888  64.779  1.00  0.00    -0.516 C  
ENDBRANCH  32  34
ENDBRANCH  30  32
ENDBRANCH  28  30
ENDBRANCH  25  28
ENDBRANCH  22  25
ENDBRANCH  18  19
ENDBRANCH  17  18
ENDBRANCH  14  17
ENDBRANCH   2   3
TORSDOF 9
ENDMDL
MODEL      236
REMARK 921   NORMALIZED FREE ENERGY PREDICTED BY IDOCK:   -3.50 KCAL/MOL
REMARK 922        TOTAL FREE ENERGY PREDICTED BY IDOCK:   -7.49 KCAL/MOL
REMARK 923 INTER-LIGAND FREE ENERGY PREDICTED BY IDOCK:   -7.36 KCAL/MOL
REMARK 924 INTRA-LIGAND FREE ENERGY PREDICTED BY IDOCK:   -0.13 KCAL/MOL
REMARK 927      BINDING AFFINITY PREDICTED BY RF-SCORE:    0.00 PKD
ROOT
HETATM    1  C   UNL     1     -10.275   1.518  73.047  1.00  0.00    -0.106 C  
HETATM    2  O   UNL     1     -10.961   2.679  73.507  1.00  0.00    -0.180 OA 
ENDROOT
BRANCH   2   3
HETATM    3  C   UNL     1     -10.642   3.841  72.861  1.00  0.00    -0.143 A  
HETATM    4  C   UNL     1      -9.727   3.946  71.821  1.00  0.00    -0.243 A  
HETATM    5  C   UNL     1      -9.511   5.185  71.200  1.00  0.00    -0.205 A  
HETATM    6  C   UNL     1     -10.164   6.346  71.643  1.00  0.00    -0.221 A  
HETATM    7  C   UNL     1     -11.114   6.215  72.667  1.00  0.00    -0.308 A  
HETATM    8  C   UNL     1      -9.881   7.686  70.972  1.00  0.00    -0.181 C  
HETATM    9  C   UNL     1      -8.655   7.602  70.050  1.00  0.00    -0.138 C  
HETATM   10  C   UNL     1     -11.059   8.057  70.043  1.00  0.00    -0.154 C  
HETATM   11  C   UNL     1      -9.666   8.814  71.996  1.00  0.00    -0.370 C  
HETATM   12  C   UNL     1     -11.358   4.970  73.257  1.00  0.00    -0.393 A  
HETATM   13  O   UNL     1      -7.879   8.537  69.861  1.00  0.00    -0.091 OA 
HETATM   14  N   UNL     1      -8.607   6.426  69.325  1.00  0.00    -0.125 N  
HETATM   15  O   UNL     1      -8.180   4.176  69.540  1.00  0.00    -0.059 OA 
HETATM   16  C   UNL     1      -8.695   5.207  69.960  1.00  0.00    -0.107 C  
BRANCH  14  17
HETATM   17  C   UNL     1      -8.215   6.484  67.935  1.00  0.00    -0.116 C  
BRANCH  17  18
HETATM   18  C   UNL     1      -7.313   7.644  67.514  1.00  0.00    -0.095 C  
BRANCH  18  19
HETATM   19  C   UNL     1      -8.070   8.656  66.668  1.00  0.00    -0.100 A  
HETATM   20  C   UNL     1      -7.419   9.723  66.025  1.00  0.00    -0.102 A  
HETATM   21  C   UNL     1      -8.139  10.675  65.304  1.00  0.00    -0.086 A  
HETATM   22  C   UNL     1      -9.519  10.547  65.191  1.00  0.00    -0.233 A  
HETATM   23  C   UNL     1      -9.459   8.530  66.519  1.00  0.00    -0.282 A  
HETATM   24  C   UNL     1     -10.184   9.479  65.795  1.00  0.00    -0.107 A  
BRANCH  22  25
HETATM   25  S   UNL     1     -10.427  11.790  64.312  1.00  0.00    -0.357 S  
HETATM   26  O   UNL     1      -9.588  12.358  63.278  1.00  0.00    -0.221 OA 
HETATM   27  O   UNL     1     -11.720  11.227  63.981  1.00  0.00    -0.103 OA 
BRANCH  25  28
HETATM   28  N   UNL     1     -10.737  12.932  65.477  1.00  0.00    -0.275 N  
HETATM   29  H   UNL     1     -10.834  12.614  66.441  1.00  0.00     0.000 HD 
BRANCH  28  30
HETATM   30  C   UNL     1     -10.871  14.284  65.229  1.00  0.00    -0.355 C  
HETATM   31  O   UNL     1     -11.732  14.764  64.509  1.00  0.00    -0.411 OA 
BRANCH  30  32
HETATM   32  N   UNL     1      -9.927  15.020  65.876  1.00  0.00    -0.304 N  
HETATM   33  H   UNL     1      -9.302  15.617  65.335  1.00  0.00     0.000 HD 
BRANCH  32  34
HETATM   34  C   UNL     1      -9.789  14.974  67.328  1.00  0.00    -0.228 C  
HETATM   35  C   UNL     1      -9.240  13.620  67.796  1.00  0.00    -0.214 C  
HETATM   36  C   UNL     1      -7.800  13.404  67.335  1.00  0.00    -0.154 C  
HETATM   37  C   UNL     1      -6.885  14.553  67.750  1.00  0.00    -0.193 C  
HETATM   38  C   UNL     1      -7.436  15.927  67.374  1.00  0.00    -0.217 C  
HETATM   39  C   UNL     1      -8.886  16.109  67.820  1.00  0.00    -0.184 C  
ENDBRANCH  32  34
ENDBRANCH  30  32
ENDBRANCH  28  30
ENDBRANCH  25  28
ENDBRANCH  22  25
ENDBRANCH  18  19
ENDBRANCH  17  18
ENDBRANCH  14  17
ENDBRANCH   2   3
TORSDOF 9
ENDMDL
MODEL      237
REMARK 921   NORMALIZED FREE ENERGY PREDICTED BY IDOCK:   -3.50 KCAL/MOL
REMARK 922        TOTAL FREE ENERGY PREDICTED BY IDOCK:   -7.49 KCAL/MOL
REMARK 923 INTER-LIGAND FREE ENERGY PREDICTED BY IDOCK:   -5.60 KCAL/MOL
REMARK 924 INTRA-LIGAND FREE ENERGY PREDICTED BY IDOCK:   -1.90 KCAL/MOL
REMARK 927      BINDING AFFINITY PREDICTED BY RF-SCORE:    0.00 PKD
ROOT
HETATM    1  C   UNL     1      -5.786   8.351  63.316  1.00  0.00    -0.076 C  
HETATM    2  O   UNL     1      -7.154   7.954  63.280  1.00  0.00    -0.081 OA 
ENDROOT
BRANCH   2   3
HETATM    3  C   UNL     1      -8.056   8.932  63.594  1.00  0.00    -0.167 A  
HETATM    4  C   UNL     1      -8.993   8.850  64.617  1.00  0.00    -0.042 A  
HETATM    5  C   UNL     1      -9.840   9.935  64.880  1.00  0.00    -0.282 A  
HETATM    6  C   UNL     1      -9.802  11.098  64.093  1.00  0.00    -0.340 A  
HETATM    7  C   UNL     1      -8.824  11.180  63.090  1.00  0.00    -0.117 A  
HETATM    8  C   UNL     1     -10.762  12.247  64.380  1.00  0.00    -0.369 C  
HETATM    9  C   UNL     1     -11.866  11.824  65.361  1.00  0.00     0.045 C  
HETATM   10  C   UNL     1     -10.002  13.387  65.096  1.00  0.00    -0.190 C  
HETATM   11  C   UNL     1     -11.410  12.797  63.097  1.00  0.00    -0.009 C  
HETATM   12  C   UNL     1      -7.952  10.112  62.857  1.00  0.00    -0.148 A  
HETATM   13  O   UNL     1     -13.013  12.265  65.328  1.00  0.00    -0.344 OA 
HETATM   14  N   UNL     1     -11.396  11.024  66.386  1.00  0.00     0.030 N  
HETATM   15  O   UNL     1     -10.648   8.896  66.832  1.00  0.00    -0.263 OA 
HETATM   16  C   UNL     1     -10.667   9.888  66.112  1.00  0.00     0.133 C  
BRANCH  14  17
HETATM   17  C   UNL     1     -11.886  11.256  67.726  1.00  0.00    -0.084 C  
BRANCH  17  18
HETATM   18  C   UNL     1     -10.892  11.815  68.743  1.00  0.00    -0.268 C  
BRANCH  18  19
HETATM   19  C   UNL     1     -10.438  10.744  69.722  1.00  0.00    -0.130 A  
HETATM   20  C   UNL     1      -9.131  10.226  69.705  1.00  0.00    -0.149 A  
HETATM   21  C   UNL     1      -8.752   9.201  70.570  1.00  0.00    -0.258 A  
HETATM   22  C   UNL     1      -9.671   8.707  71.489  1.00  0.00    -0.263 A  
HETATM   23  C   UNL     1     -11.342  10.251  70.674  1.00  0.00    -0.431 A  
HETATM   24  C   UNL     1     -10.965   9.226  71.546  1.00  0.00    -0.446 A  
BRANCH  22  25
HETATM   25  S   UNL     1      -9.191   7.371  72.551  1.00  0.00    -0.148 S  
HETATM   26  O   UNL     1      -8.132   7.815  73.433  1.00  0.00    -0.130 OA 
HETATM   27  O   UNL     1     -10.404   6.794  73.094  1.00  0.00    -0.205 OA 
BRANCH  25  28
HETATM   28  N   UNL     1      -8.605   6.234  71.493  1.00  0.00    -0.130 N  
HETATM   29  H   UNL     1      -9.270   5.575  71.087  1.00  0.00     0.000 HD 
BRANCH  28  30
HETATM   30  C   UNL     1      -7.279   6.119  71.125  1.00  0.00    -0.079 C  
HETATM   31  O   UNL     1      -6.349   6.108  71.915  1.00  0.00    -0.044 OA 
BRANCH  30  32
HETATM   32  N   UNL     1      -7.130   6.028  69.775  1.00  0.00    -0.070 N  
HETATM   33  H   UNL     1      -6.190   6.002  69.378  1.00  0.00     0.000 HD 
BRANCH  32  34
HETATM   34  C   UNL     1      -8.282   5.965  68.882  1.00  0.00    -0.103 C  
HETATM   35  C   UNL     1      -8.051   6.793  67.612  1.00  0.00    -0.116 C  
HETATM   36  C   UNL     1      -6.946   6.197  66.742  1.00  0.00    -0.071 C  
HETATM   37  C   UNL     1      -7.201   4.728  66.415  1.00  0.00    -0.077 C  
HETATM   38  C   UNL     1      -7.515   3.883  67.649  1.00  0.00    -0.067 C  
HETATM   39  C   UNL     1      -8.604   4.513  68.517  1.00  0.00    -0.105 C  
ENDBRANCH  32  34
ENDBRANCH  30  32
ENDBRANCH  28  30
ENDBRANCH  25  28
ENDBRANCH  22  25
ENDBRANCH  18  19
ENDBRANCH  17  18
ENDBRANCH  14  17
ENDBRANCH   2   3
TORSDOF 9
ENDMDL
MODEL      238
REMARK 921   NORMALIZED FREE ENERGY PREDICTED BY IDOCK:   -3.48 KCAL/MOL
REMARK 922        TOTAL FREE ENERGY PREDICTED BY IDOCK:   -7.46 KCAL/MOL
REMARK 923 INTER-LIGAND FREE ENERGY PREDICTED BY IDOCK:   -6.34 KCAL/MOL
REMARK 924 INTRA-LIGAND FREE ENERGY PREDICTED BY IDOCK:   -1.12 KCAL/MOL
REMARK 927      BINDING AFFINITY PREDICTED BY RF-SCORE:    0.00 PKD
ROOT
HETATM    1  C   UNL     1     -11.116   1.467  72.475  1.00  0.00     0.036 C  
HETATM    2  O   UNL     1     -10.558   2.326  73.467  1.00  0.00    -0.118 OA 
ENDROOT
BRANCH   2   3
HETATM    3  C   UNL     1     -10.458   3.642  73.112  1.00  0.00    -0.176 A  
HETATM    4  C   UNL     1     -10.340   4.107  71.807  1.00  0.00    -0.082 A  
HETATM    5  C   UNL     1     -10.290   5.485  71.556  1.00  0.00    -0.282 A  
HETATM    6  C   UNL     1     -10.302   6.418  72.605  1.00  0.00    -0.216 A  
HETATM    7  C   UNL     1     -10.461   5.935  73.913  1.00  0.00    -0.288 A  
HETATM    8  C   UNL     1     -10.209   7.910  72.303  1.00  0.00    -0.302 C  
HETATM    9  C   UNL     1      -9.817   8.161  70.839  1.00  0.00    -0.176 C  
HETATM   10  C   UNL     1     -11.603   8.557  72.463  1.00  0.00    -0.376 C  
HETATM   11  C   UNL     1      -9.207   8.628  73.223  1.00  0.00     0.192 C  
HETATM   12  C   UNL     1     -10.553   4.560  74.157  1.00  0.00    -0.335 A  
HETATM   13  O   UNL     1      -9.136   9.115  70.469  1.00  0.00    -0.199 OA 
HETATM   14  N   UNL     1     -10.447   7.301  69.959  1.00  0.00    -0.218 N  
HETATM   15  O   UNL     1     -10.441   5.117  69.235  1.00  0.00    -0.219 OA 
HETATM   16  C   UNL     1     -10.386   5.937  70.145  1.00  0.00    -0.241 C  
BRANCH  14  17
HETATM   17  C   UNL     1     -10.954   7.831  68.714  1.00  0.00     0.144 C  
BRANCH  17  18
HETATM   18  C   UNL     1      -9.952   8.531  67.796  1.00  0.00    -0.241 C  
BRANCH  18  19
HETATM   19  C   UNL     1     -10.476   9.877  67.325  1.00  0.00    -0.319 A  
HETATM   20  C   UNL     1     -10.161  10.396  66.057  1.00  0.00    -0.295 A  
HETATM   21  C   UNL     1     -10.602  11.661  65.667  1.00  0.00    -0.324 A  
HETATM   22  C   UNL     1     -11.395  12.405  66.534  1.00  0.00    -0.340 A  
HETATM   23  C   UNL     1     -11.299  10.632  68.173  1.00  0.00    -0.354 A  
HETATM   24  C   UNL     1     -11.747  11.898  67.785  1.00  0.00    -0.362 A  
BRANCH  22  25
HETATM   25  S   UNL     1     -11.908  14.030  66.045  1.00  0.00    -0.406 S  
HETATM   26  O   UNL     1     -10.977  14.556  65.070  1.00  0.00    -0.352 OA 
HETATM   27  O   UNL     1     -13.324  13.963  65.745  1.00  0.00    -0.534 OA 
BRANCH  25  28
HETATM   28  N   UNL     1     -11.804  14.903  67.453  1.00  0.00    -0.405 N  
HETATM   29  H   UNL     1     -12.662  15.052  67.985  1.00  0.00     0.000 HD 
BRANCH  28  30
HETATM   30  C   UNL     1     -10.635  15.440  67.954  1.00  0.00    -0.267 C  
HETATM   31  O   UNL     1     -10.592  16.401  68.705  1.00  0.00    -0.270 OA 
BRANCH  30  32
HETATM   32  N   UNL     1      -9.534  14.777  67.508  1.00  0.00    -0.196 N  
HETATM   33  H   UNL     1      -9.653  13.952  66.920  1.00  0.00     0.000 HD 
BRANCH  32  34
HETATM   34  C   UNL     1      -8.187  15.219  67.851  1.00  0.00    -0.145 C  
HETATM   35  C   UNL     1      -7.817  14.826  69.287  1.00  0.00    -0.122 C  
HETATM   36  C   UNL     1      -7.702  13.311  69.447  1.00  0.00     0.562 C  
HETATM   37  C   UNL     1      -6.740  12.697  68.432  1.00  0.00    -0.082 C  
HETATM   38  C   UNL     1      -7.025  13.130  66.995  1.00  0.00     0.361 C  
HETATM   39  C   UNL     1      -7.164  14.646  66.866  1.00  0.00     0.605 C  
ENDBRANCH  32  34
ENDBRANCH  30  32
ENDBRANCH  28  30
ENDBRANCH  25  28
ENDBRANCH  22  25
ENDBRANCH  18  19
ENDBRANCH  17  18
ENDBRANCH  14  17
ENDBRANCH   2   3
TORSDOF 9
ENDMDL
MODEL      239
REMARK 921   NORMALIZED FREE ENERGY PREDICTED BY IDOCK:   -3.48 KCAL/MOL
REMARK 922        TOTAL FREE ENERGY PREDICTED BY IDOCK:   -7.46 KCAL/MOL
REMARK 923 INTER-LIGAND FREE ENERGY PREDICTED BY IDOCK:   -6.88 KCAL/MOL
REMARK 924 INTRA-LIGAND FREE ENERGY PREDICTED BY IDOCK:   -0.58 KCAL/MOL
REMARK 927      BINDING AFFINITY PREDICTED BY RF-SCORE:    0.00 PKD
ROOT
HETATM    1  C   UNL     1      -5.286   9.510  73.412  1.00  0.00    -0.012 C  
HETATM    2  O   UNL     1      -5.834   8.417  74.145  1.00  0.00    -0.099 OA 
ENDROOT
BRANCH   2   3
HETATM    3  C   UNL     1      -6.958   7.857  73.605  1.00  0.00    -0.109 A  
HETATM    4  C   UNL     1      -8.004   8.568  73.030  1.00  0.00    -0.071 A  
HETATM    5  C   UNL     1      -9.089   7.885  72.465  1.00  0.00    -0.245 A  
HETATM    6  C   UNL     1      -9.175   6.484  72.514  1.00  0.00    -0.138 A  
HETATM    7  C   UNL     1      -8.093   5.779  73.062  1.00  0.00    -0.118 A  
HETATM    8  C   UNL     1     -10.386   5.771  71.924  1.00  0.00    -0.263 C  
HETATM    9  C   UNL     1     -11.515   6.760  71.598  1.00  0.00    -0.282 C  
HETATM   10  C   UNL     1     -10.002   5.137  70.568  1.00  0.00    -0.304 C  
HETATM   11  C   UNL     1     -10.929   4.677  72.860  1.00  0.00    -0.288 C  
HETATM   12  C   UNL     1      -6.991   6.462  73.587  1.00  0.00    -0.082 A  
HETATM   13  O   UNL     1     -12.710   6.482  71.678  1.00  0.00    -0.290 OA 
HETATM   14  N   UNL     1     -11.053   7.940  71.045  1.00  0.00    -0.246 N  
HETATM   15  O   UNL     1      -9.953   9.888  71.579  1.00  0.00     0.277 OA 
HETATM   16  C   UNL     1     -10.069   8.671  71.673  1.00  0.00    -0.294 C  
BRANCH  14  17
HETATM   17  C   UNL     1     -11.781   8.520  69.940  1.00  0.00     0.420 C  
BRANCH  17  18
HETATM   18  C   UNL     1     -11.000   8.781  68.652  1.00  0.00     0.091 C  
BRANCH  18  19
HETATM   19  C   UNL     1     -10.492  10.213  68.592  1.00  0.00    -0.225 A  
HETATM   20  C   UNL     1     -11.325  11.310  68.871  1.00  0.00    -0.340 A  
HETATM   21  C   UNL     1     -10.856  12.618  68.751  1.00  0.00    -0.267 A  
HETATM   22  C   UNL     1      -9.534  12.839  68.383  1.00  0.00    -0.162 A  
HETATM   23  C   UNL     1      -9.154  10.456  68.249  1.00  0.00    -0.145 A  
HETATM   24  C   UNL     1      -8.679  11.765  68.131  1.00  0.00    -0.168 A  
BRANCH  22  25
HETATM   25  S   UNL     1      -8.964  14.506  68.187  1.00  0.00    -0.188 S  
HETATM   26  O   UNL     1      -9.256  15.258  69.389  1.00  0.00    -0.246 OA 
HETATM   27  O   UNL     1      -7.611  14.442  67.673  1.00  0.00    -0.148 OA 
BRANCH  25  28
HETATM   28  N   UNL     1      -9.880  15.078  66.927  1.00  0.00    -0.233 N  
HETATM   29  H   UNL     1      -9.394  15.372  66.080  1.00  0.00     0.000 HD 
BRANCH  28  30
HETATM   30  C   UNL     1     -11.257  15.182  66.947  1.00  0.00    -0.292 C  
HETATM   31  O   UNL     1     -11.878  15.890  67.723  1.00  0.00    -0.046 OA 
BRANCH  30  32
HETATM   32  N   UNL     1     -11.843  14.395  66.003  1.00  0.00    -0.380 N  
HETATM   33  H   UNL     1     -12.688  13.875  66.242  1.00  0.00     0.000 HD 
BRANCH  32  34
HETATM   34  C   UNL     1     -11.292  14.280  64.657  1.00  0.00    -0.373 C  
HETATM   35  C   UNL     1      -9.985  13.477  64.655  1.00  0.00    -0.112 C  
HETATM   36  C   UNL     1     -10.221  12.014  65.025  1.00  0.00    -0.308 C  
HETATM   37  C   UNL     1     -11.282  11.361  64.143  1.00  0.00    -0.327 C  
HETATM   38  C   UNL     1     -12.573  12.173  64.054  1.00  0.00    -0.507 C  
HETATM   39  C   UNL     1     -12.309  13.639  63.710  1.00  0.00    -0.357 C  
ENDBRANCH  32  34
ENDBRANCH  30  32
ENDBRANCH  28  30
ENDBRANCH  25  28
ENDBRANCH  22  25
ENDBRANCH  18  19
ENDBRANCH  17  18
ENDBRANCH  14  17
ENDBRANCH   2   3
TORSDOF 9
ENDMDL
MODEL      240
REMARK 921   NORMALIZED FREE ENERGY PREDICTED BY IDOCK:   -3.41 KCAL/MOL
REMARK 922        TOTAL FREE ENERGY PREDICTED BY IDOCK:   -7.35 KCAL/MOL
REMARK 923 INTER-LIGAND FREE ENERGY PREDICTED BY IDOCK:   -6.86 KCAL/MOL
REMARK 924 INTRA-LIGAND FREE ENERGY PREDICTED BY IDOCK:   -0.49 KCAL/MOL
REMARK 927      BINDING AFFINITY PREDICTED BY RF-SCORE:    0.00 PKD
ROOT
HETATM    1  C   UNL     1      -8.425  19.879  66.293  1.00  0.00    -0.338 C  
HETATM    2  O   UNL     1      -7.948  18.819  65.468  1.00  0.00    -0.373 OA 
ENDROOT
BRANCH   2   3
HETATM    3  C   UNL     1      -7.830  17.605  66.085  1.00  0.00    -0.234 A  
HETATM    4  C   UNL     1      -8.776  16.589  66.029  1.00  0.00    -0.255 A  
HETATM    5  C   UNL     1      -8.529  15.365  66.665  1.00  0.00    -0.296 A  
HETATM    6  C   UNL     1      -7.358  15.154  67.411  1.00  0.00    -0.235 A  
HETATM    7  C   UNL     1      -6.395  16.174  67.424  1.00  0.00    -0.210 A  
HETATM    8  C   UNL     1      -7.134  13.824  68.122  1.00  0.00    -0.118 C  
HETATM    9  C   UNL     1      -8.415  12.976  68.143  1.00  0.00    -0.176 C  
HETATM   10  C   UNL     1      -6.107  12.982  67.331  1.00  0.00    -0.064 C  
HETATM   11  C   UNL     1      -6.631  14.013  69.564  1.00  0.00    -0.115 C  
HETATM   12  C   UNL     1      -6.627  17.380  66.754  1.00  0.00    -0.246 A  
HETATM   13  O   UNL     1      -8.714  12.215  69.060  1.00  0.00     0.164 OA 
HETATM   14  N   UNL     1      -9.114  13.030  66.951  1.00  0.00    -0.228 N  
HETATM   15  O   UNL     1     -10.450  14.414  65.690  1.00  0.00    -0.300 OA 
HETATM   16  C   UNL     1      -9.462  14.242  66.396  1.00  0.00    -0.275 C  
BRANCH  14  17
HETATM   17  C   UNL     1      -9.688  11.811  66.428  1.00  0.00    -0.214 C  
BRANCH  17  18
HETATM   18  C   UNL     1      -8.906  10.519  66.661  1.00  0.00    -0.145 C  
BRANCH  18  19
HETATM   19  C   UNL     1      -9.480   9.724  67.822  1.00  0.00    -0.152 A  
HETATM   20  C   UNL     1     -10.835   9.810  68.184  1.00  0.00    -0.264 A  
HETATM   21  C   UNL     1     -11.330   9.120  69.291  1.00  0.00     0.232 A  
HETATM   22  C   UNL     1     -10.475   8.306  70.027  1.00  0.00    -0.231 A  
HETATM   23  C   UNL     1      -8.641   8.877  68.561  1.00  0.00    -0.133 A  
HETATM   24  C   UNL     1      -9.133   8.180  69.668  1.00  0.00    -0.151 A  
BRANCH  22  25
HETATM   25  S   UNL     1     -11.105   7.472  71.458  1.00  0.00    -0.239 S  
HETATM   26  O   UNL     1     -11.296   8.429  72.528  1.00  0.00    -0.375 OA 
HETATM   27  O   UNL     1     -12.202   6.633  71.022  1.00  0.00    -0.367 OA 
BRANCH  25  28
HETATM   28  N   UNL     1      -9.885   6.419  71.855  1.00  0.00    -0.159 N  
HETATM   29  H   UNL     1      -8.929   6.691  71.627  1.00  0.00     0.000 HD 
BRANCH  28  30
HETATM   30  C   UNL     1     -10.076   5.199  72.472  1.00  0.00    -0.180 C  
HETATM   31  O   UNL     1     -10.330   5.065  73.658  1.00  0.00    -0.179 OA 
BRANCH  30  32
HETATM   32  N   UNL     1      -9.942   4.159  71.604  1.00  0.00    -0.184 N  
HETATM   33  H   UNL     1     -10.776   3.670  71.279  1.00  0.00     0.000 HD 
BRANCH  32  34
HETATM   34  C   UNL     1      -8.632   3.729  71.126  1.00  0.00    -0.076 C  
HETATM   35  C   UNL     1      -8.529   2.200  71.077  1.00  0.00    -0.082 C  
HETATM   36  C   UNL     1      -9.460   1.603  70.024  1.00  0.00    -0.139 C  
HETATM   37  C   UNL     1      -9.241   2.224  68.646  1.00  0.00    -0.227 C  
HETATM   38  C   UNL     1      -9.256   3.752  68.665  1.00  0.00    -0.216 C  
HETATM   39  C   UNL     1      -8.339   4.323  69.746  1.00  0.00    -0.077 C  
ENDBRANCH  32  34
ENDBRANCH  30  32
ENDBRANCH  28  30
ENDBRANCH  25  28
ENDBRANCH  22  25
ENDBRANCH  18  19
ENDBRANCH  17  18
ENDBRANCH  14  17
ENDBRANCH   2   3
TORSDOF 9
ENDMDL
MODEL      241
REMARK 921   NORMALIZED FREE ENERGY PREDICTED BY IDOCK:   -3.40 KCAL/MOL
REMARK 922        TOTAL FREE ENERGY PREDICTED BY IDOCK:   -7.33 KCAL/MOL
REMARK 923 INTER-LIGAND FREE ENERGY PREDICTED BY IDOCK:   -6.06 KCAL/MOL
REMARK 924 INTRA-LIGAND FREE ENERGY PREDICTED BY IDOCK:   -1.27 KCAL/MOL
REMARK 927      BINDING AFFINITY PREDICTED BY RF-SCORE:    0.00 PKD
ROOT
HETATM    1  C   UNL     1     -11.996  15.791  64.037  1.00  0.00     0.156 C  
HETATM    2  O   UNL     1     -12.556  14.486  63.916  1.00  0.00    -0.827 OA 
ENDROOT
BRANCH   2   3
HETATM    3  C   UNL     1     -12.022  13.541  64.747  1.00  0.00    -0.390 A  
HETATM    4  C   UNL     1     -11.260  12.455  64.330  1.00  0.00    -0.384 A  
HETATM    5  C   UNL     1     -10.724  11.572  65.277  1.00  0.00    -0.337 A  
HETATM    6  C   UNL     1     -10.984  11.726  66.648  1.00  0.00    -0.342 A  
HETATM    7  C   UNL     1     -11.721  12.848  67.055  1.00  0.00    -0.447 A  
HETATM    8  C   UNL     1     -10.417  10.727  67.651  1.00  0.00    -0.252 C  
HETATM    9  C   UNL     1      -9.850   9.485  66.945  1.00  0.00    -0.204 C  
HETATM   10  C   UNL     1      -9.212  11.358  68.384  1.00  0.00    -0.183 C  
HETATM   11  C   UNL     1     -11.465  10.284  68.686  1.00  0.00    -0.178 C  
HETATM   12  C   UNL     1     -12.220  13.752  66.111  1.00  0.00    -0.499 A  
HETATM   13  O   UNL     1      -9.877   8.355  67.428  1.00  0.00    -0.164 OA 
HETATM   14  N   UNL     1      -9.159   9.793  65.788  1.00  0.00    -0.165 N  
HETATM   15  O   UNL     1      -9.469  10.474  63.613  1.00  0.00    -0.253 OA 
HETATM   16  C   UNL     1      -9.743  10.562  64.806  1.00  0.00    -0.305 C  
BRANCH  14  17
HETATM   17  C   UNL     1      -7.922   9.098  65.514  1.00  0.00    -0.104 C  
BRANCH  17  18
HETATM   18  C   UNL     1      -8.021   7.771  64.761  1.00  0.00    -0.142 C  
BRANCH  18  19
HETATM   19  C   UNL     1      -7.800   6.588  65.690  1.00  0.00    -0.100 A  
HETATM   20  C   UNL     1      -8.598   5.433  65.626  1.00  0.00    -0.146 A  
HETATM   21  C   UNL     1      -8.419   4.384  66.527  1.00  0.00    -0.112 A  
HETATM   22  C   UNL     1      -7.411   4.468  67.482  1.00  0.00    -0.074 A  
HETATM   23  C   UNL     1      -6.772   6.642  66.643  1.00  0.00    -0.056 A  
HETATM   24  C   UNL     1      -6.586   5.591  67.545  1.00  0.00    -0.053 A  
BRANCH  22  25
HETATM   25  S   UNL     1      -7.225   3.149  68.651  1.00  0.00    -0.049 S  
HETATM   26  O   UNL     1      -8.289   2.185  68.464  1.00  0.00    -0.055 OA 
HETATM   27  O   UNL     1      -5.839   2.728  68.610  1.00  0.00    -0.022 OA 
BRANCH  25  28
HETATM   28  N   UNL     1      -7.403   3.909  70.116  1.00  0.00    -0.042 N  
HETATM   29  H   UNL     1      -6.633   3.847  70.782  1.00  0.00     0.000 HD 
BRANCH  28  30
HETATM   30  C   UNL     1      -8.525   4.619  70.496  1.00  0.00    -0.090 C  
HETATM   31  O   UNL     1      -8.618   5.834  70.430  1.00  0.00    -0.129 OA 
BRANCH  30  32
HETATM   32  N   UNL     1      -9.514   3.806  70.959  1.00  0.00    -0.156 N  
HETATM   33  H   UNL     1      -9.720   2.940  70.462  1.00  0.00     0.000 HD 
BRANCH  32  34
HETATM   34  C   UNL     1     -10.285   4.146  72.150  1.00  0.00    -0.150 C  
HETATM   35  C   UNL     1     -11.333   3.071  72.463  1.00  0.00     0.742 C  
HETATM   36  C   UNL     1     -10.684   1.751  72.874  1.00  0.00    -0.238 C  
HETATM   37  C   UNL     1      -9.701   1.928  74.028  1.00  0.00    -0.108 C  
HETATM   38  C   UNL     1      -8.688   3.047  73.789  1.00  0.00    -0.073 C  
HETATM   39  C   UNL     1      -9.360   4.349  73.353  1.00  0.00    -0.126 C  
ENDBRANCH  32  34
ENDBRANCH  30  32
ENDBRANCH  28  30
ENDBRANCH  25  28
ENDBRANCH  22  25
ENDBRANCH  18  19
ENDBRANCH  17  18
ENDBRANCH  14  17
ENDBRANCH   2   3
TORSDOF 9
ENDMDL
MODEL      242
REMARK 921   NORMALIZED FREE ENERGY PREDICTED BY IDOCK:   -3.37 KCAL/MOL
REMARK 922        TOTAL FREE ENERGY PREDICTED BY IDOCK:   -7.29 KCAL/MOL
REMARK 923 INTER-LIGAND FREE ENERGY PREDICTED BY IDOCK:   -5.11 KCAL/MOL
REMARK 924 INTRA-LIGAND FREE ENERGY PREDICTED BY IDOCK:   -2.18 KCAL/MOL
REMARK 927      BINDING AFFINITY PREDICTED BY RF-SCORE:    0.00 PKD
ROOT
HETATM    1  C   UNL     1      -9.251  12.314  66.684  1.00  0.00    -0.208 C  
HETATM    2  O   UNL     1      -7.934  12.311  67.228  1.00  0.00    -0.163 OA 
ENDROOT
BRANCH   2   3
HETATM    3  C   UNL     1      -7.730  11.443  68.264  1.00  0.00    -0.124 A  
HETATM    4  C   UNL     1      -8.734  10.748  68.928  1.00  0.00    -0.154 A  
HETATM    5  C   UNL     1      -8.405   9.847  69.949  1.00  0.00    -0.200 A  
HETATM    6  C   UNL     1      -7.074   9.664  70.360  1.00  0.00    -0.138 A  
HETATM    7  C   UNL     1      -6.070  10.343  69.654  1.00  0.00    -0.052 A  
HETATM    8  C   UNL     1      -6.751   8.704  71.499  1.00  0.00    -0.078 C  
HETATM    9  C   UNL     1      -8.022   8.269  72.244  1.00  0.00    -0.139 C  
HETATM   10  C   UNL     1      -6.157   7.399  70.921  1.00  0.00    -0.035 C  
HETATM   11  C   UNL     1      -5.758   9.310  72.507  1.00  0.00     0.006 C  
HETATM   12  C   UNL     1      -6.399  11.211  68.607  1.00  0.00    -0.044 A  
HETATM   13  O   UNL     1      -8.056   8.021  73.448  1.00  0.00    -0.159 OA 
HETATM   14  N   UNL     1      -9.085   8.025  71.395  1.00  0.00    -0.135 N  
HETATM   15  O   UNL     1     -10.631   9.089  70.066  1.00  0.00    -0.214 OA 
HETATM   16  C   UNL     1      -9.482   8.970  70.476  1.00  0.00    -0.221 C  
BRANCH  14  17
HETATM   17  C   UNL     1      -9.926   6.877  71.651  1.00  0.00    -0.171 C  
BRANCH  17  18
HETATM   18  C   UNL     1      -9.296   5.497  71.463  1.00  0.00    -0.172 C  
BRANCH  18  19
HETATM   19  C   UNL     1      -9.230   5.112  69.994  1.00  0.00    -0.180 A  
HETATM   20  C   UNL     1      -9.465   3.796  69.559  1.00  0.00    -0.257 A  
HETATM   21  C   UNL     1      -9.341   3.449  68.214  1.00  0.00    -0.239 A  
HETATM   22  C   UNL     1      -9.013   4.430  67.284  1.00  0.00    -0.120 A  
HETATM   23  C   UNL     1      -8.928   6.090  69.036  1.00  0.00    -0.124 A  
HETATM   24  C   UNL     1      -8.806   5.749  67.687  1.00  0.00    -0.105 A  
BRANCH  22  25
HETATM   25  S   UNL     1      -8.811   3.967  65.584  1.00  0.00    -0.128 S  
HETATM   26  O   UNL     1      -7.507   3.366  65.401  1.00  0.00    -0.074 OA 
HETATM   27  O   UNL     1     -10.009   3.257  65.185  1.00  0.00    -0.060 OA 
BRANCH  25  28
HETATM   28  N   UNL     1      -8.881   5.419  64.782  1.00  0.00    -0.316 N  
HETATM   29  H   UNL     1      -9.794   5.861  64.677  1.00  0.00     0.000 HD 
BRANCH  28  30
HETATM   30  C   UNL     1      -7.786   6.069  64.248  1.00  0.00    -0.105 C  
HETATM   31  O   UNL     1      -6.674   5.574  64.157  1.00  0.00    -0.040 OA 
BRANCH  30  32
HETATM   32  N   UNL     1      -8.089   7.332  63.841  1.00  0.00    -0.312 N  
HETATM   33  H   UNL     1      -8.007   7.570  62.852  1.00  0.00     0.000 HD 
BRANCH  32  34
HETATM   34  C   UNL     1      -8.530   8.353  64.785  1.00  0.00    -0.101 C  
HETATM   35  C   UNL     1      -7.524   8.528  65.929  1.00  0.00    -0.077 C  
HETATM   36  C   UNL     1      -6.200   9.108  65.434  1.00  0.00    -0.063 C  
HETATM   37  C   UNL     1      -6.397  10.407  64.656  1.00  0.00    -0.066 C  
HETATM   38  C   UNL     1      -7.452  10.296  63.557  1.00  0.00    -0.098 C  
HETATM   39  C   UNL     1      -8.757   9.688  64.071  1.00  0.00    -0.240 C  
ENDBRANCH  32  34
ENDBRANCH  30  32
ENDBRANCH  28  30
ENDBRANCH  25  28
ENDBRANCH  22  25
ENDBRANCH  18  19
ENDBRANCH  17  18
ENDBRANCH  14  17
ENDBRANCH   2   3
TORSDOF 9
ENDMDL
MODEL      243
REMARK 921   NORMALIZED FREE ENERGY PREDICTED BY IDOCK:   -3.37 KCAL/MOL
REMARK 922        TOTAL FREE ENERGY PREDICTED BY IDOCK:   -7.29 KCAL/MOL
REMARK 923 INTER-LIGAND FREE ENERGY PREDICTED BY IDOCK:   -5.97 KCAL/MOL
REMARK 924 INTRA-LIGAND FREE ENERGY PREDICTED BY IDOCK:   -1.31 KCAL/MOL
REMARK 927      BINDING AFFINITY PREDICTED BY RF-SCORE:    0.00 PKD
ROOT
HETATM    1  C   UNL     1      -8.762  12.514  67.298  1.00  0.00    -0.193 C  
HETATM    2  O   UNL     1      -9.994  12.921  67.888  1.00  0.00    -0.219 OA 
ENDROOT
BRANCH   2   3
HETATM    3  C   UNL     1     -10.588  11.995  68.700  1.00  0.00    -0.229 A  
HETATM    4  C   UNL     1     -10.047  10.755  69.019  1.00  0.00    -0.225 A  
HETATM    5  C   UNL     1     -10.724   9.901  69.901  1.00  0.00    -0.318 A  
HETATM    6  C   UNL     1     -11.976  10.248  70.435  1.00  0.00    -0.391 A  
HETATM    7  C   UNL     1     -12.489  11.518  70.134  1.00  0.00    -0.239 A  
HETATM    8  C   UNL     1     -12.706   9.282  71.362  1.00  0.00    -0.402 C  
HETATM    9  C   UNL     1     -12.053   7.891  71.348  1.00  0.00    -0.307 C  
HETATM   10  C   UNL     1     -12.578   9.773  72.821  1.00  0.00     0.670 C  
HETATM   11  C   UNL     1     -14.195   9.143  71.001  1.00  0.00     0.117 C  
HETATM   12  C   UNL     1     -11.791  12.385  69.287  1.00  0.00    -0.361 A  
HETATM   13  O   UNL     1     -12.679   6.843  71.487  1.00  0.00    -0.370 OA 
HETATM   14  N   UNL     1     -10.672   7.946  71.332  1.00  0.00    -0.222 N  
HETATM   15  O   UNL     1      -8.888   8.427  69.962  1.00  0.00    -0.134 OA 
HETATM   16  C   UNL     1     -10.010   8.692  70.382  1.00  0.00    -0.187 C  
BRANCH  14  17
HETATM   17  C   UNL     1      -9.932   7.022  72.161  1.00  0.00    -0.165 C  
BRANCH  17  18
HETATM   18  C   UNL     1     -10.125   5.531  71.885  1.00  0.00    -0.239 C  
BRANCH  18  19
HETATM   19  C   UNL     1      -9.471   5.119  70.576  1.00  0.00    -0.229 A  
HETATM   20  C   UNL     1      -8.083   4.920  70.469  1.00  0.00    -0.084 A  
HETATM   21  C   UNL     1      -7.494   4.602  69.246  1.00  0.00    -0.056 A  
HETATM   22  C   UNL     1      -8.297   4.446  68.121  1.00  0.00    -0.093 A  
HETATM   23  C   UNL     1     -10.265   4.931  69.436  1.00  0.00    -0.229 A  
HETATM   24  C   UNL     1      -9.680   4.609  68.209  1.00  0.00    -0.193 A  
BRANCH  22  25
HETATM   25  S   UNL     1      -7.531   4.090  66.563  1.00  0.00    -0.085 S  
HETATM   26  O   UNL     1      -6.157   4.543  66.587  1.00  0.00    -0.029 OA 
HETATM   27  O   UNL     1      -7.844   2.714  66.233  1.00  0.00    -0.078 OA 
BRANCH  25  28
HETATM   28  N   UNL     1      -8.408   5.003  65.488  1.00  0.00    -0.121 N  
HETATM   29  H   UNL     1      -9.375   5.220  65.727  1.00  0.00     0.000 HD 
BRANCH  28  30
HETATM   30  C   UNL     1      -7.916   5.489  64.293  1.00  0.00    -0.120 C  
HETATM   31  O   UNL     1      -7.148   4.875  63.570  1.00  0.00    -0.046 OA 
BRANCH  30  32
HETATM   32  N   UNL     1      -8.382   6.738  64.018  1.00  0.00    -0.338 N  
HETATM   33  H   UNL     1      -9.383   6.877  63.882  1.00  0.00     0.000 HD 
BRANCH  32  34
HETATM   34  C   UNL     1      -7.482   7.882  63.915  1.00  0.00    -0.110 C  
HETATM   35  C   UNL     1      -8.193   9.099  63.310  1.00  0.00    -0.177 C  
HETATM   36  C   UNL     1      -9.281   9.637  64.237  1.00  0.00    -0.235 C  
HETATM   37  C   UNL     1      -8.748   9.937  65.636  1.00  0.00    -0.168 C  
HETATM   38  C   UNL     1      -7.962   8.775  66.242  1.00  0.00    -0.106 C  
HETATM   39  C   UNL     1      -6.899   8.236  65.285  1.00  0.00    -0.059 C  
ENDBRANCH  32  34
ENDBRANCH  30  32
ENDBRANCH  28  30
ENDBRANCH  25  28
ENDBRANCH  22  25
ENDBRANCH  18  19
ENDBRANCH  17  18
ENDBRANCH  14  17
ENDBRANCH   2   3
TORSDOF 9
ENDMDL
MODEL      244
REMARK 921   NORMALIZED FREE ENERGY PREDICTED BY IDOCK:   -3.35 KCAL/MOL
REMARK 922        TOTAL FREE ENERGY PREDICTED BY IDOCK:   -7.27 KCAL/MOL
REMARK 923 INTER-LIGAND FREE ENERGY PREDICTED BY IDOCK:   -6.14 KCAL/MOL
REMARK 924 INTRA-LIGAND FREE ENERGY PREDICTED BY IDOCK:   -1.13 KCAL/MOL
REMARK 927      BINDING AFFINITY PREDICTED BY RF-SCORE:    0.00 PKD
ROOT
HETATM    1  C   UNL     1      -7.575   1.678  71.589  1.00  0.00    -0.040 C  
HETATM    2  O   UNL     1      -7.573   2.631  72.648  1.00  0.00    -0.046 OA 
ENDROOT
BRANCH   2   3
HETATM    3  C   UNL     1      -8.267   3.782  72.401  1.00  0.00    -0.088 A  
HETATM    4  C   UNL     1      -7.862   4.782  71.526  1.00  0.00    -0.100 A  
HETATM    5  C   UNL     1      -8.679   5.902  71.315  1.00  0.00    -0.132 A  
HETATM    6  C   UNL     1      -9.886   6.067  72.014  1.00  0.00    -0.177 A  
HETATM    7  C   UNL     1     -10.299   5.030  72.864  1.00  0.00    -0.238 A  
HETATM    8  C   UNL     1     -10.734   7.314  71.791  1.00  0.00    -0.243 C  
HETATM    9  C   UNL     1      -9.963   8.383  71.003  1.00  0.00    -0.190 C  
HETATM   10  C   UNL     1     -11.950   6.959  70.906  1.00  0.00    -0.430 C  
HETATM   11  C   UNL     1     -11.230   7.923  73.114  1.00  0.00    -0.209 C  
HETATM   12  C   UNL     1      -9.502   3.894  73.040  1.00  0.00    -0.144 A  
HETATM   13  O   UNL     1     -10.113   9.592  71.167  1.00  0.00    -0.288 OA 
HETATM   14  N   UNL     1      -9.207   7.851  69.975  1.00  0.00    -0.153 N  
HETATM   15  O   UNL     1      -7.291   6.646  69.564  1.00  0.00    -0.086 OA 
HETATM   16  C   UNL     1      -8.313   6.831  70.216  1.00  0.00    -0.134 C  
BRANCH  14  17
HETATM   17  C   UNL     1      -9.182   8.540  68.704  1.00  0.00    -0.142 C  
BRANCH  17  18
HETATM   18  C   UNL     1     -10.523   8.749  68.000  1.00  0.00    -0.260 C  
BRANCH  18  19
HETATM   19  C   UNL     1     -10.554  10.069  67.248  1.00  0.00    -0.319 A  
HETATM   20  C   UNL     1     -11.247  11.189  67.740  1.00  0.00    -0.359 A  
HETATM   21  C   UNL     1     -11.316  12.373  67.006  1.00  0.00    -0.388 A  
HETATM   22  C   UNL     1     -10.658  12.457  65.783  1.00  0.00    -0.256 A  
HETATM   23  C   UNL     1      -9.876  10.184  66.026  1.00  0.00    -0.308 A  
HETATM   24  C   UNL     1      -9.938  11.370  65.289  1.00  0.00    -0.303 A  
BRANCH  22  25
HETATM   25  S   UNL     1     -10.793  13.951  64.838  1.00  0.00    -0.425 S  
HETATM   26  O   UNL     1     -10.369  13.699  63.477  1.00  0.00     0.591 OA 
HETATM   27  O   UNL     1     -12.099  14.516  65.106  1.00  0.00    -0.383 OA 
BRANCH  25  28
HETATM   28  N   UNL     1      -9.717  14.973  65.584  1.00  0.00    -0.402 N  
HETATM   29  H   UNL     1      -9.490  15.850  65.114  1.00  0.00     0.000 HD 
BRANCH  28  30
HETATM   30  C   UNL     1      -9.109  14.717  66.797  1.00  0.00    -0.264 C  
HETATM   31  O   UNL     1      -9.363  15.317  67.828  1.00  0.00    -0.194 OA 
BRANCH  30  32
HETATM   32  N   UNL     1      -8.187  13.720  66.707  1.00  0.00    -0.395 N  
HETATM   33  H   UNL     1      -8.340  12.958  66.045  1.00  0.00     0.000 HD 
BRANCH  32  34
HETATM   34  C   UNL     1      -6.986  13.715  67.534  1.00  0.00    -0.143 C  
HETATM   35  C   UNL     1      -7.302  13.305  68.978  1.00  0.00     0.036 C  
HETATM   36  C   UNL     1      -7.750  11.847  69.066  1.00  0.00     0.066 C  
HETATM   37  C   UNL     1      -6.745  10.897  68.420  1.00  0.00    -0.059 C  
HETATM   38  C   UNL     1      -6.342  11.317  67.008  1.00  0.00    -0.111 C  
HETATM   39  C   UNL     1      -5.924  12.786  66.940  1.00  0.00     0.578 C  
ENDBRANCH  32  34
ENDBRANCH  30  32
ENDBRANCH  28  30
ENDBRANCH  25  28
ENDBRANCH  22  25
ENDBRANCH  18  19
ENDBRANCH  17  18
ENDBRANCH  14  17
ENDBRANCH   2   3
TORSDOF 9
ENDMDL
MODEL      245
REMARK 921   NORMALIZED FREE ENERGY PREDICTED BY IDOCK:   -3.34 KCAL/MOL
REMARK 922        TOTAL FREE ENERGY PREDICTED BY IDOCK:   -7.24 KCAL/MOL
REMARK 923 INTER-LIGAND FREE ENERGY PREDICTED BY IDOCK:   -6.78 KCAL/MOL
REMARK 924 INTRA-LIGAND FREE ENERGY PREDICTED BY IDOCK:   -0.45 KCAL/MOL
REMARK 927      BINDING AFFINITY PREDICTED BY RF-SCORE:    0.00 PKD
ROOT
HETATM    1  C   UNL     1     -12.880  11.927  64.053  1.00  0.00    -0.171 C  
HETATM    2  O   UNL     1     -12.638  13.313  64.278  1.00  0.00    -0.617 OA 
ENDROOT
BRANCH   2   3
HETATM    3  C   UNL     1     -11.598  13.597  65.118  1.00  0.00    -0.319 A  
HETATM    4  C   UNL     1     -10.627  12.686  65.516  1.00  0.00    -0.301 A  
HETATM    5  C   UNL     1      -9.577  13.100  66.347  1.00  0.00    -0.259 A  
HETATM    6  C   UNL     1      -9.509  14.415  66.838  1.00  0.00    -0.268 A  
HETATM    7  C   UNL     1     -10.475  15.331  66.394  1.00  0.00    -0.307 A  
HETATM    8  C   UNL     1      -8.375  14.826  67.770  1.00  0.00    -0.166 C  
HETATM    9  C   UNL     1      -7.596  13.603  68.277  1.00  0.00    -0.130 C  
HETATM   10  C   UNL     1      -7.341  15.665  66.986  1.00  0.00    -0.203 C  
HETATM   11  C   UNL     1      -8.879  15.638  68.976  1.00  0.00    -0.243 C  
HETATM   12  C   UNL     1     -11.498  14.925  65.531  1.00  0.00    -0.307 A  
HETATM   13  O   UNL     1      -7.078  13.538  69.390  1.00  0.00    -0.024 OA 
HETATM   14  N   UNL     1      -7.392  12.650  67.296  1.00  0.00    -0.135 N  
HETATM   15  O   UNL     1      -8.485  11.031  66.082  1.00  0.00    -0.165 OA 
HETATM   16  C   UNL     1      -8.452  12.157  66.566  1.00  0.00    -0.026 C  
BRANCH  14  17
HETATM   17  C   UNL     1      -6.103  12.001  67.216  1.00  0.00    -0.147 C  
BRANCH  17  18
HETATM   18  C   UNL     1      -6.092  10.473  67.222  1.00  0.00    -0.054 C  
BRANCH  18  19
HETATM   19  C   UNL     1      -6.419   9.921  68.600  1.00  0.00    -0.046 A  
HETATM   20  C   UNL     1      -5.862  10.465  69.771  1.00  0.00    -0.049 A  
HETATM   21  C   UNL     1      -6.126   9.906  71.020  1.00  0.00    -0.055 A  
HETATM   22  C   UNL     1      -6.983   8.814  71.113  1.00  0.00    -0.082 A  
HETATM   23  C   UNL     1      -7.301   8.838  68.718  1.00  0.00    -0.083 A  
HETATM   24  C   UNL     1      -7.573   8.276  69.969  1.00  0.00    -0.072 A  
BRANCH  22  25
HETATM   25  S   UNL     1      -7.273   8.084  72.702  1.00  0.00    -0.102 S  
HETATM   26  O   UNL     1      -7.069   6.653  72.619  1.00  0.00    -0.078 OA 
HETATM   27  O   UNL     1      -6.549   8.872  73.679  1.00  0.00    -0.315 OA 
BRANCH  25  28
HETATM   28  N   UNL     1      -8.876   8.409  72.985  1.00  0.00    -0.215 N  
HETATM   29  H   UNL     1      -9.115   8.917  73.837  1.00  0.00     0.000 HD 
BRANCH  28  30
HETATM   30  C   UNL     1      -9.908   8.039  72.145  1.00  0.00    -0.223 C  
HETATM   31  O   UNL     1     -10.871   8.746  71.895  1.00  0.00    -0.314 OA 
BRANCH  30  32
HETATM   32  N   UNL     1      -9.729   6.791  71.633  1.00  0.00    -0.163 N  
HETATM   33  H   UNL     1      -8.850   6.564  71.169  1.00  0.00     0.000 HD 
BRANCH  32  34
HETATM   34  C   UNL     1     -10.766   5.770  71.734  1.00  0.00    -0.249 C  
HETATM   35  C   UNL     1     -10.293   4.432  71.151  1.00  0.00    -0.031 C  
HETATM   36  C   UNL     1      -9.167   3.821  71.983  1.00  0.00    -0.175 C  
HETATM   37  C   UNL     1      -9.547   3.688  73.456  1.00  0.00    -0.136 C  
HETATM   38  C   UNL     1     -10.101   4.980  74.053  1.00  0.00    -0.235 C  
HETATM   39  C   UNL     1     -11.206   5.588  73.189  1.00  0.00    -0.321 C  
ENDBRANCH  32  34
ENDBRANCH  30  32
ENDBRANCH  28  30
ENDBRANCH  25  28
ENDBRANCH  22  25
ENDBRANCH  18  19
ENDBRANCH  17  18
ENDBRANCH  14  17
ENDBRANCH   2   3
TORSDOF 9
ENDMDL
MODEL      246
REMARK 921   NORMALIZED FREE ENERGY PREDICTED BY IDOCK:   -3.31 KCAL/MOL
REMARK 922        TOTAL FREE ENERGY PREDICTED BY IDOCK:   -7.20 KCAL/MOL
REMARK 923 INTER-LIGAND FREE ENERGY PREDICTED BY IDOCK:   -4.44 KCAL/MOL
REMARK 924 INTRA-LIGAND FREE ENERGY PREDICTED BY IDOCK:   -2.75 KCAL/MOL
REMARK 927      BINDING AFFINITY PREDICTED BY RF-SCORE:    0.00 PKD
ROOT
HETATM    1  C   UNL     1      -6.448  11.928  69.833  1.00  0.00    -0.048 C  
HETATM    2  O   UNL     1      -5.598  10.784  69.881  1.00  0.00    -0.047 OA 
ENDROOT
BRANCH   2   3
HETATM    3  C   UNL     1      -6.069   9.737  70.622  1.00  0.00    -0.088 A  
HETATM    4  C   UNL     1      -7.362   9.231  70.552  1.00  0.00    -0.120 A  
HETATM    5  C   UNL     1      -7.723   8.121  71.328  1.00  0.00    -0.095 A  
HETATM    6  C   UNL     1      -6.817   7.531  72.224  1.00  0.00    -0.060 A  
HETATM    7  C   UNL     1      -5.505   8.028  72.253  1.00  0.00    -0.036 A  
HETATM    8  C   UNL     1      -7.250   6.347  73.081  1.00  0.00    -0.086 C  
HETATM    9  C   UNL     1      -8.772   6.147  73.032  1.00  0.00    -0.121 C  
HETATM   10  C   UNL     1      -6.654   5.045  72.502  1.00  0.00    -0.052 C  
HETATM   11  C   UNL     1      -6.809   6.499  74.548  1.00  0.00    -0.092 C  
HETATM   12  C   UNL     1      -5.135   9.110  71.447  1.00  0.00    -0.039 A  
HETATM   13  O   UNL     1      -9.436   5.724  73.976  1.00  0.00    -0.133 OA 
HETATM   14  N   UNL     1      -9.298   6.332  71.766  1.00  0.00    -0.151 N  
HETATM   15  O   UNL     1      -9.799   7.967  70.228  1.00  0.00    -0.183 OA 
HETATM   16  C   UNL     1      -9.037   7.485  71.059  1.00  0.00    -0.148 C  
BRANCH  14  17
HETATM   17  C   UNL     1     -10.317   5.420  71.299  1.00  0.00    -0.228 C  
BRANCH  17  18
HETATM   18  C   UNL     1      -9.851   4.218  70.477  1.00  0.00    -0.269 C  
BRANCH  18  19
HETATM   19  C   UNL     1      -9.161   4.655  69.195  1.00  0.00    -0.184 A  
HETATM   20  C   UNL     1      -9.885   4.987  68.037  1.00  0.00    -0.202 A  
HETATM   21  C   UNL     1      -9.232   5.327  66.853  1.00  0.00    -0.121 A  
HETATM   22  C   UNL     1      -7.842   5.373  66.828  1.00  0.00    -0.101 A  
HETATM   23  C   UNL     1      -7.762   4.734  69.157  1.00  0.00    -0.071 A  
HETATM   24  C   UNL     1      -7.102   5.078  67.974  1.00  0.00    -0.062 A  
BRANCH  22  25
HETATM   25  S   UNL     1      -7.023   5.760  65.304  1.00  0.00    -0.065 S  
HETATM   26  O   UNL     1      -5.893   4.873  65.126  1.00  0.00    -0.017 OA 
HETATM   27  O   UNL     1      -8.043   5.863  64.280  1.00  0.00    -0.126 OA 
BRANCH  25  28
HETATM   28  N   UNL     1      -6.489   7.313  65.542  1.00  0.00    -0.044 N  
HETATM   29  H   UNL     1      -6.016   7.525  66.421  1.00  0.00     0.000 HD 
BRANCH  28  30
HETATM   30  C   UNL     1      -6.640   8.340  64.630  1.00  0.00    -0.065 C  
HETATM   31  O   UNL     1      -5.997   8.436  63.598  1.00  0.00    -0.070 OA 
BRANCH  30  32
HETATM   32  N   UNL     1      -7.587   9.236  65.021  1.00  0.00    -0.105 N  
HETATM   33  H   UNL     1      -8.292   9.540  64.350  1.00  0.00     0.000 HD 
BRANCH  32  34
HETATM   34  C   UNL     1      -7.616   9.771  66.378  1.00  0.00    -0.099 C  
HETATM   35  C   UNL     1      -8.006  11.255  66.385  1.00  0.00    -0.125 C  
HETATM   36  C   UNL     1      -9.451  11.461  65.934  1.00  0.00    -0.251 C  
HETATM   37  C   UNL     1     -10.432  10.619  66.745  1.00  0.00    -0.303 C  
HETATM   38  C   UNL     1     -10.034   9.146  66.830  1.00  0.00    -0.322 C  
HETATM   39  C   UNL     1      -8.577   8.967  67.256  1.00  0.00    -0.119 C  
ENDBRANCH  32  34
ENDBRANCH  30  32
ENDBRANCH  28  30
ENDBRANCH  25  28
ENDBRANCH  22  25
ENDBRANCH  18  19
ENDBRANCH  17  18
ENDBRANCH  14  17
ENDBRANCH   2   3
TORSDOF 9
ENDMDL
MODEL      247
REMARK 921   NORMALIZED FREE ENERGY PREDICTED BY IDOCK:   -3.31 KCAL/MOL
REMARK 922        TOTAL FREE ENERGY PREDICTED BY IDOCK:   -7.19 KCAL/MOL
REMARK 923 INTER-LIGAND FREE ENERGY PREDICTED BY IDOCK:   -5.30 KCAL/MOL
REMARK 924 INTRA-LIGAND FREE ENERGY PREDICTED BY IDOCK:   -1.89 KCAL/MOL
REMARK 927      BINDING AFFINITY PREDICTED BY RF-SCORE:    0.00 PKD
ROOT
HETATM    1  C   UNL     1     -13.018  14.413  71.765  1.00  0.00    -0.345 C  
HETATM    2  O   UNL     1     -12.519  15.663  71.296  1.00  0.00    -0.386 OA 
ENDROOT
BRANCH   2   3
HETATM    3  C   UNL     1     -11.675  15.590  70.223  1.00  0.00    -0.346 A  
HETATM    4  C   UNL     1     -10.288  15.644  70.298  1.00  0.00    -0.205 A  
HETATM    5  C   UNL     1      -9.518  15.514  69.134  1.00  0.00    -0.246 A  
HETATM    6  C   UNL     1     -10.120  15.382  67.872  1.00  0.00    -0.226 A  
HETATM    7  C   UNL     1     -11.519  15.290  67.818  1.00  0.00    -0.312 A  
HETATM    8  C   UNL     1      -9.257  15.280  66.620  1.00  0.00    -0.302 C  
HETATM    9  C   UNL     1      -7.792  15.633  66.919  1.00  0.00    -0.223 C  
HETATM   10  C   UNL     1      -9.226  13.814  66.132  1.00  0.00    -0.022 C  
HETATM   11  C   UNL     1      -9.771  16.181  65.484  1.00  0.00    -0.123 C  
HETATM   12  C   UNL     1     -12.284  15.378  68.986  1.00  0.00    -0.167 A  
HETATM   13  O   UNL     1      -7.045  16.183  66.113  1.00  0.00     0.137 OA 
HETATM   14  N   UNL     1      -7.351  15.119  68.124  1.00  0.00    -0.105 N  
HETATM   15  O   UNL     1      -7.535  15.408  70.399  1.00  0.00     0.258 OA 
HETATM   16  C   UNL     1      -8.050  15.358  69.287  1.00  0.00    -0.246 C  
BRANCH  14  17
HETATM   17  C   UNL     1      -6.026  14.545  68.190  1.00  0.00    -0.136 C  
BRANCH  17  18
HETATM   18  C   UNL     1      -5.766  13.296  67.347  1.00  0.00     0.071 C  
BRANCH  18  19
HETATM   19  C   UNL     1      -6.375  12.059  67.986  1.00  0.00    -0.058 A  
HETATM   20  C   UNL     1      -7.010  11.063  67.224  1.00  0.00    -0.096 A  
HETATM   21  C   UNL     1      -7.616   9.966  67.834  1.00  0.00    -0.090 A  
HETATM   22  C   UNL     1      -7.559   9.836  69.218  1.00  0.00    -0.097 A  
HETATM   23  C   UNL     1      -6.305  11.895  69.377  1.00  0.00    -0.115 A  
HETATM   24  C   UNL     1      -6.907  10.795  69.994  1.00  0.00    -0.126 A  
BRANCH  22  25
HETATM   25  S   UNL     1      -8.374   8.462  69.986  1.00  0.00    -0.126 S  
HETATM   26  O   UNL     1      -7.382   7.552  70.520  1.00  0.00    -0.072 OA 
HETATM   27  O   UNL     1      -9.413   8.998  70.841  1.00  0.00    -0.221 OA 
BRANCH  25  28
HETATM   28  N   UNL     1      -9.178   7.742  68.725  1.00  0.00    -0.140 N  
HETATM   29  H   UNL     1      -9.158   8.209  67.818  1.00  0.00     0.000 HD 
BRANCH  28  30
HETATM   30  C   UNL     1      -9.873   6.552  68.819  1.00  0.00    -0.140 C  
HETATM   31  O   UNL     1     -11.084   6.476  68.948  1.00  0.00    -0.304 OA 
BRANCH  30  32
HETATM   32  N   UNL     1      -9.047   5.471  68.758  1.00  0.00    -0.116 N  
HETATM   33  H   UNL     1      -8.055   5.590  68.960  1.00  0.00     0.000 HD 
BRANCH  32  34
HETATM   34  C   UNL     1      -9.550   4.146  68.412  1.00  0.00    -0.125 C  
HETATM   35  C   UNL     1      -9.022   3.686  67.047  1.00  0.00    -0.159 C  
HETATM   36  C   UNL     1      -7.512   3.453  67.076  1.00  0.00    -0.075 C  
HETATM   37  C   UNL     1      -7.100   2.493  68.189  1.00  0.00    -0.048 C  
HETATM   38  C   UNL     1      -7.675   2.872  69.553  1.00  0.00    -0.045 C  
HETATM   39  C   UNL     1      -9.180   3.128  69.493  1.00  0.00    -0.222 C  
ENDBRANCH  32  34
ENDBRANCH  30  32
ENDBRANCH  28  30
ENDBRANCH  25  28
ENDBRANCH  22  25
ENDBRANCH  18  19
ENDBRANCH  17  18
ENDBRANCH  14  17
ENDBRANCH   2   3
TORSDOF 9
ENDMDL
MODEL      248
REMARK 921   NORMALIZED FREE ENERGY PREDICTED BY IDOCK:   -3.26 KCAL/MOL
REMARK 922        TOTAL FREE ENERGY PREDICTED BY IDOCK:   -7.12 KCAL/MOL
REMARK 923 INTER-LIGAND FREE ENERGY PREDICTED BY IDOCK:   -6.16 KCAL/MOL
REMARK 924 INTRA-LIGAND FREE ENERGY PREDICTED BY IDOCK:   -0.95 KCAL/MOL
REMARK 927      BINDING AFFINITY PREDICTED BY RF-SCORE:    0.00 PKD
ROOT
HETATM    1  C   UNL     1     -11.227   4.542  65.187  1.00  0.00     0.296 C  
HETATM    2  O   UNL     1     -11.166   5.244  66.426  1.00  0.00     0.002 OA 
ENDROOT
BRANCH   2   3
HETATM    3  C   UNL     1      -9.980   5.874  66.683  1.00  0.00    -0.174 A  
HETATM    4  C   UNL     1      -9.857   7.115  67.298  1.00  0.00    -0.217 A  
HETATM    5  C   UNL     1      -8.585   7.646  67.553  1.00  0.00    -0.119 A  
HETATM    6  C   UNL     1      -7.419   6.974  67.151  1.00  0.00    -0.095 A  
HETATM    7  C   UNL     1      -7.560   5.706  66.569  1.00  0.00    -0.092 A  
HETATM    8  C   UNL     1      -6.051   7.595  67.410  1.00  0.00    -0.049 C  
HETATM    9  C   UNL     1      -6.175   9.064  67.844  1.00  0.00    -0.051 C  
HETATM   10  C   UNL     1      -5.376   6.879  68.601  1.00  0.00    -0.017 C  
HETATM   11  C   UNL     1      -5.132   7.509  66.179  1.00  0.00    -0.024 C  
HETATM   12  C   UNL     1      -8.830   5.159  66.353  1.00  0.00    -0.120 A  
HETATM   13  O   UNL     1      -5.348   9.929  67.567  1.00  0.00    -0.035 OA 
HETATM   14  N   UNL     1      -7.224   9.279  68.718  1.00  0.00    -0.073 N  
HETATM   15  O   UNL     1      -9.519   9.408  68.806  1.00  0.00    -0.147 OA 
HETATM   16  C   UNL     1      -8.499   8.861  68.402  1.00  0.00    -0.129 C  
BRANCH  14  17
HETATM   17  C   UNL     1      -7.018  10.160  69.846  1.00  0.00    -0.133 C  
BRANCH  17  18
HETATM   18  C   UNL     1      -6.817  11.644  69.540  1.00  0.00    -0.051 C  
BRANCH  18  19
HETATM   19  C   UNL     1      -7.911  12.176  68.629  1.00  0.00    -0.063 A  
HETATM   20  C   UNL     1      -7.713  12.341  67.247  1.00  0.00    -0.161 A  
HETATM   21  C   UNL     1      -8.708  12.888  66.437  1.00  0.00     0.141 A  
HETATM   22  C   UNL     1      -9.928  13.244  67.001  1.00  0.00    -0.238 A  
HETATM   23  C   UNL     1      -9.158  12.516  69.172  1.00  0.00     0.680 A  
HETATM   24  C   UNL     1     -10.160  13.061  68.365  1.00  0.00    -0.225 A  
BRANCH  22  25
HETATM   25  S   UNL     1     -11.167  13.982  65.970  1.00  0.00    -0.316 S  
HETATM   26  O   UNL     1     -11.659  12.998  65.029  1.00  0.00    -0.307 OA 
HETATM   27  O   UNL     1     -12.085  14.690  66.838  1.00  0.00    -0.361 OA 
BRANCH  25  28
HETATM   28  N   UNL     1     -10.334  15.168  65.161  1.00  0.00    -0.390 N  
HETATM   29  H   UNL     1      -9.517  14.889  64.616  1.00  0.00     0.000 HD 
BRANCH  28  30
HETATM   30  C   UNL     1     -10.671  16.507  65.174  1.00  0.00    -0.244 C  
HETATM   31  O   UNL     1     -11.367  17.045  64.328  1.00  0.00    -1.191 OA 
BRANCH  30  32
HETATM   32  N   UNL     1     -10.129  17.161  66.238  1.00  0.00    -0.312 N  
HETATM   33  H   UNL     1      -9.536  16.647  66.889  1.00  0.00     0.000 HD 
BRANCH  32  34
HETATM   34  C   UNL     1     -10.377  18.580  66.467  1.00  0.00    -0.414 C  
HETATM   35  C   UNL     1     -10.735  18.855  67.934  1.00  0.00    -0.362 C  
HETATM   36  C   UNL     1      -9.553  18.588  68.863  1.00  0.00    -0.307 C  
HETATM   37  C   UNL     1      -8.302  19.353  68.438  1.00  0.00    -0.385 C  
HETATM   38  C   UNL     1      -7.958  19.169  66.961  1.00  0.00    -0.273 C  
HETATM   39  C   UNL     1      -9.163  19.415  66.053  1.00  0.00    -0.206 C  
ENDBRANCH  32  34
ENDBRANCH  30  32
ENDBRANCH  28  30
ENDBRANCH  25  28
ENDBRANCH  22  25
ENDBRANCH  18  19
ENDBRANCH  17  18
ENDBRANCH  14  17
ENDBRANCH   2   3
TORSDOF 9
ENDMDL
MODEL      249
REMARK 921   NORMALIZED FREE ENERGY PREDICTED BY IDOCK:   -3.21 KCAL/MOL
REMARK 922        TOTAL FREE ENERGY PREDICTED BY IDOCK:   -7.04 KCAL/MOL
REMARK 923 INTER-LIGAND FREE ENERGY PREDICTED BY IDOCK:   -5.65 KCAL/MOL
REMARK 924 INTRA-LIGAND FREE ENERGY PREDICTED BY IDOCK:   -1.39 KCAL/MOL
REMARK 927      BINDING AFFINITY PREDICTED BY RF-SCORE:    0.00 PKD
ROOT
HETATM    1  C   UNL     1     -12.689  14.025  63.781  1.00  0.00     0.369 C  
HETATM    2  O   UNL     1     -12.214  15.315  64.160  1.00  0.00    -0.606 OA 
ENDROOT
BRANCH   2   3
HETATM    3  C   UNL     1     -11.137  15.317  65.002  1.00  0.00    -0.426 A  
HETATM    4  C   UNL     1     -10.537  14.179  65.528  1.00  0.00    -0.335 A  
HETATM    5  C   UNL     1      -9.407  14.299  66.348  1.00  0.00    -0.270 A  
HETATM    6  C   UNL     1      -8.889  15.557  66.699  1.00  0.00    -0.325 A  
HETATM    7  C   UNL     1      -9.482  16.693  66.127  1.00  0.00    -0.319 A  
HETATM    8  C   UNL     1      -7.680  15.656  67.622  1.00  0.00    -0.176 C  
HETATM    9  C   UNL     1      -7.368  14.305  68.283  1.00  0.00    -0.124 C  
HETATM   10  C   UNL     1      -6.423  15.998  66.792  1.00  0.00     0.255 C  
HETATM   11  C   UNL     1      -7.871  16.720  68.717  1.00  0.00    -0.243 C  
HETATM   12  C   UNL     1     -10.585  16.568  65.276  1.00  0.00    -0.273 A  
HETATM   13  O   UNL     1      -6.901  14.191  69.415  1.00  0.00    -0.120 OA 
HETATM   14  N   UNL     1      -7.508  13.237  67.416  1.00  0.00    -0.154 N  
HETATM   15  O   UNL     1      -9.094  11.965  66.341  1.00  0.00    -0.211 OA 
HETATM   16  C   UNL     1      -8.674  13.058  66.705  1.00  0.00    -0.096 C  
BRANCH  14  17
HETATM   17  C   UNL     1      -6.521  12.182  67.451  1.00  0.00    -0.149 C  
BRANCH  17  18
HETATM   18  C   UNL     1      -6.841  10.904  66.675  1.00  0.00    -0.127 C  
BRANCH  18  19
HETATM   19  C   UNL     1      -6.705   9.672  67.555  1.00  0.00    -0.070 A  
HETATM   20  C   UNL     1      -6.160   8.470  67.072  1.00  0.00    -0.055 A  
HETATM   21  C   UNL     1      -6.100   7.332  67.876  1.00  0.00    -0.035 A  
HETATM   22  C   UNL     1      -6.555   7.399  69.188  1.00  0.00    -0.040 A  
HETATM   23  C   UNL     1      -7.133   9.726  68.889  1.00  0.00    -0.067 A  
HETATM   24  C   UNL     1      -7.072   8.590  69.700  1.00  0.00    -0.052 A  
BRANCH  22  25
HETATM   25  S   UNL     1      -6.517   5.934  70.185  1.00  0.00    -0.040 S  
HETATM   26  O   UNL     1      -5.909   4.856  69.434  1.00  0.00    -0.015 OA 
HETATM   27  O   UNL     1      -5.995   6.308  71.484  1.00  0.00    -0.030 OA 
BRANCH  25  28
HETATM   28  N   UNL     1      -8.124   5.605  70.443  1.00  0.00    -0.103 N  
HETATM   29  H   UNL     1      -8.596   6.103  71.198  1.00  0.00     0.000 HD 
BRANCH  28  30
HETATM   30  C   UNL     1      -8.866   4.705  69.704  1.00  0.00    -0.083 C  
HETATM   31  O   UNL     1      -9.301   3.654  70.145  1.00  0.00    -0.139 OA 
BRANCH  30  32
HETATM   32  N   UNL     1      -9.049   5.123  68.422  1.00  0.00    -0.110 N  
HETATM   33  H   UNL     1      -8.237   5.252  67.819  1.00  0.00     0.000 HD 
BRANCH  32  34
HETATM   34  C   UNL     1     -10.381   5.391  67.891  1.00  0.00    -0.160 C  
HETATM   35  C   UNL     1     -11.195   6.278  68.841  1.00  0.00    -0.387 C  
HETATM   36  C   UNL     1     -10.608   7.685  68.943  1.00  0.00    -0.176 C  
HETATM   37  C   UNL     1     -10.439   8.337  67.573  1.00  0.00    -0.325 C  
HETATM   38  C   UNL     1      -9.703   7.450  66.570  1.00  0.00    -0.225 C  
HETATM   39  C   UNL     1     -10.291   6.041  66.507  1.00  0.00    -0.209 C  
ENDBRANCH  32  34
ENDBRANCH  30  32
ENDBRANCH  28  30
ENDBRANCH  25  28
ENDBRANCH  22  25
ENDBRANCH  18  19
ENDBRANCH  17  18
ENDBRANCH  14  17
ENDBRANCH   2   3
TORSDOF 9
ENDMDL
MODEL      250
REMARK 921   NORMALIZED FREE ENERGY PREDICTED BY IDOCK:   -3.13 KCAL/MOL
REMARK 922        TOTAL FREE ENERGY PREDICTED BY IDOCK:   -6.92 KCAL/MOL
REMARK 923 INTER-LIGAND FREE ENERGY PREDICTED BY IDOCK:   -6.50 KCAL/MOL
REMARK 924 INTRA-LIGAND FREE ENERGY PREDICTED BY IDOCK:   -0.42 KCAL/MOL
REMARK 927      BINDING AFFINITY PREDICTED BY RF-SCORE:    0.00 PKD
ROOT
HETATM    1  C   UNL     1      -9.013   2.906  63.172  1.00  0.00    -0.091 C  
HETATM    2  O   UNL     1      -9.314   4.213  63.652  1.00  0.00    -0.140 OA 
ENDROOT
BRANCH   2   3
HETATM    3  C   UNL     1      -9.000   4.443  64.962  1.00  0.00    -0.145 A  
HETATM    4  C   UNL     1      -8.640   5.677  65.489  1.00  0.00    -0.151 A  
HETATM    5  C   UNL     1      -8.382   5.805  66.860  1.00  0.00    -0.108 A  
HETATM    6  C   UNL     1      -8.427   4.694  67.718  1.00  0.00    -0.103 A  
HETATM    7  C   UNL     1      -8.830   3.463  67.178  1.00  0.00    -0.150 A  
HETATM    8  C   UNL     1      -8.105   4.858  69.199  1.00  0.00    -0.079 C  
HETATM    9  C   UNL     1      -7.480   6.231  69.488  1.00  0.00    -0.093 C  
HETATM   10  C   UNL     1      -9.415   4.831  70.018  1.00  0.00    -0.240 C  
HETATM   11  C   UNL     1      -7.162   3.756  69.715  1.00  0.00    -0.042 C  
HETATM   12  C   UNL     1      -9.128   3.347  65.816  1.00  0.00    -0.152 A  
HETATM   13  O   UNL     1      -6.639   6.427  70.363  1.00  0.00    -0.045 OA 
HETATM   14  N   UNL     1      -8.081   7.255  68.779  1.00  0.00    -0.123 N  
HETATM   15  O   UNL     1      -8.246   8.148  66.666  1.00  0.00    -0.100 OA 
HETATM   16  C   UNL     1      -8.218   7.174  67.411  1.00  0.00    -0.116 C  
BRANCH  14  17
HETATM   17  C   UNL     1      -8.334   8.508  69.453  1.00  0.00    -0.119 C  
BRANCH  17  18
HETATM   18  C   UNL     1      -7.712   9.764  68.842  1.00  0.00    -0.082 C  
BRANCH  18  19
HETATM   19  C   UNL     1      -8.756  10.845  68.613  1.00  0.00    -0.154 A  
HETATM   20  C   UNL     1      -8.517  11.942  67.767  1.00  0.00    -0.154 A  
HETATM   21  C   UNL     1      -9.464  12.955  67.618  1.00  0.00    -0.197 A  
HETATM   22  C   UNL     1     -10.678  12.861  68.289  1.00  0.00    -0.244 A  
HETATM   23  C   UNL     1      -9.997  10.755  69.260  1.00  0.00    -0.182 A  
HETATM   24  C   UNL     1     -10.951  11.766  69.110  1.00  0.00    -0.261 A  
BRANCH  22  25
HETATM   25  S   UNL     1     -11.853  14.178  68.128  1.00  0.00    -0.336 S  
HETATM   26  O   UNL     1     -12.492  14.097  66.832  1.00  0.00    -0.359 OA 
HETATM   27  O   UNL     1     -12.650  14.196  69.338  1.00  0.00    -0.192 OA 
BRANCH  25  28
HETATM   28  N   UNL     1     -10.911  15.542  68.209  1.00  0.00    -0.291 N  
HETATM   29  H   UNL     1     -11.031  16.247  67.481  1.00  0.00     0.000 HD 
BRANCH  28  30
HETATM   30  C   UNL     1      -9.976  15.789  69.194  1.00  0.00    -0.241 C  
HETATM   31  O   UNL     1     -10.184  15.637  70.387  1.00  0.00    -0.244 OA 
BRANCH  30  32
HETATM   32  N   UNL     1      -8.794  16.228  68.681  1.00  0.00    -0.215 N  
HETATM   33  H   UNL     1      -7.948  16.156  69.245  1.00  0.00     0.000 HD 
BRANCH  32  34
HETATM   34  C   UNL     1      -8.711  16.798  67.340  1.00  0.00    -0.191 C  
HETATM   35  C   UNL     1      -8.679  18.331  67.386  1.00  0.00    -0.257 C  
HETATM   36  C   UNL     1      -7.395  18.850  68.029  1.00  0.00    -0.274 C  
HETATM   37  C   UNL     1      -6.145  18.283  67.360  1.00  0.00    -0.179 C  
HETATM   38  C   UNL     1      -6.176  16.761  67.222  1.00  0.00    -0.207 C  
HETATM   39  C   UNL     1      -7.481  16.264  66.601  1.00  0.00    -0.238 C  
ENDBRANCH  32  34
ENDBRANCH  30  32
ENDBRANCH  28  30
ENDBRANCH  25  28
ENDBRANCH  22  25
ENDBRANCH  18  19
ENDBRANCH  17  18
ENDBRANCH  14  17
ENDBRANCH   2   3
TORSDOF 9
ENDMDL
MODEL      251
REMARK 921   NORMALIZED FREE ENERGY PREDICTED BY IDOCK:   -3.07 KCAL/MOL
REMARK 922        TOTAL FREE ENERGY PREDICTED BY IDOCK:   -6.84 KCAL/MOL
REMARK 923 INTER-LIGAND FREE ENERGY PREDICTED BY IDOCK:   -5.91 KCAL/MOL
REMARK 924 INTRA-LIGAND FREE ENERGY PREDICTED BY IDOCK:   -0.93 KCAL/MOL
REMARK 927      BINDING AFFINITY PREDICTED BY RF-SCORE:    0.00 PKD
ROOT
HETATM    1  C   UNL     1      -6.818  20.320  67.992  1.00  0.00    -0.300 C  
HETATM    2  O   UNL     1      -7.654  20.139  66.852  1.00  0.00    -0.270 OA 
ENDROOT
BRANCH   2   3
HETATM    3  C   UNL     1      -8.297  18.935  66.784  1.00  0.00    -0.281 A  
HETATM    4  C   UNL     1      -7.681  17.696  66.913  1.00  0.00    -0.245 A  
HETATM    5  C   UNL     1      -8.448  16.524  66.872  1.00  0.00    -0.244 A  
HETATM    6  C   UNL     1      -9.834  16.566  66.648  1.00  0.00    -0.279 A  
HETATM    7  C   UNL     1     -10.446  17.826  66.560  1.00  0.00    -0.297 A  
HETATM    8  C   UNL     1     -10.637  15.272  66.572  1.00  0.00    -0.304 C  
HETATM    9  C   UNL     1      -9.716  14.047  66.470  1.00  0.00    -0.295 C  
HETATM   10  C   UNL     1     -11.425  15.075  67.886  1.00  0.00    -0.354 C  
HETATM   11  C   UNL     1     -11.617  15.266  65.386  1.00  0.00    -0.102 C  
HETATM   12  C   UNL     1      -9.684  18.995  66.643  1.00  0.00    -0.383 A  
HETATM   13  O   UNL     1     -10.003  13.027  65.846  1.00  0.00    -0.275 OA 
HETATM   14  N   UNL     1      -8.604  14.141  67.287  1.00  0.00    -0.208 N  
HETATM   15  O   UNL     1      -6.585  15.223  67.490  1.00  0.00    -0.165 OA 
HETATM   16  C   UNL     1      -7.783  15.246  67.231  1.00  0.00    -0.211 C  
BRANCH  14  17
HETATM   17  C   UNL     1      -8.177  12.967  68.014  1.00  0.00    -0.168 C  
BRANCH  17  18
HETATM   18  C   UNL     1      -6.888  12.291  67.549  1.00  0.00    -0.135 C  
BRANCH  18  19
HETATM   19  C   UNL     1      -7.123  10.831  67.194  1.00  0.00    -0.099 A  
HETATM   20  C   UNL     1      -6.467   9.787  67.868  1.00  0.00    -0.060 A  
HETATM   21  C   UNL     1      -6.649   8.458  67.488  1.00  0.00    -0.058 A  
HETATM   22  C   UNL     1      -7.522   8.159  66.448  1.00  0.00    -0.087 A  
HETATM   23  C   UNL     1      -8.020  10.507  66.166  1.00  0.00    -0.147 A  
HETATM   24  C   UNL     1      -8.209   9.176  65.784  1.00  0.00    -0.115 A  
BRANCH  22  25
HETATM   25  S   UNL     1      -7.709   6.470  65.943  1.00  0.00    -0.095 S  
HETATM   26  O   UNL     1      -8.899   6.340  65.128  1.00  0.00    -0.028 OA 
HETATM   27  O   UNL     1      -6.425   6.025  65.441  1.00  0.00    -0.040 OA 
BRANCH  25  28
HETATM   28  N   UNL     1      -7.917   5.663  67.378  1.00  0.00    -0.101 N  
HETATM   29  H   UNL     1      -7.836   6.200  68.242  1.00  0.00     0.000 HD 
BRANCH  28  30
HETATM   30  C   UNL     1      -8.193   4.314  67.483  1.00  0.00    -0.099 C  
HETATM   31  O   UNL     1      -9.214   3.862  67.976  1.00  0.00    -0.137 OA 
BRANCH  30  32
HETATM   32  N   UNL     1      -7.190   3.546  66.978  1.00  0.00    -0.062 N  
HETATM   33  H   UNL     1      -6.237   3.909  66.975  1.00  0.00     0.000 HD 
BRANCH  32  34
HETATM   34  C   UNL     1      -7.446   2.213  66.441  1.00  0.00    -0.062 C  
HETATM   35  C   UNL     1      -8.294   2.278  65.164  1.00  0.00    -0.092 C  
HETATM   36  C   UNL     1      -7.535   2.939  64.015  1.00  0.00    -0.067 C  
HETATM   37  C   UNL     1      -6.185   2.274  63.760  1.00  0.00    -0.014 C  
HETATM   38  C   UNL     1      -5.342   2.117  65.024  1.00  0.00    -0.008 C  
HETATM   39  C   UNL     1      -6.131   1.479  66.167  1.00  0.00    -0.019 C  
ENDBRANCH  32  34
ENDBRANCH  30  32
ENDBRANCH  28  30
ENDBRANCH  25  28
ENDBRANCH  22  25
ENDBRANCH  18  19
ENDBRANCH  17  18
ENDBRANCH  14  17
ENDBRANCH   2   3
TORSDOF 9
ENDMDL
MODEL      252
REMARK 921   NORMALIZED FREE ENERGY PREDICTED BY IDOCK:   -3.02 KCAL/MOL
REMARK 922        TOTAL FREE ENERGY PREDICTED BY IDOCK:   -6.76 KCAL/MOL
REMARK 923 INTER-LIGAND FREE ENERGY PREDICTED BY IDOCK:   -7.25 KCAL/MOL
REMARK 924 INTRA-LIGAND FREE ENERGY PREDICTED BY IDOCK:    0.49 KCAL/MOL
REMARK 927      BINDING AFFINITY PREDICTED BY RF-SCORE:    0.00 PKD
ROOT
HETATM    1  C   UNL     1     -11.647  15.669  65.003  1.00  0.00    -0.079 C  
HETATM    2  O   UNL     1     -11.204  14.509  65.702  1.00  0.00    -0.320 OA 
ENDROOT
BRANCH   2   3
HETATM    3  C   UNL     1     -11.578  14.438  67.015  1.00  0.00    -0.384 A  
HETATM    4  C   UNL     1     -11.993  13.280  67.662  1.00  0.00    -0.366 A  
HETATM    5  C   UNL     1     -12.311  13.315  69.026  1.00  0.00     0.020 A  
HETATM    6  C   UNL     1     -12.272  14.516  69.754  1.00  0.00    -0.360 A  
HETATM    7  C   UNL     1     -11.813  15.668  69.096  1.00  0.00    -0.378 A  
HETATM    8  C   UNL     1     -12.659  14.530  71.228  1.00  0.00    -0.415 C  
HETATM    9  C   UNL     1     -13.332  13.213  71.643  1.00  0.00    -0.308 C  
HETATM   10  C   UNL     1     -11.384  14.621  72.096  1.00  0.00     0.405 C  
HETATM   11  C   UNL     1     -13.592  15.704  71.573  1.00  0.00    -0.466 C  
HETATM   12  C   UNL     1     -11.456  15.620  67.744  1.00  0.00    -0.209 A  
HETATM   13  O   UNL     1     -14.214  13.137  72.496  1.00  0.00    -0.654 OA 
HETATM   14  N   UNL     1     -12.731  12.102  71.082  1.00  0.00    -0.322 N  
HETATM   15  O   UNL     1     -12.503  10.969  69.093  1.00  0.00    -0.432 OA 
HETATM   16  C   UNL     1     -12.534  12.022  69.720  1.00  0.00     0.086 C  
BRANCH  14  17
HETATM   17  C   UNL     1     -12.539  10.928  71.903  1.00  0.00    -0.120 C  
BRANCH  17  18
HETATM   18  C   UNL     1     -12.845   9.574  71.263  1.00  0.00    -0.414 C  
BRANCH  18  19
HETATM   19  C   UNL     1     -11.578   8.900  70.760  1.00  0.00    -0.301 A  
HETATM   20  C   UNL     1     -10.351   9.580  70.690  1.00  0.00    -0.369 A  
HETATM   21  C   UNL     1      -9.214   8.963  70.169  1.00  0.00    -0.195 A  
HETATM   22  C   UNL     1      -9.289   7.642  69.743  1.00  0.00    -0.150 A  
HETATM   23  C   UNL     1     -11.626   7.559  70.351  1.00  0.00    -0.172 A  
HETATM   24  C   UNL     1     -10.489   6.935  69.831  1.00  0.00    -0.239 A  
BRANCH  22  25
HETATM   25  S   UNL     1      -7.850   6.884  69.038  1.00  0.00    -0.113 S  
HETATM   26  O   UNL     1      -6.725   7.788  69.152  1.00  0.00    -0.046 OA 
HETATM   27  O   UNL     1      -7.766   5.539  69.570  1.00  0.00    -0.079 OA 
BRANCH  25  28
HETATM   28  N   UNL     1      -8.261   6.694  67.441  1.00  0.00    -0.120 N  
HETATM   29  H   UNL     1      -7.937   5.854  66.963  1.00  0.00     0.000 HD 
BRANCH  28  30
HETATM   30  C   UNL     1      -9.012   7.598  66.716  1.00  0.00    -0.144 C  
HETATM   31  O   UNL     1     -10.145   7.380  66.317  1.00  0.00    -0.063 OA 
BRANCH  30  32
HETATM   32  N   UNL     1      -8.339   8.759  66.490  1.00  0.00    -0.110 N  
HETATM   33  H   UNL     1      -8.677   9.622  66.916  1.00  0.00     0.000 HD 
BRANCH  32  34
HETATM   34  C   UNL     1      -7.144   8.797  65.654  1.00  0.00    -0.083 C  
HETATM   35  C   UNL     1      -7.186   7.714  64.569  1.00  0.00    -0.076 C  
HETATM   36  C   UNL     1      -8.293   7.977  63.549  1.00  0.00     0.044 C  
HETATM   37  C   UNL     1      -8.195   9.374  62.942  1.00  0.00    -0.165 C  
HETATM   38  C   UNL     1      -8.070  10.478  63.991  1.00  0.00    -0.023 C  
HETATM   39  C   UNL     1      -6.976  10.179  65.015  1.00  0.00    -0.135 C  
ENDBRANCH  32  34
ENDBRANCH  30  32
ENDBRANCH  28  30
ENDBRANCH  25  28
ENDBRANCH  22  25
ENDBRANCH  18  19
ENDBRANCH  17  18
ENDBRANCH  14  17
ENDBRANCH   2   3
TORSDOF 9
ENDMDL
MODEL      253
REMARK 921   NORMALIZED FREE ENERGY PREDICTED BY IDOCK:   -3.00 KCAL/MOL
REMARK 922        TOTAL FREE ENERGY PREDICTED BY IDOCK:   -6.73 KCAL/MOL
REMARK 923 INTER-LIGAND FREE ENERGY PREDICTED BY IDOCK:   -5.13 KCAL/MOL
REMARK 924 INTRA-LIGAND FREE ENERGY PREDICTED BY IDOCK:   -1.60 KCAL/MOL
REMARK 927      BINDING AFFINITY PREDICTED BY RF-SCORE:    0.00 PKD
ROOT
HETATM    1  C   UNL     1     -11.523   4.820  65.714  1.00  0.00     1.113 C  
HETATM    2  O   UNL     1     -11.191   5.582  66.871  1.00  0.00     0.053 OA 
ENDROOT
BRANCH   2   3
HETATM    3  C   UNL     1      -9.987   6.227  66.822  1.00  0.00    -0.170 A  
HETATM    4  C   UNL     1      -9.790   7.568  67.128  1.00  0.00    -0.263 A  
HETATM    5  C   UNL     1      -8.500   8.115  67.086  1.00  0.00    -0.124 A  
HETATM    6  C   UNL     1      -7.395   7.346  66.687  1.00  0.00    -0.084 A  
HETATM    7  C   UNL     1      -7.604   5.984  66.420  1.00  0.00    -0.094 A  
HETATM    8  C   UNL     1      -6.009   7.978  66.616  1.00  0.00    -0.045 C  
HETATM    9  C   UNL     1      -6.085   9.508  66.732  1.00  0.00    -0.064 C  
HETATM   10  C   UNL     1      -5.172   7.523  67.833  1.00  0.00    -0.026 C  
HETATM   11  C   UNL     1      -5.266   7.606  65.321  1.00  0.00    -0.029 C  
HETATM   12  C   UNL     1      -8.886   5.432  66.503  1.00  0.00    -0.118 A  
HETATM   13  O   UNL     1      -5.310  10.274  66.162  1.00  0.00    -0.047 OA 
HETATM   14  N   UNL     1      -7.006   9.931  67.671  1.00  0.00    -0.085 N  
HETATM   15  O   UNL     1      -9.268  10.127  68.038  1.00  0.00    -0.137 OA 
HETATM   16  C   UNL     1      -8.308   9.483  67.629  1.00  0.00    -0.125 C  
BRANCH  14  17
HETATM   17  C   UNL     1      -6.655  11.032  68.540  1.00  0.00    -0.059 C  
BRANCH  17  18
HETATM   18  C   UNL     1      -6.381  12.382  67.877  1.00  0.00    -0.096 C  
BRANCH  18  19
HETATM   19  C   UNL     1      -7.522  13.358  68.116  1.00  0.00    -0.133 A  
HETATM   20  C   UNL     1      -8.656  13.394  67.286  1.00  0.00    -0.216 A  
HETATM   21  C   UNL     1      -9.663  14.338  67.485  1.00  0.00    -0.223 A  
HETATM   22  C   UNL     1      -9.559  15.235  68.542  1.00  0.00    -0.211 A  
HETATM   23  C   UNL     1      -7.449  14.254  69.192  1.00  0.00    -0.067 A  
HETATM   24  C   UNL     1      -8.458  15.199  69.398  1.00  0.00    -0.190 A  
BRANCH  22  25
HETATM   25  S   UNL     1     -10.822  16.461  68.755  1.00  0.00    -0.349 S  
HETATM   26  O   UNL     1     -12.123  15.839  68.627  1.00  0.00    -0.269 OA 
HETATM   27  O   UNL     1     -10.488  17.224  69.940  1.00  0.00    -0.057 OA 
BRANCH  25  28
HETATM   28  N   UNL     1     -10.566  17.498  67.485  1.00  0.00    -0.355 N  
HETATM   29  H   UNL     1     -10.673  17.129  66.540  1.00  0.00     0.000 HD 
BRANCH  28  30
HETATM   30  C   UNL     1     -10.218  18.828  67.620  1.00  0.00    -0.399 C  
HETATM   31  O   UNL     1     -10.872  19.754  67.168  1.00  0.00    -0.452 OA 
BRANCH  30  32
HETATM   32  N   UNL     1      -9.057  18.985  68.311  1.00  0.00    -0.315 N  
HETATM   33  H   UNL     1      -9.026  18.729  69.298  1.00  0.00     0.000 HD 
BRANCH  32  34
HETATM   34  C   UNL     1      -7.855  19.512  67.674  1.00  0.00    -0.279 C  
HETATM   35  C   UNL     1      -6.738  19.752  68.697  1.00  0.00    -0.341 C  
HETATM   36  C   UNL     1      -6.229  18.442  69.296  1.00  0.00    -0.257 C  
HETATM   37  C   UNL     1      -5.800  17.447  68.220  1.00  0.00    -0.149 C  
HETATM   38  C   UNL     1      -6.856  17.241  67.135  1.00  0.00    -0.209 C  
HETATM   39  C   UNL     1      -7.369  18.566  66.572  1.00  0.00    -0.258 C  
ENDBRANCH  32  34
ENDBRANCH  30  32
ENDBRANCH  28  30
ENDBRANCH  25  28
ENDBRANCH  22  25
ENDBRANCH  18  19
ENDBRANCH  17  18
ENDBRANCH  14  17
ENDBRANCH   2   3
TORSDOF 9
ENDMDL
MODEL      254
REMARK 921   NORMALIZED FREE ENERGY PREDICTED BY IDOCK:   -2.99 KCAL/MOL
REMARK 922        TOTAL FREE ENERGY PREDICTED BY IDOCK:   -6.71 KCAL/MOL
REMARK 923 INTER-LIGAND FREE ENERGY PREDICTED BY IDOCK:   -6.33 KCAL/MOL
REMARK 924 INTRA-LIGAND FREE ENERGY PREDICTED BY IDOCK:   -0.39 KCAL/MOL
REMARK 927      BINDING AFFINITY PREDICTED BY RF-SCORE:    0.00 PKD
ROOT
HETATM    1  C   UNL     1     -12.583  14.517  64.837  1.00  0.00    -0.234 C  
HETATM    2  O   UNL     1     -11.569  15.481  64.567  1.00  0.00    -0.399 OA 
ENDROOT
BRANCH   2   3
HETATM    3  C   UNL     1     -10.474  15.423  65.383  1.00  0.00    -0.402 A  
HETATM    4  C   UNL     1      -9.867  14.251  65.816  1.00  0.00    -0.314 A  
HETATM    5  C   UNL     1      -8.718  14.311  66.617  1.00  0.00    -0.098 A  
HETATM    6  C   UNL     1      -8.189  15.541  67.042  1.00  0.00    -0.275 A  
HETATM    7  C   UNL     1      -8.790  16.715  66.564  1.00  0.00    -0.314 A  
HETATM    8  C   UNL     1      -6.960  15.573  67.944  1.00  0.00    -0.156 C  
HETATM    9  C   UNL     1      -6.637  14.179  68.503  1.00  0.00    -0.096 C  
HETATM   10  C   UNL     1      -5.720  15.970  67.111  1.00  0.00     0.040 C  
HETATM   11  C   UNL     1      -7.123  16.560  69.113  1.00  0.00    -0.227 C  
HETATM   12  C   UNL     1      -9.911  16.651  65.730  1.00  0.00    -0.271 A  
HETATM   13  O   UNL     1      -6.147  13.986  69.613  1.00  0.00    -0.107 OA 
HETATM   14  N   UNL     1      -6.800  13.175  67.567  1.00  0.00    -0.161 N  
HETATM   15  O   UNL     1      -8.414  11.983  66.442  1.00  0.00    -0.118 OA 
HETATM   16  C   UNL     1      -7.982  13.047  66.871  1.00  0.00     0.107 C  
BRANCH  14  17
HETATM   17  C   UNL     1      -5.816  12.117  67.507  1.00  0.00    -0.122 C  
BRANCH  17  18
HETATM   18  C   UNL     1      -6.303  10.737  67.065  1.00  0.00    -0.078 C  
BRANCH  18  19
HETATM   19  C   UNL     1      -6.655   9.865  68.259  1.00  0.00    -0.055 A  
HETATM   20  C   UNL     1      -7.715   8.943  68.221  1.00  0.00    -0.096 A  
HETATM   21  C   UNL     1      -8.061   8.195  69.346  1.00  0.00    -0.116 A  
HETATM   22  C   UNL     1      -7.321   8.339  70.515  1.00  0.00    -0.056 A  
HETATM   23  C   UNL     1      -5.905   9.975  69.439  1.00  0.00    -0.037 A  
HETATM   24  C   UNL     1      -6.244   9.225  70.568  1.00  0.00    -0.058 A  
BRANCH  22  25
HETATM   25  S   UNL     1      -7.800   7.418  71.952  1.00  0.00    -0.091 S  
HETATM   26  O   UNL     1      -8.384   6.159  71.544  1.00  0.00    -0.124 OA 
HETATM   27  O   UNL     1      -6.682   7.443  72.873  1.00  0.00    -0.063 OA 
BRANCH  25  28
HETATM   28  N   UNL     1      -8.960   8.378  72.652  1.00  0.00    -0.245 N  
HETATM   29  H   UNL     1      -8.668   9.008  73.399  1.00  0.00     0.000 HD 
BRANCH  28  30
HETATM   30  C   UNL     1     -10.293   8.381  72.291  1.00  0.00    -0.333 C  
HETATM   31  O   UNL     1     -11.171   7.810  72.916  1.00  0.00    -0.376 OA 
BRANCH  30  32
HETATM   32  N   UNL     1     -10.512   9.091  71.151  1.00  0.00    -0.265 N  
HETATM   33  H   UNL     1      -9.727   9.553  70.692  1.00  0.00     0.000 HD 
BRANCH  32  34
HETATM   34  C   UNL     1     -11.846   9.207  70.570  1.00  0.00    -0.095 C  
HETATM   35  C   UNL     1     -12.786  10.006  71.482  1.00  0.00    -0.532 C  
HETATM   36  C   UNL     1     -12.361  11.469  71.589  1.00  0.00    -0.023 C  
HETATM   37  C   UNL     1     -12.215  12.127  70.219  1.00  0.00    -0.344 C  
HETATM   38  C   UNL     1     -11.350  11.320  69.253  1.00  0.00    -0.354 C  
HETATM   39  C   UNL     1     -11.777   9.854  69.184  1.00  0.00     0.164 C  
ENDBRANCH  32  34
ENDBRANCH  30  32
ENDBRANCH  28  30
ENDBRANCH  25  28
ENDBRANCH  22  25
ENDBRANCH  18  19
ENDBRANCH  17  18
ENDBRANCH  14  17
ENDBRANCH   2   3
TORSDOF 9
ENDMDL
MODEL      255
REMARK 921   NORMALIZED FREE ENERGY PREDICTED BY IDOCK:   -2.93 KCAL/MOL
REMARK 922        TOTAL FREE ENERGY PREDICTED BY IDOCK:   -6.62 KCAL/MOL
REMARK 923 INTER-LIGAND FREE ENERGY PREDICTED BY IDOCK:   -5.17 KCAL/MOL
REMARK 924 INTRA-LIGAND FREE ENERGY PREDICTED BY IDOCK:   -1.46 KCAL/MOL
REMARK 927      BINDING AFFINITY PREDICTED BY RF-SCORE:    0.00 PKD
ROOT
HETATM    1  C   UNL     1      -5.883   8.336  67.134  1.00  0.00    -0.043 C  
HETATM    2  O   UNL     1      -5.130   7.363  67.854  1.00  0.00    -0.022 OA 
ENDROOT
BRANCH   2   3
HETATM    3  C   UNL     1      -5.869   6.462  68.568  1.00  0.00    -0.020 A  
HETATM    4  C   UNL     1      -6.420   6.701  69.821  1.00  0.00    -0.044 A  
HETATM    5  C   UNL     1      -7.200   5.717  70.443  1.00  0.00    -0.071 A  
HETATM    6  C   UNL     1      -7.399   4.460  69.848  1.00  0.00    -0.050 A  
HETATM    7  C   UNL     1      -6.870   4.249  68.566  1.00  0.00    -0.047 A  
HETATM    8  C   UNL     1      -8.223   3.396  70.566  1.00  0.00    -0.072 C  
HETATM    9  C   UNL     1      -8.491   3.786  72.027  1.00  0.00    -0.091 C  
HETATM   10  C   UNL     1      -9.620   3.298  69.913  1.00  0.00    -0.172 C  
HETATM   11  C   UNL     1      -7.547   2.015  70.529  1.00  0.00    -0.035 C  
HETATM   12  C   UNL     1      -6.126   5.249  67.930  1.00  0.00    -0.023 A  
HETATM   13  O   UNL     1      -8.582   2.973  72.945  1.00  0.00    -0.078 OA 
HETATM   14  N   UNL     1      -8.785   5.129  72.180  1.00  0.00    -0.129 N  
HETATM   15  O   UNL     1      -7.818   7.215  72.151  1.00  0.00    -0.090 OA 
HETATM   16  C   UNL     1      -7.944   6.094  71.671  1.00  0.00    -0.103 C  
BRANCH  14  17
HETATM   17  C   UNL     1      -9.845   5.507  73.087  1.00  0.00    -0.163 C  
BRANCH  17  18
HETATM   18  C   UNL     1     -11.243   5.675  72.492  1.00  0.00    -0.346 C  
BRANCH  18  19
HETATM   19  C   UNL     1     -11.403   7.033  71.827  1.00  0.00    -0.291 A  
HETATM   20  C   UNL     1     -10.988   7.267  70.505  1.00  0.00    -0.282 A  
HETATM   21  C   UNL     1     -11.088   8.535  69.933  1.00  0.00    -0.114 A  
HETATM   22  C   UNL     1     -11.639   9.576  70.672  1.00  0.00    -0.283 A  
HETATM   23  C   UNL     1     -11.982   8.089  72.545  1.00  0.00    -0.384 A  
HETATM   24  C   UNL     1     -12.088   9.361  71.975  1.00  0.00    -0.379 A  
BRANCH  22  25
HETATM   25  S   UNL     1     -11.717  11.193  69.950  1.00  0.00    -0.384 S  
HETATM   26  O   UNL     1     -12.223  11.093  68.597  1.00  0.00    -0.582 OA 
HETATM   27  O   UNL     1     -12.362  12.064  70.911  1.00  0.00    -0.373 OA 
BRANCH  25  28
HETATM   28  N   UNL     1     -10.129  11.676  69.924  1.00  0.00     0.399 N  
HETATM   29  H   UNL     1      -9.760  12.143  70.753  1.00  0.00     0.000 HD 
BRANCH  28  30
HETATM   30  C   UNL     1      -9.273  11.489  68.857  1.00  0.00     0.018 C  
HETATM   31  O   UNL     1      -9.510  10.754  67.912  1.00  0.00    -0.153 OA 
BRANCH  30  32
HETATM   32  N   UNL     1      -8.129  12.215  68.985  1.00  0.00    -0.346 N  
HETATM   33  H   UNL     1      -8.174  13.148  69.395  1.00  0.00     0.000 HD 
BRANCH  32  34
HETATM   34  C   UNL     1      -6.839  11.689  68.550  1.00  0.00    -0.073 C  
HETATM   35  C   UNL     1      -5.710  12.696  68.804  1.00  0.00    -0.066 C  
HETATM   36  C   UNL     1      -5.473  12.915  70.297  1.00  0.00    -0.135 C  
HETATM   37  C   UNL     1      -5.232  11.603  71.039  1.00  0.00    -0.120 C  
HETATM   38  C   UNL     1      -6.294  10.544  70.748  1.00  0.00     0.032 C  
HETATM   39  C   UNL     1      -6.533  10.363  69.250  1.00  0.00    -0.052 C  
ENDBRANCH  32  34
ENDBRANCH  30  32
ENDBRANCH  28  30
ENDBRANCH  25  28
ENDBRANCH  22  25
ENDBRANCH  18  19
ENDBRANCH  17  18
ENDBRANCH  14  17
ENDBRANCH   2   3
TORSDOF 9
ENDMDL
MODEL      256
REMARK 921   NORMALIZED FREE ENERGY PREDICTED BY IDOCK:   -2.91 KCAL/MOL
REMARK 922        TOTAL FREE ENERGY PREDICTED BY IDOCK:   -6.59 KCAL/MOL
REMARK 923 INTER-LIGAND FREE ENERGY PREDICTED BY IDOCK:   -5.20 KCAL/MOL
REMARK 924 INTRA-LIGAND FREE ENERGY PREDICTED BY IDOCK:   -1.39 KCAL/MOL
REMARK 927      BINDING AFFINITY PREDICTED BY RF-SCORE:    0.00 PKD
ROOT
HETATM    1  C   UNL     1      -5.268  14.978  68.402  1.00  0.00    -0.110 C  
HETATM    2  O   UNL     1      -6.255  15.818  67.808  1.00  0.00    -0.129 OA 
ENDROOT
BRANCH   2   3
HETATM    3  C   UNL     1      -7.530  15.328  67.832  1.00  0.00    -0.144 A  
HETATM    4  C   UNL     1      -8.290  15.034  66.706  1.00  0.00    -0.189 A  
HETATM    5  C   UNL     1      -9.575  14.492  66.850  1.00  0.00    -0.258 A  
HETATM    6  C   UNL     1     -10.142  14.286  68.119  1.00  0.00    -0.232 A  
HETATM    7  C   UNL     1      -9.347  14.551  69.244  1.00  0.00     0.086 A  
HETATM    8  C   UNL     1     -11.556  13.730  68.243  1.00  0.00    -0.373 C  
HETATM    9  C   UNL     1     -12.283  13.740  66.889  1.00  0.00    -0.366 C  
HETATM   10  C   UNL     1     -11.491  12.241  68.653  1.00  0.00    -0.355 C  
HETATM   11  C   UNL     1     -12.397  14.504  69.273  1.00  0.00    -0.185 C  
HETATM   12  C   UNL     1      -8.050  15.053  69.097  1.00  0.00    -0.192 A  
HETATM   13  O   UNL     1     -13.493  13.917  66.767  1.00  0.00     1.497 OA 
HETATM   14  N   UNL     1     -11.467  13.366  65.838  1.00  0.00    -0.314 N  
HETATM   15  O   UNL     1      -9.729  14.115  64.531  1.00  0.00     0.052 OA 
HETATM   16  C   UNL     1     -10.258  13.992  65.631  1.00  0.00    -0.334 C  
BRANCH  14  17
HETATM   17  C   UNL     1     -12.005  12.490  64.821  1.00  0.00    -0.409 C  
BRANCH  17  18
HETATM   18  C   UNL     1     -11.028  11.529  64.144  1.00  0.00    -0.434 C  
BRANCH  18  19
HETATM   19  C   UNL     1     -10.203  10.765  65.167  1.00  0.00    -0.365 A  
HETATM   20  C   UNL     1      -8.802  10.869  65.220  1.00  0.00    -0.179 A  
HETATM   21  C   UNL     1      -8.058  10.113  66.125  1.00  0.00    -0.123 A  
HETATM   22  C   UNL     1      -8.716   9.269  67.014  1.00  0.00    -0.124 A  
HETATM   23  C   UNL     1     -10.848   9.929  66.089  1.00  0.00     0.218 A  
HETATM   24  C   UNL     1     -10.108   9.173  67.002  1.00  0.00    -0.316 A  
BRANCH  22  25
HETATM   25  S   UNL     1      -7.756   8.279  68.127  1.00  0.00    -0.108 S  
HETATM   26  O   UNL     1      -6.806   7.489  67.373  1.00  0.00    -0.067 OA 
HETATM   27  O   UNL     1      -7.302   9.147  69.195  1.00  0.00    -0.069 OA 
BRANCH  25  28
HETATM   28  N   UNL     1      -8.887   7.285  68.827  1.00  0.00    -0.128 N  
HETATM   29  H   UNL     1      -9.871   7.510  68.683  1.00  0.00     0.000 HD 
BRANCH  28  30
HETATM   30  C   UNL     1      -8.585   6.175  69.591  1.00  0.00    -0.128 C  
HETATM   31  O   UNL     1      -8.070   5.161  69.149  1.00  0.00    -0.083 OA 
BRANCH  30  32
HETATM   32  N   UNL     1      -8.937   6.340  70.895  1.00  0.00    -0.146 N  
HETATM   33  H   UNL     1      -9.862   6.041  71.204  1.00  0.00     0.000 HD 
BRANCH  32  34
HETATM   34  C   UNL     1      -8.021   6.936  71.862  1.00  0.00    -0.099 C  
HETATM   35  C   UNL     1      -8.676   8.108  72.604  1.00  0.00    -0.277 C  
HETATM   36  C   UNL     1      -9.821   7.640  73.501  1.00  0.00    -0.357 C  
HETATM   37  C   UNL     1      -9.383   6.540  74.465  1.00  0.00    -0.253 C  
HETATM   38  C   UNL     1      -8.653   5.390  73.773  1.00  0.00    -0.113 C  
HETATM   39  C   UNL     1      -7.531   5.884  72.861  1.00  0.00    -0.095 C  
ENDBRANCH  32  34
ENDBRANCH  30  32
ENDBRANCH  28  30
ENDBRANCH  25  28
ENDBRANCH  22  25
ENDBRANCH  18  19
ENDBRANCH  17  18
ENDBRANCH  14  17
ENDBRANCH   2   3
TORSDOF 9
ENDMDL
MODEL      257
REMARK 921   NORMALIZED FREE ENERGY PREDICTED BY IDOCK:   -2.89 KCAL/MOL
REMARK 922        TOTAL FREE ENERGY PREDICTED BY IDOCK:   -6.56 KCAL/MOL
REMARK 923 INTER-LIGAND FREE ENERGY PREDICTED BY IDOCK:   -5.77 KCAL/MOL
REMARK 924 INTRA-LIGAND FREE ENERGY PREDICTED BY IDOCK:   -0.79 KCAL/MOL
REMARK 927      BINDING AFFINITY PREDICTED BY RF-SCORE:    0.00 PKD
ROOT
HETATM    1  C   UNL     1      -5.444  17.561  70.253  1.00  0.00    -0.248 C  
HETATM    2  O   UNL     1      -5.713  16.162  70.208  1.00  0.00    -0.180 OA 
ENDROOT
BRANCH   2   3
HETATM    3  C   UNL     1      -6.703  15.784  69.343  1.00  0.00    -0.184 A  
HETATM    4  C   UNL     1      -7.031  14.469  69.036  1.00  0.00    -0.121 A  
HETATM    5  C   UNL     1      -8.097  14.198  68.168  1.00  0.00    -0.148 A  
HETATM    6  C   UNL     1      -8.818  15.234  67.551  1.00  0.00    -0.188 A  
HETATM    7  C   UNL     1      -8.499  16.554  67.902  1.00  0.00    -0.182 A  
HETATM    8  C   UNL     1      -9.949  14.907  66.582  1.00  0.00    -0.267 C  
HETATM    9  C   UNL     1      -9.945  13.419  66.198  1.00  0.00    -0.294 C  
HETATM   10  C   UNL     1     -11.308  15.139  67.279  1.00  0.00    -0.305 C  
HETATM   11  C   UNL     1      -9.882  15.758  65.302  1.00  0.00    -0.095 C  
HETATM   12  C   UNL     1      -7.462  16.821  68.801  1.00  0.00    -0.231 A  
HETATM   13  O   UNL     1     -10.293  12.999  65.097  1.00  0.00    -0.295 OA 
HETATM   14  N   UNL     1      -9.670  12.588  67.268  1.00  0.00    -0.199 N  
HETATM   15  O   UNL     1      -7.957  11.894  68.637  1.00  0.00    -0.145 OA 
HETATM   16  C   UNL     1      -8.549  12.789  68.043  1.00  0.00    -0.186 C  
BRANCH  14  17
HETATM   17  C   UNL     1     -10.431  11.368  67.412  1.00  0.00    -0.205 C  
BRANCH  17  18
HETATM   18  C   UNL     1      -9.640  10.072  67.587  1.00  0.00    -0.171 C  
BRANCH  18  19
HETATM   19  C   UNL     1     -10.174   9.249  68.748  1.00  0.00    -0.223 A  
HETATM   20  C   UNL     1     -10.937   8.085  68.547  1.00  0.00     0.164 A  
HETATM   21  C   UNL     1     -11.469   7.378  69.624  1.00  0.00     0.103 A  
HETATM   22  C   UNL     1     -11.212   7.812  70.920  1.00  0.00    -0.271 A  
HETATM   23  C   UNL     1      -9.904   9.653  70.063  1.00  0.00    -0.286 A  
HETATM   24  C   UNL     1     -10.432   8.946  71.146  1.00  0.00    -0.336 A  
BRANCH  22  25
HETATM   25  S   UNL     1     -11.934   6.931  72.279  1.00  0.00    -0.153 S  
HETATM   26  O   UNL     1     -13.192   7.550  72.639  1.00  0.00     0.304 OA 
HETATM   27  O   UNL     1     -11.876   5.520  71.958  1.00  0.00    -0.047 OA 
BRANCH  25  28
HETATM   28  N   UNL     1     -10.831   7.144  73.501  1.00  0.00    -0.542 N  
HETATM   29  H   UNL     1     -11.001   7.894  74.171  1.00  0.00     0.000 HD 
BRANCH  28  30
HETATM   30  C   UNL     1      -9.697   6.374  73.673  1.00  0.00    -0.180 C  
HETATM   31  O   UNL     1      -9.568   5.535  74.550  1.00  0.00    -0.142 OA 
BRANCH  30  32
HETATM   32  N   UNL     1      -8.737   6.664  72.753  1.00  0.00    -0.123 N  
HETATM   33  H   UNL     1      -8.268   7.569  72.790  1.00  0.00     0.000 HD 
BRANCH  32  34
HETATM   34  C   UNL     1      -8.363   5.710  71.715  1.00  0.00    -0.120 C  
HETATM   35  C   UNL     1      -7.809   6.421  70.474  1.00  0.00    -0.107 C  
HETATM   36  C   UNL     1      -6.477   7.110  70.765  1.00  0.00    -0.043 C  
HETATM   37  C   UNL     1      -5.452   6.149  71.364  1.00  0.00    -0.022 C  
HETATM   38  C   UNL     1      -5.993   5.360  72.555  1.00  0.00    -0.027 C  
HETATM   39  C   UNL     1      -7.339   4.704  72.249  1.00  0.00    -0.081 C  
ENDBRANCH  32  34
ENDBRANCH  30  32
ENDBRANCH  28  30
ENDBRANCH  25  28
ENDBRANCH  22  25
ENDBRANCH  18  19
ENDBRANCH  17  18
ENDBRANCH  14  17
ENDBRANCH   2   3
TORSDOF 9
ENDMDL
MODEL      258
REMARK 921   NORMALIZED FREE ENERGY PREDICTED BY IDOCK:   -2.83 KCAL/MOL
REMARK 922        TOTAL FREE ENERGY PREDICTED BY IDOCK:   -6.47 KCAL/MOL
REMARK 923 INTER-LIGAND FREE ENERGY PREDICTED BY IDOCK:   -4.55 KCAL/MOL
REMARK 924 INTRA-LIGAND FREE ENERGY PREDICTED BY IDOCK:   -1.92 KCAL/MOL
REMARK 927      BINDING AFFINITY PREDICTED BY RF-SCORE:    0.00 PKD
ROOT
HETATM    1  C   UNL     1     -12.101   7.660  72.316  1.00  0.00    -0.256 C  
HETATM    2  O   UNL     1     -11.728   7.025  71.096  1.00  0.00    -0.290 OA 
ENDROOT
BRANCH   2   3
HETATM    3  C   UNL     1     -10.839   7.718  70.323  1.00  0.00    -0.249 A  
HETATM    4  C   UNL     1     -10.485   7.382  69.022  1.00  0.00    -0.217 A  
HETATM    5  C   UNL     1      -9.595   8.193  68.306  1.00  0.00    -0.154 A  
HETATM    6  C   UNL     1      -9.002   9.322  68.894  1.00  0.00    -0.136 A  
HETATM    7  C   UNL     1      -9.400   9.670  70.194  1.00  0.00    -0.294 A  
HETATM    8  C   UNL     1      -8.008  10.165  68.102  1.00  0.00    -0.104 C  
HETATM    9  C   UNL     1      -7.576   9.454  66.810  1.00  0.00    -0.097 C  
HETATM   10  C   UNL     1      -8.694  11.468  67.635  1.00  0.00    -0.142 C  
HETATM   11  C   UNL     1      -6.758  10.517  68.927  1.00  0.00    -0.060 C  
HETATM   12  C   UNL     1     -10.321   8.881  70.891  1.00  0.00    -0.303 A  
HETATM   13  O   UNL     1      -6.457   9.564  66.313  1.00  0.00    -0.068 OA 
HETATM   14  N   UNL     1      -8.622   8.813  66.174  1.00  0.00    -0.138 N  
HETATM   15  O   UNL     1      -9.990   6.971  66.332  1.00  0.00    -0.128 OA 
HETATM   16  C   UNL     1      -9.418   7.920  66.857  1.00  0.00    -0.191 C  
BRANCH  14  17
HETATM   17  C   UNL     1      -8.716   8.900  64.734  1.00  0.00    -0.127 C  
BRANCH  17  18
HETATM   18  C   UNL     1      -7.505   8.429  63.928  1.00  0.00    -0.116 C  
BRANCH  18  19
HETATM   19  C   UNL     1      -7.339   6.920  64.010  1.00  0.00    -0.087 A  
HETATM   20  C   UNL     1      -6.404   6.320  64.872  1.00  0.00    -0.034 A  
HETATM   21  C   UNL     1      -6.223   4.938  64.887  1.00  0.00    -0.034 A  
HETATM   22  C   UNL     1      -7.005   4.137  64.062  1.00  0.00    -0.046 A  
HETATM   23  C   UNL     1      -8.136   6.093  63.205  1.00  0.00    -0.072 A  
HETATM   24  C   UNL     1      -7.961   4.706  63.220  1.00  0.00    -0.083 A  
BRANCH  22  25
HETATM   25  S   UNL     1      -6.732   2.385  64.056  1.00  0.00    -0.032 S  
HETATM   26  O   UNL     1      -7.781   1.737  63.298  1.00  0.00    -0.053 OA 
HETATM   27  O   UNL     1      -5.341   2.166  63.718  1.00  0.00    -0.007 OA 
BRANCH  25  28
HETATM   28  N   UNL     1      -6.859   1.974  65.659  1.00  0.00    -0.035 N  
HETATM   29  H   UNL     1      -6.010   1.679  66.143  1.00  0.00     0.000 HD 
BRANCH  28  30
HETATM   30  C   UNL     1      -8.034   2.005  66.383  1.00  0.00    -0.077 C  
HETATM   31  O   UNL     1      -9.146   2.015  65.880  1.00  0.00    -0.121 OA 
BRANCH  30  32
HETATM   32  N   UNL     1      -7.808   2.029  67.725  1.00  0.00    -0.059 N  
HETATM   33  H   UNL     1      -7.969   1.184  68.273  1.00  0.00     0.000 HD 
BRANCH  32  34
HETATM   34  C   UNL     1      -7.341   3.236  68.398  1.00  0.00    -0.050 C  
HETATM   35  C   UNL     1      -8.295   4.414  68.159  1.00  0.00    -0.096 C  
HETATM   36  C   UNL     1      -9.651   4.188  68.824  1.00  0.00    -0.210 C  
HETATM   37  C   UNL     1      -9.516   3.868  70.310  1.00  0.00    -0.255 C  
HETATM   38  C   UNL     1      -8.512   2.753  70.597  1.00  0.00    -0.092 C  
HETATM   39  C   UNL     1      -7.173   2.988  69.899  1.00  0.00    -0.041 C  
ENDBRANCH  32  34
ENDBRANCH  30  32
ENDBRANCH  28  30
ENDBRANCH  25  28
ENDBRANCH  22  25
ENDBRANCH  18  19
ENDBRANCH  17  18
ENDBRANCH  14  17
ENDBRANCH   2   3
TORSDOF 9
ENDMDL
MODEL      259
REMARK 921   NORMALIZED FREE ENERGY PREDICTED BY IDOCK:   -2.73 KCAL/MOL
REMARK 922        TOTAL FREE ENERGY PREDICTED BY IDOCK:   -6.32 KCAL/MOL
REMARK 923 INTER-LIGAND FREE ENERGY PREDICTED BY IDOCK:   -4.27 KCAL/MOL
REMARK 924 INTRA-LIGAND FREE ENERGY PREDICTED BY IDOCK:   -2.05 KCAL/MOL
REMARK 927      BINDING AFFINITY PREDICTED BY RF-SCORE:    0.00 PKD
ROOT
HETATM    1  C   UNL     1      -8.776   1.467  70.539  1.00  0.00    -0.058 C  
HETATM    2  O   UNL     1      -8.189   2.364  71.478  1.00  0.00    -0.053 OA 
ENDROOT
BRANCH   2   3
HETATM    3  C   UNL     1      -8.596   3.665  71.377  1.00  0.00    -0.076 A  
HETATM    4  C   UNL     1      -7.793   4.718  70.955  1.00  0.00    -0.081 A  
HETATM    5  C   UNL     1      -8.330   6.008  70.846  1.00  0.00    -0.126 A  
HETATM    6  C   UNL     1      -9.660   6.278  71.208  1.00  0.00    -0.189 A  
HETATM    7  C   UNL     1     -10.467   5.198  71.595  1.00  0.00    -0.255 A  
HETATM    8  C   UNL     1     -10.205   7.699  71.114  1.00  0.00    -0.207 C  
HETATM    9  C   UNL     1      -9.077   8.718  70.890  1.00  0.00    -0.208 C  
HETATM   10  C   UNL     1     -11.112   7.822  69.870  1.00  0.00    -0.142 C  
HETATM   11  C   UNL     1     -11.003   8.099  72.367  1.00  0.00    -0.414 C  
HETATM   12  C   UNL     1      -9.940   3.904  71.662  1.00  0.00    -0.223 A  
HETATM   13  O   UNL     1      -9.096   9.865  71.332  1.00  0.00     0.364 OA 
HETATM   14  N   UNL     1      -8.117   8.270  70.001  1.00  0.00    -0.113 N  
HETATM   15  O   UNL     1      -6.365   6.792  69.812  1.00  0.00    -0.039 OA 
HETATM   16  C   UNL     1      -7.504   7.051  70.186  1.00  0.00    -0.086 C  
BRANCH  14  17
HETATM   17  C   UNL     1      -7.590   9.196  69.025  1.00  0.00    -0.074 C  
BRANCH  17  18
HETATM   18  C   UNL     1      -8.604  10.003  68.213  1.00  0.00    -0.115 C  
BRANCH  18  19
HETATM   19  C   UNL     1      -8.219  11.472  68.146  1.00  0.00    -0.149 A  
HETATM   20  C   UNL     1      -8.379  12.230  66.973  1.00  0.00    -0.168 A  
HETATM   21  C   UNL     1      -7.963  13.560  66.914  1.00  0.00     0.171 A  
HETATM   22  C   UNL     1      -7.413  14.155  68.044  1.00  0.00    -0.140 A  
HETATM   23  C   UNL     1      -7.688  12.098  69.282  1.00  0.00     0.352 A  
HETATM   24  C   UNL     1      -7.273  13.432  69.230  1.00  0.00     0.117 A  
BRANCH  22  25
HETATM   25  S   UNL     1      -6.845  15.831  67.942  1.00  0.00    -0.160 S  
HETATM   26  O   UNL     1      -6.658  16.358  69.277  1.00  0.00    -0.181 OA 
HETATM   27  O   UNL     1      -5.760  15.861  66.983  1.00  0.00    -0.332 OA 
BRANCH  25  28
HETATM   28  N   UNL     1      -8.104  16.616  67.197  1.00  0.00    -0.171 N  
HETATM   29  H   UNL     1      -8.238  16.460  66.198  1.00  0.00     0.000 HD 
BRANCH  28  30
HETATM   30  C   UNL     1      -8.983  17.467  67.838  1.00  0.00    -0.251 C  
HETATM   31  O   UNL     1      -9.034  18.670  67.643  1.00  0.00    -0.272 OA 
BRANCH  30  32
HETATM   32  N   UNL     1      -9.783  16.807  68.719  1.00  0.00    -0.252 N  
HETATM   33  H   UNL     1      -9.418  16.564  69.640  1.00  0.00     0.000 HD 
BRANCH  32  34
HETATM   34  C   UNL     1     -11.153  16.438  68.376  1.00  0.00    -0.351 C  
HETATM   35  C   UNL     1     -11.243  14.973  67.929  1.00  0.00    -0.330 C  
HETATM   36  C   UNL     1     -10.936  14.013  69.076  1.00  0.00    -0.287 C  
HETATM   37  C   UNL     1     -11.809  14.280  70.300  1.00  0.00    -0.377 C  
HETATM   38  C   UNL     1     -11.810  15.747  70.729  1.00  0.00    -0.438 C  
HETATM   39  C   UNL     1     -12.092  16.689  69.559  1.00  0.00     1.049 C  
ENDBRANCH  32  34
ENDBRANCH  30  32
ENDBRANCH  28  30
ENDBRANCH  25  28
ENDBRANCH  22  25
ENDBRANCH  18  19
ENDBRANCH  17  18
ENDBRANCH  14  17
ENDBRANCH   2   3
TORSDOF 9
ENDMDL
MODEL      260
REMARK 921   NORMALIZED FREE ENERGY PREDICTED BY IDOCK:   -2.66 KCAL/MOL
REMARK 922        TOTAL FREE ENERGY PREDICTED BY IDOCK:   -6.21 KCAL/MOL
REMARK 923 INTER-LIGAND FREE ENERGY PREDICTED BY IDOCK:   -5.74 KCAL/MOL
REMARK 924 INTRA-LIGAND FREE ENERGY PREDICTED BY IDOCK:   -0.48 KCAL/MOL
REMARK 927      BINDING AFFINITY PREDICTED BY RF-SCORE:    0.00 PKD
ROOT
HETATM    1  C   UNL     1     -12.863  16.209  72.103  1.00  0.00    -0.195 C  
HETATM    2  O   UNL     1     -13.648  15.414  71.217  1.00  0.00    -0.492 OA 
ENDROOT
BRANCH   2   3
HETATM    3  C   UNL     1     -13.200  14.137  71.024  1.00  0.00    -0.272 A  
HETATM    4  C   UNL     1     -12.385  13.732  69.974  1.00  0.00    -0.364 A  
HETATM    5  C   UNL     1     -11.948  12.402  69.899  1.00  0.00    -0.369 A  
HETATM    6  C   UNL     1     -12.360  11.445  70.841  1.00  0.00    -0.483 A  
HETATM    7  C   UNL     1     -13.150  11.879  71.916  1.00  0.00    -0.474 A  
HETATM    8  C   UNL     1     -11.897   9.998  70.712  1.00  0.00    -0.435 C  
HETATM    9  C   UNL     1     -11.242   9.738  69.347  1.00  0.00    -0.114 C  
HETATM   10  C   UNL     1     -10.788   9.717  71.751  1.00  0.00     0.107 C  
HETATM   11  C   UNL     1     -13.050   8.999  70.917  1.00  0.00     0.068 C  
HETATM   12  C   UNL     1     -13.550  13.216  72.010  1.00  0.00    -0.554 A  
HETATM   13  O   UNL     1     -11.310   8.665  68.752  1.00  0.00     0.344 OA 
HETATM   14  N   UNL     1     -10.430  10.777  68.934  1.00  0.00    -0.194 N  
HETATM   15  O   UNL     1     -10.504  12.925  68.114  1.00  0.00    -0.223 OA 
HETATM   16  C   UNL     1     -10.909  12.068  68.892  1.00  0.00    -0.211 C  
BRANCH  14  17
HETATM   17  C   UNL     1      -9.163  10.463  68.315  1.00  0.00    -0.149 C  
BRANCH  17  18
HETATM   18  C   UNL     1      -9.203   9.906  66.892  1.00  0.00    -0.171 C  
BRANCH  18  19
HETATM   19  C   UNL     1      -8.730   8.461  66.848  1.00  0.00    -0.137 A  
HETATM   20  C   UNL     1      -9.631   7.383  66.868  1.00  0.00    -0.240 A  
HETATM   21  C   UNL     1      -9.176   6.065  66.889  1.00  0.00    -0.131 A  
HETATM   22  C   UNL     1      -7.809   5.814  66.854  1.00  0.00    -0.101 A  
HETATM   23  C   UNL     1      -7.357   8.186  66.786  1.00  0.00    -0.083 A  
HETATM   24  C   UNL     1      -6.895   6.867  66.803  1.00  0.00    -0.064 A  
BRANCH  22  25
HETATM   25  S   UNL     1      -7.242   4.136  66.929  1.00  0.00    -0.069 S  
HETATM   26  O   UNL     1      -8.259   3.260  66.387  1.00  0.00    -0.094 OA 
HETATM   27  O   UNL     1      -5.894   4.111  66.399  1.00  0.00    -0.021 OA 
BRANCH  25  28
HETATM   28  N   UNL     1      -7.073   3.862  68.558  1.00  0.00    -0.051 N  
HETATM   29  H   UNL     1      -7.443   2.989  68.935  1.00  0.00     0.000 HD 
BRANCH  28  30
HETATM   30  C   UNL     1      -6.465   4.736  69.438  1.00  0.00    -0.036 C  
HETATM   31  O   UNL     1      -5.296   5.078  69.363  1.00  0.00    -0.003 OA 
BRANCH  30  32
HETATM   32  N   UNL     1      -7.321   5.167  70.404  1.00  0.00    -0.061 N  
HETATM   33  H   UNL     1      -8.239   5.521  70.135  1.00  0.00     0.000 HD 
BRANCH  32  34
HETATM   34  C   UNL     1      -6.955   5.134  71.816  1.00  0.00    -0.065 C  
HETATM   35  C   UNL     1      -8.145   5.504  72.711  1.00  0.00    -0.109 C  
HETATM   36  C   UNL     1      -9.250   4.451  72.646  1.00  0.00    -0.146 C  
HETATM   37  C   UNL     1      -8.728   3.050  72.958  1.00  0.00    -0.083 C  
HETATM   38  C   UNL     1      -7.491   2.674  72.144  1.00  0.00    -0.047 C  
HETATM   39  C   UNL     1      -6.412   3.755  72.201  1.00  0.00    -0.014 C  
ENDBRANCH  32  34
ENDBRANCH  30  32
ENDBRANCH  28  30
ENDBRANCH  25  28
ENDBRANCH  22  25
ENDBRANCH  18  19
ENDBRANCH  17  18
ENDBRANCH  14  17
ENDBRANCH   2   3
TORSDOF 9
ENDMDL
MODEL      261
REMARK 921   NORMALIZED FREE ENERGY PREDICTED BY IDOCK:   -2.61 KCAL/MOL
REMARK 922        TOTAL FREE ENERGY PREDICTED BY IDOCK:   -6.12 KCAL/MOL
REMARK 923 INTER-LIGAND FREE ENERGY PREDICTED BY IDOCK:   -5.92 KCAL/MOL
REMARK 924 INTRA-LIGAND FREE ENERGY PREDICTED BY IDOCK:   -0.21 KCAL/MOL
REMARK 927      BINDING AFFINITY PREDICTED BY RF-SCORE:    0.00 PKD
ROOT
HETATM    1  C   UNL     1     -12.681  13.828  65.257  1.00  0.00    -0.439 C  
HETATM    2  O   UNL     1     -12.412  13.966  66.650  1.00  0.00    -0.407 OA 
ENDROOT
BRANCH   2   3
HETATM    3  C   UNL     1     -11.461  13.121  67.149  1.00  0.00    -0.334 A  
HETATM    4  C   UNL     1     -11.569  12.418  68.343  1.00  0.00    -0.373 A  
HETATM    5  C   UNL     1     -10.548  11.542  68.736  1.00  0.00    -0.241 A  
HETATM    6  C   UNL     1      -9.379  11.394  67.971  1.00  0.00    -0.171 A  
HETATM    7  C   UNL     1      -9.303  12.080  66.749  1.00  0.00    -0.206 A  
HETATM    8  C   UNL     1      -8.270  10.462  68.443  1.00  0.00    -0.114 C  
HETATM    9  C   UNL     1      -8.493  10.016  69.896  1.00  0.00    -0.150 C  
HETATM   10  C   UNL     1      -8.302   9.159  67.613  1.00  0.00    -0.116 C  
HETATM   11  C   UNL     1      -6.878  11.106  68.321  1.00  0.00    -0.068 C  
HETATM   12  C   UNL     1     -10.343  12.922  66.340  1.00  0.00    -0.277 A  
HETATM   13  O   UNL     1      -7.580   9.789  70.687  1.00  0.00    -0.259 OA 
HETATM   14  N   UNL     1      -9.817   9.734  70.174  1.00  0.00    -0.253 N  
HETATM   15  O   UNL     1     -11.855  10.742  70.524  1.00  0.00    -0.304 OA 
HETATM   16  C   UNL     1     -10.804  10.655  69.898  1.00  0.00    -0.241 C  
BRANCH  14  17
HETATM   17  C   UNL     1     -10.125   8.574  70.981  1.00  0.00    -0.205 C  
BRANCH  17  18
HETATM   18  C   UNL     1     -10.725   7.366  70.262  1.00  0.00    -0.250 C  
BRANCH  18  19
HETATM   19  C   UNL     1      -9.696   6.262  70.078  1.00  0.00    -0.193 A  
HETATM   20  C   UNL     1      -8.319   6.535  70.000  1.00  0.00    -0.134 A  
HETATM   21  C   UNL     1      -7.395   5.516  69.770  1.00  0.00    -0.066 A  
HETATM   22  C   UNL     1      -7.842   4.204  69.651  1.00  0.00    -0.052 A  
HETATM   23  C   UNL     1     -10.122   4.930  69.983  1.00  0.00    -0.337 A  
HETATM   24  C   UNL     1      -9.200   3.904  69.756  1.00  0.00    -0.213 A  
BRANCH  22  25
HETATM   25  S   UNL     1      -6.663   2.924  69.311  1.00  0.00    -0.034 S  
HETATM   26  O   UNL     1      -5.545   3.044  70.223  1.00  0.00    -0.015 OA 
HETATM   27  O   UNL     1      -7.396   1.678  69.211  1.00  0.00    -0.039 OA 
BRANCH  25  28
HETATM   28  N   UNL     1      -6.167   3.262  67.763  1.00  0.00    -0.031 N  
HETATM   29  H   UNL     1      -5.748   4.174  67.587  1.00  0.00     0.000 HD 
BRANCH  28  30
HETATM   30  C   UNL     1      -6.284   2.391  66.698  1.00  0.00    -0.024 C  
HETATM   31  O   UNL     1      -5.347   1.785  66.205  1.00  0.00    -0.005 OA 
BRANCH  30  32
HETATM   32  N   UNL     1      -7.568   2.291  66.257  1.00  0.00    -0.070 N  
HETATM   33  H   UNL     1      -8.183   1.588  66.666  1.00  0.00     0.000 HD 
BRANCH  32  34
HETATM   34  C   UNL     1      -8.084   3.168  65.211  1.00  0.00    -0.086 C  
HETATM   35  C   UNL     1      -7.090   4.286  64.877  1.00  0.00    -0.059 C  
HETATM   36  C   UNL     1      -5.820   3.738  64.229  1.00  0.00    -0.014 C  
HETATM   37  C   UNL     1      -6.124   2.874  63.007  1.00  0.00    -0.014 C  
HETATM   38  C   UNL     1      -7.174   1.797  63.278  1.00  0.00    -0.040 C  
HETATM   39  C   UNL     1      -8.422   2.366  63.952  1.00  0.00    -0.085 C  
ENDBRANCH  32  34
ENDBRANCH  30  32
ENDBRANCH  28  30
ENDBRANCH  25  28
ENDBRANCH  22  25
ENDBRANCH  18  19
ENDBRANCH  17  18
ENDBRANCH  14  17
ENDBRANCH   2   3
TORSDOF 9
ENDMDL
MODEL      262
REMARK 921   NORMALIZED FREE ENERGY PREDICTED BY IDOCK:   -2.53 KCAL/MOL
REMARK 922        TOTAL FREE ENERGY PREDICTED BY IDOCK:   -6.00 KCAL/MOL
REMARK 923 INTER-LIGAND FREE ENERGY PREDICTED BY IDOCK:   -4.67 KCAL/MOL
REMARK 924 INTRA-LIGAND FREE ENERGY PREDICTED BY IDOCK:   -1.34 KCAL/MOL
REMARK 927      BINDING AFFINITY PREDICTED BY RF-SCORE:    0.00 PKD
ROOT
HETATM    1  C   UNL     1     -10.581   3.222  63.828  1.00  0.00    -0.246 C  
HETATM    2  O   UNL     1     -11.186   3.975  64.876  1.00  0.00    -0.214 OA 
ENDROOT
BRANCH   2   3
HETATM    3  C   UNL     1     -10.355   4.315  65.907  1.00  0.00    -0.123 A  
HETATM    4  C   UNL     1     -10.472   5.468  66.675  1.00  0.00    -0.355 A  
HETATM    5  C   UNL     1      -9.588   5.693  67.739  1.00  0.00    -0.128 A  
HETATM    6  C   UNL     1      -8.542   4.799  68.020  1.00  0.00    -0.105 A  
HETATM    7  C   UNL     1      -8.462   3.622  67.262  1.00  0.00    -0.105 A  
HETATM    8  C   UNL     1      -7.574   5.090  69.162  1.00  0.00    -0.072 C  
HETATM    9  C   UNL     1      -7.733   6.528  69.679  1.00  0.00    -0.103 C  
HETATM   10  C   UNL     1      -7.914   4.189  70.370  1.00  0.00    -0.051 C  
HETATM   11  C   UNL     1      -6.108   4.861  68.754  1.00  0.00    -0.030 C  
HETATM   12  C   UNL     1      -9.372   3.379  66.227  1.00  0.00    -0.157 A  
HETATM   13  O   UNL     1      -6.804   7.202  70.119  1.00  0.00    -0.056 OA 
HETATM   14  N   UNL     1      -9.054   6.929  69.754  1.00  0.00    -0.144 N  
HETATM   15  O   UNL     1     -10.840   7.558  68.448  1.00  0.00    -0.114 OA 
HETATM   16  C   UNL     1      -9.885   6.818  68.661  1.00  0.00    -0.142 C  
BRANCH  14  17
HETATM   17  C   UNL     1      -9.483   7.690  70.906  1.00  0.00    -0.164 C  
BRANCH  17  18
HETATM   18  C   UNL     1      -8.955   9.119  71.032  1.00  0.00    -0.281 C  
BRANCH  18  19
HETATM   19  C   UNL     1      -9.649  10.055  70.056  1.00  0.00    -0.205 A  
HETATM   20  C   UNL     1      -8.983  10.597  68.943  1.00  0.00    -0.172 A  
HETATM   21  C   UNL     1      -9.618  11.502  68.093  1.00  0.00    -0.187 A  
HETATM   22  C   UNL     1     -10.944  11.847  68.332  1.00  0.00    -0.232 A  
HETATM   23  C   UNL     1     -10.993  10.395  70.262  1.00  0.00    -0.353 A  
HETATM   24  C   UNL     1     -11.637  11.298  69.412  1.00  0.00    -0.390 A  
BRANCH  22  25
HETATM   25  S   UNL     1     -11.726  13.034  67.273  1.00  0.00    -0.370 S  
HETATM   26  O   UNL     1     -12.710  12.367  66.446  1.00  0.00     0.071 OA 
HETATM   27  O   UNL     1     -12.105  14.164  68.097  1.00  0.00    -0.343 OA 
BRANCH  25  28
HETATM   28  N   UNL     1     -10.477  13.585  66.329  1.00  0.00    -0.285 N  
HETATM   29  H   UNL     1     -10.072  12.939  65.651  1.00  0.00     0.000 HD 
BRANCH  28  30
HETATM   30  C   UNL     1      -9.949  14.859  66.399  1.00  0.00    -0.275 C  
HETATM   31  O   UNL     1      -9.959  15.655  65.473  1.00  0.00    -0.337 OA 
BRANCH  30  32
HETATM   32  N   UNL     1      -9.408  15.123  67.619  1.00  0.00    -0.189 N  
HETATM   33  H   UNL     1      -9.975  14.986  68.456  1.00  0.00     0.000 HD 
BRANCH  32  34
HETATM   34  C   UNL     1      -8.036  15.597  67.759  1.00  0.00    -0.144 C  
HETATM   35  C   UNL     1      -7.509  15.375  69.182  1.00  0.00    -0.189 C  
HETATM   36  C   UNL     1      -7.363  13.889  69.505  1.00  0.00     0.216 C  
HETATM   37  C   UNL     1      -6.512  13.157  68.471  1.00  0.00    -0.085 C  
HETATM   38  C   UNL     1      -6.955  13.418  67.033  1.00  0.00     0.492 C  
HETATM   39  C   UNL     1      -7.120  14.910  66.743  1.00  0.00     0.900 C  
ENDBRANCH  32  34
ENDBRANCH  30  32
ENDBRANCH  28  30
ENDBRANCH  25  28
ENDBRANCH  22  25
ENDBRANCH  18  19
ENDBRANCH  17  18
ENDBRANCH  14  17
ENDBRANCH   2   3
TORSDOF 9
ENDMDL
MODEL      263
REMARK 921   NORMALIZED FREE ENERGY PREDICTED BY IDOCK:   -2.49 KCAL/MOL
REMARK 922        TOTAL FREE ENERGY PREDICTED BY IDOCK:   -5.95 KCAL/MOL
REMARK 923 INTER-LIGAND FREE ENERGY PREDICTED BY IDOCK:   -5.81 KCAL/MOL
REMARK 924 INTRA-LIGAND FREE ENERGY PREDICTED BY IDOCK:   -0.14 KCAL/MOL
REMARK 927      BINDING AFFINITY PREDICTED BY RF-SCORE:    0.00 PKD
ROOT
HETATM    1  C   UNL     1      -9.016   2.897  71.823  1.00  0.00    -0.083 C  
HETATM    2  O   UNL     1      -8.830   4.062  72.623  1.00  0.00    -0.101 OA 
ENDROOT
BRANCH   2   3
HETATM    3  C   UNL     1      -9.730   5.068  72.409  1.00  0.00    -0.151 A  
HETATM    4  C   UNL     1      -9.424   6.303  71.848  1.00  0.00    -0.160 A  
HETATM    5  C   UNL     1     -10.438   7.246  71.633  1.00  0.00    -0.218 A  
HETATM    6  C   UNL     1     -11.763   6.993  72.023  1.00  0.00    -0.332 A  
HETATM    7  C   UNL     1     -12.063   5.728  72.551  1.00  0.00    -0.084 A  
HETATM    8  C   UNL     1     -12.838   8.053  71.810  1.00  0.00    -0.353 C  
HETATM    9  C   UNL     1     -12.221   9.410  71.436  1.00  0.00    -0.356 C  
HETATM   10  C   UNL     1     -13.715   7.663  70.600  1.00  0.00     0.577 C  
HETATM   11  C   UNL     1     -13.733   8.231  73.049  1.00  0.00     0.475 C  
HETATM   12  C   UNL     1     -11.056   4.773  72.726  1.00  0.00    -0.248 A  
HETATM   13  O   UNL     1     -12.705  10.492  71.761  1.00  0.00    -0.420 OA 
HETATM   14  N   UNL     1     -11.161   9.293  70.556  1.00  0.00    -0.252 N  
HETATM   15  O   UNL     1      -8.959   8.638  70.442  1.00  0.00    -0.142 OA 
HETATM   16  C   UNL     1     -10.105   8.454  70.837  1.00  0.00    -0.194 C  
BRANCH  14  17
HETATM   17  C   UNL     1     -11.054  10.240  69.470  1.00  0.00    -0.262 C  
BRANCH  17  18
HETATM   18  C   UNL     1     -11.031  11.724  69.840  1.00  0.00     0.165 C  
BRANCH  18  19
HETATM   19  C   UNL     1     -11.065  12.605  68.602  1.00  0.00    -0.305 A  
HETATM   20  C   UNL     1     -10.211  12.383  67.507  1.00  0.00    -0.214 A  
HETATM   21  C   UNL     1     -10.214  13.239  66.407  1.00  0.00    -0.292 A  
HETATM   22  C   UNL     1     -11.101  14.309  66.377  1.00  0.00    -0.325 A  
HETATM   23  C   UNL     1     -11.970  13.673  68.540  1.00  0.00    -0.396 A  
HETATM   24  C   UNL     1     -11.980  14.532  67.437  1.00  0.00    -0.367 A  
BRANCH  22  25
HETATM   25  S   UNL     1     -11.063  15.418  64.994  1.00  0.00    -0.394 S  
HETATM   26  O   UNL     1     -10.552  14.720  63.832  1.00  0.00     0.742 OA 
HETATM   27  O   UNL     1     -12.346  16.087  64.941  1.00  0.00     0.525 OA 
BRANCH  25  28
HETATM   28  N   UNL     1      -9.984  16.586  65.470  1.00  0.00    -0.192 N  
HETATM   29  H   UNL     1      -8.993  16.417  65.297  1.00  0.00     0.000 HD 
BRANCH  28  30
HETATM   30  C   UNL     1     -10.337  17.771  66.084  1.00  0.00    -0.340 C  
HETATM   31  O   UNL     1     -10.213  18.871  65.570  1.00  0.00    -0.442 OA 
BRANCH  30  32
HETATM   32  N   UNL     1     -10.833  17.571  67.336  1.00  0.00    -0.243 N  
HETATM   33  H   UNL     1     -11.737  17.111  67.446  1.00  0.00     0.000 HD 
BRANCH  32  34
HETATM   34  C   UNL     1     -10.102  17.998  68.524  1.00  0.00    -0.393 C  
HETATM   35  C   UNL     1     -10.036  16.880  69.572  1.00  0.00    -0.083 C  
HETATM   36  C   UNL     1      -9.193  15.701  69.089  1.00  0.00    -0.254 C  
HETATM   37  C   UNL     1      -7.799  16.136  68.645  1.00  0.00    -0.188 C  
HETATM   38  C   UNL     1      -7.818  17.304  67.660  1.00  0.00    -0.192 C  
HETATM   39  C   UNL     1      -8.690  18.459  68.152  1.00  0.00    -0.318 C  
ENDBRANCH  32  34
ENDBRANCH  30  32
ENDBRANCH  28  30
ENDBRANCH  25  28
ENDBRANCH  22  25
ENDBRANCH  18  19
ENDBRANCH  17  18
ENDBRANCH  14  17
ENDBRANCH   2   3
TORSDOF 9
ENDMDL
MODEL      264
REMARK 921   NORMALIZED FREE ENERGY PREDICTED BY IDOCK:   -2.45 KCAL/MOL
REMARK 922        TOTAL FREE ENERGY PREDICTED BY IDOCK:   -5.89 KCAL/MOL
REMARK 923 INTER-LIGAND FREE ENERGY PREDICTED BY IDOCK:   -5.48 KCAL/MOL
REMARK 924 INTRA-LIGAND FREE ENERGY PREDICTED BY IDOCK:   -0.42 KCAL/MOL
REMARK 927      BINDING AFFINITY PREDICTED BY RF-SCORE:    0.00 PKD
ROOT
HETATM    1  C   UNL     1     -10.998  20.130  65.566  1.00  0.00     0.116 C  
HETATM    2  O   UNL     1     -11.012  19.797  66.951  1.00  0.00    -0.433 OA 
ENDROOT
BRANCH   2   3
HETATM    3  C   UNL     1      -9.966  19.027  67.378  1.00  0.00    -0.342 A  
HETATM    4  C   UNL     1     -10.055  17.681  67.714  1.00  0.00    -0.338 A  
HETATM    5  C   UNL     1      -8.905  16.977  68.097  1.00  0.00    -0.227 A  
HETATM    6  C   UNL     1      -7.660  17.617  68.203  1.00  0.00    -0.234 A  
HETATM    7  C   UNL     1      -7.579  18.965  67.822  1.00  0.00    -0.255 A  
HETATM    8  C   UNL     1      -6.434  16.833  68.657  1.00  0.00    -0.165 C  
HETATM    9  C   UNL     1      -6.825  15.460  69.225  1.00  0.00    -0.157 C  
HETATM   10  C   UNL     1      -5.537  16.523  67.438  1.00  0.00    -0.184 C  
HETATM   11  C   UNL     1      -5.612  17.598  69.710  1.00  0.00    -0.227 C  
HETATM   12  C   UNL     1      -8.721  19.655  67.400  1.00  0.00    -0.364 A  
HETATM   13  O   UNL     1      -6.218  14.900  70.135  1.00  0.00    -0.150 OA 
HETATM   14  N   UNL     1      -7.827  14.844  68.498  1.00  0.00    -0.120 N  
HETATM   15  O   UNL     1     -10.086  14.940  68.074  1.00  0.00    -0.218 OA 
HETATM   16  C   UNL     1      -9.008  15.502  68.232  1.00  0.00    -0.185 C  
BRANCH  14  17
HETATM   17  C   UNL     1      -7.723  13.426  68.237  1.00  0.00    -0.141 C  
BRANCH  17  18
HETATM   18  C   UNL     1      -8.823  12.531  68.807  1.00  0.00     0.161 C  
BRANCH  18  19
HETATM   19  C   UNL     1      -8.499  11.059  68.610  1.00  0.00    -0.157 A  
HETATM   20  C   UNL     1      -9.176  10.269  67.664  1.00  0.00    -0.154 A  
HETATM   21  C   UNL     1      -8.906   8.906  67.541  1.00  0.00    -0.135 A  
HETATM   22  C   UNL     1      -7.928   8.328  68.343  1.00  0.00    -0.119 A  
HETATM   23  C   UNL     1      -7.498  10.463  69.389  1.00  0.00    -0.135 A  
HETATM   24  C   UNL     1      -7.221   9.098  69.267  1.00  0.00    -0.065 A  
BRANCH  22  25
HETATM   25  S   UNL     1      -7.629   6.586  68.209  1.00  0.00    -0.105 S  
HETATM   26  O   UNL     1      -8.699   5.970  67.454  1.00  0.00    -0.107 OA 
HETATM   27  O   UNL     1      -6.250   6.415  67.800  1.00  0.00    -0.023 OA 
BRANCH  25  28
HETATM   28  N   UNL     1      -7.680   6.068  69.786  1.00  0.00    -0.094 N  
HETATM   29  H   UNL     1      -6.831   6.157  70.344  1.00  0.00     0.000 HD 
BRANCH  28  30
HETATM   30  C   UNL     1      -8.795   5.524  70.393  1.00  0.00    -0.131 C  
HETATM   31  O   UNL     1      -9.419   6.069  71.289  1.00  0.00    -0.162 OA 
BRANCH  30  32
HETATM   32  N   UNL     1      -9.114   4.305  69.880  1.00  0.00    -0.096 N  
HETATM   33  H   UNL     1      -9.132   4.179  68.868  1.00  0.00     0.000 HD 
BRANCH  32  34
HETATM   34  C   UNL     1      -9.432   3.173  70.745  1.00  0.00    -0.161 C  
HETATM   35  C   UNL     1      -9.410   1.851  69.967  1.00  0.00    -0.167 C  
HETATM   36  C   UNL     1      -8.002   1.499  69.490  1.00  0.00    -0.051 C  
HETATM   37  C   UNL     1      -6.993   1.492  70.636  1.00  0.00    -0.032 C  
HETATM   38  C   UNL     1      -7.040   2.760  71.486  1.00  0.00    -0.032 C  
HETATM   39  C   UNL     1      -8.461   3.107  71.927  1.00  0.00    -0.089 C  
ENDBRANCH  32  34
ENDBRANCH  30  32
ENDBRANCH  28  30
ENDBRANCH  25  28
ENDBRANCH  22  25
ENDBRANCH  18  19
ENDBRANCH  17  18
ENDBRANCH  14  17
ENDBRANCH   2   3
TORSDOF 9
ENDMDL
MODEL      265
REMARK 921   NORMALIZED FREE ENERGY PREDICTED BY IDOCK:   -2.28 KCAL/MOL
REMARK 922        TOTAL FREE ENERGY PREDICTED BY IDOCK:   -5.62 KCAL/MOL
REMARK 923 INTER-LIGAND FREE ENERGY PREDICTED BY IDOCK:   -3.68 KCAL/MOL
REMARK 924 INTRA-LIGAND FREE ENERGY PREDICTED BY IDOCK:   -1.95 KCAL/MOL
REMARK 927      BINDING AFFINITY PREDICTED BY RF-SCORE:    0.00 PKD
ROOT
HETATM    1  C   UNL     1     -13.009  14.122  72.751  1.00  0.00    -0.422 C  
HETATM    2  O   UNL     1     -12.518  15.097  71.835  1.00  0.00    -0.309 OA 
ENDROOT
BRANCH   2   3
HETATM    3  C   UNL     1     -12.027  14.602  70.660  1.00  0.00    -0.315 A  
HETATM    4  C   UNL     1     -10.762  14.872  70.150  1.00  0.00    -0.116 A  
HETATM    5  C   UNL     1     -10.346  14.271  68.954  1.00  0.00    -0.218 A  
HETATM    6  C   UNL     1     -11.203  13.434  68.221  1.00  0.00    -0.310 A  
HETATM    7  C   UNL     1     -12.460  13.140  68.769  1.00  0.00     0.348 A  
HETATM    8  C   UNL     1     -10.734  12.825  66.905  1.00  0.00    -0.272 C  
HETATM    9  C   UNL     1      -9.429  13.474  66.419  1.00  0.00    -0.224 C  
HETATM   10  C   UNL     1     -10.386  11.335  67.121  1.00  0.00    -0.244 C  
HETATM   11  C   UNL     1     -11.798  12.942  65.799  1.00  0.00    -0.469 C  
HETATM   12  C   UNL     1     -12.858  13.708  69.984  1.00  0.00     0.123 A  
HETATM   13  O   UNL     1      -9.146  13.631  65.234  1.00  0.00     0.655 OA 
HETATM   14  N   UNL     1      -8.534  13.712  67.445  1.00  0.00    -0.191 N  
HETATM   15  O   UNL     1      -8.159  15.094  69.246  1.00  0.00    -0.199 OA 
HETATM   16  C   UNL     1      -8.920  14.414  68.566  1.00  0.00    -0.187 C  
BRANCH  14  17
HETATM   17  C   UNL     1      -7.133  13.436  67.220  1.00  0.00     0.022 C  
BRANCH  17  18
HETATM   18  C   UNL     1      -6.779  12.073  66.625  1.00  0.00     0.160 C  
BRANCH  18  19
HETATM   19  C   UNL     1      -6.935  10.963  67.651  1.00  0.00    -0.082 A  
HETATM   20  C   UNL     1      -7.231   9.640  67.277  1.00  0.00    -0.087 A  
HETATM   21  C   UNL     1      -7.430   8.648  68.236  1.00  0.00    -0.095 A  
HETATM   22  C   UNL     1      -7.299   8.965  69.584  1.00  0.00    -0.056 A  
HETATM   23  C   UNL     1      -6.781  11.255  69.014  1.00  0.00    -0.089 A  
HETATM   24  C   UNL     1      -6.975  10.264  69.979  1.00  0.00    -0.152 A  
BRANCH  22  25
HETATM   25  S   UNL     1      -7.602   7.706  70.795  1.00  0.00    -0.081 S  
HETATM   26  O   UNL     1      -6.669   7.859  71.891  1.00  0.00    -0.053 OA 
HETATM   27  O   UNL     1      -9.029   7.681  71.045  1.00  0.00    -0.144 OA 
BRANCH  25  28
HETATM   28  N   UNL     1      -7.281   6.300  69.973  1.00  0.00    -0.074 N  
HETATM   29  H   UNL     1      -6.585   6.333  69.228  1.00  0.00     0.000 HD 
BRANCH  28  30
HETATM   30  C   UNL     1      -7.892   5.089  70.229  1.00  0.00    -0.070 C  
HETATM   31  O   UNL     1      -7.943   4.569  71.332  1.00  0.00    -0.083 OA 
BRANCH  30  32
HETATM   32  N   UNL     1      -8.425   4.537  69.105  1.00  0.00    -0.078 N  
HETATM   33  H   UNL     1      -7.811   4.301  68.326  1.00  0.00     0.000 HD 
BRANCH  32  34
HETATM   34  C   UNL     1      -9.856   4.275  68.990  1.00  0.00    -0.078 C  
HETATM   35  C   UNL     1     -10.657   5.579  68.881  1.00  0.00    -0.258 C  
HETATM   36  C   UNL     1     -10.365   6.314  67.575  1.00  0.00    -0.249 C  
HETATM   37  C   UNL     1     -10.576   5.423  66.353  1.00  0.00    -0.322 C  
HETATM   38  C   UNL     1      -9.859   4.078  66.459  1.00  0.00    -0.175 C  
HETATM   39  C   UNL     1     -10.145   3.374  67.786  1.00  0.00     0.718 C  
ENDBRANCH  32  34
ENDBRANCH  30  32
ENDBRANCH  28  30
ENDBRANCH  25  28
ENDBRANCH  22  25
ENDBRANCH  18  19
ENDBRANCH  17  18
ENDBRANCH  14  17
ENDBRANCH   2   3
TORSDOF 9
ENDMDL
MODEL      266
REMARK 921   NORMALIZED FREE ENERGY PREDICTED BY IDOCK:   -2.20 KCAL/MOL
REMARK 922        TOTAL FREE ENERGY PREDICTED BY IDOCK:   -5.51 KCAL/MOL
REMARK 923 INTER-LIGAND FREE ENERGY PREDICTED BY IDOCK:   -6.30 KCAL/MOL
REMARK 924 INTRA-LIGAND FREE ENERGY PREDICTED BY IDOCK:    0.80 KCAL/MOL
REMARK 927      BINDING AFFINITY PREDICTED BY RF-SCORE:    0.00 PKD
ROOT
HETATM    1  C   UNL     1     -14.359   8.519  71.792  1.00  0.00    -0.437 C  
HETATM    2  O   UNL     1     -13.448   9.391  72.457  1.00  0.00    -0.455 OA 
ENDROOT
BRANCH   2   3
HETATM    3  C   UNL     1     -12.885  10.358  71.671  1.00  0.00    -0.474 A  
HETATM    4  C   UNL     1     -11.915  10.130  70.703  1.00  0.00    -0.423 A  
HETATM    5  C   UNL     1     -11.440  11.194  69.923  1.00  0.00    -0.386 A  
HETATM    6  C   UNL     1     -11.887  12.509  70.133  1.00  0.00    -0.336 A  
HETATM    7  C   UNL     1     -12.896  12.715  71.087  1.00  0.00    -0.311 A  
HETATM    8  C   UNL     1     -11.326  13.651  69.294  1.00  0.00    -0.323 C  
HETATM    9  C   UNL     1     -10.092  13.204  68.495  1.00  0.00    -0.200 C  
HETATM   10  C   UNL     1     -12.365  14.068  68.229  1.00  0.00    -0.012 C  
HETATM   11  C   UNL     1     -10.956  14.874  70.150  1.00  0.00    -0.211 C  
HETATM   12  C   UNL     1     -13.397  11.645  71.835  1.00  0.00    -0.403 A  
HETATM   13  O   UNL     1      -9.146  13.944  68.230  1.00  0.00    -0.184 OA 
HETATM   14  N   UNL     1     -10.227  11.936  67.961  1.00  0.00    -0.187 N  
HETATM   15  O   UNL     1     -10.238   9.711  68.544  1.00  0.00    -0.178 OA 
HETATM   16  C   UNL     1     -10.573  10.871  68.762  1.00  0.00    -0.201 C  
BRANCH  14  17
HETATM   17  C   UNL     1      -9.761  11.698  66.614  1.00  0.00    -0.202 C  
BRANCH  17  18
HETATM   18  C   UNL     1      -8.250  11.582  66.410  1.00  0.00    -0.092 C  
BRANCH  18  19
HETATM   19  C   UNL     1      -7.853  10.174  65.998  1.00  0.00    -0.122 A  
HETATM   20  C   UNL     1      -6.519   9.731  66.053  1.00  0.00    -0.080 A  
HETATM   21  C   UNL     1      -6.166   8.456  65.613  1.00  0.00    -0.048 A  
HETATM   22  C   UNL     1      -7.153   7.597  65.144  1.00  0.00    -0.060 A  
HETATM   23  C   UNL     1      -8.837   9.282  65.548  1.00  0.00    -0.224 A  
HETATM   24  C   UNL     1      -8.488   8.002  65.109  1.00  0.00    -0.117 A  
BRANCH  22  25
HETATM   25  S   UNL     1      -6.684   5.996  64.543  1.00  0.00    -0.047 S  
HETATM   26  O   UNL     1      -7.400   5.713  63.317  1.00  0.00    -0.052 OA 
HETATM   27  O   UNL     1      -5.237   5.929  64.579  1.00  0.00    -0.015 OA 
BRANCH  25  28
HETATM   28  N   UNL     1      -7.196   4.972  65.745  1.00  0.00    -0.071 N  
HETATM   29  H   UNL     1      -7.557   4.058  65.469  1.00  0.00     0.000 HD 
BRANCH  28  30
HETATM   30  C   UNL     1      -7.167   5.272  67.092  1.00  0.00    -0.078 C  
HETATM   31  O   UNL     1      -6.531   6.196  67.573  1.00  0.00    -0.043 OA 
BRANCH  30  32
HETATM   32  N   UNL     1      -7.926   4.412  67.825  1.00  0.00    -0.088 N  
HETATM   33  H   UNL     1      -8.939   4.530  67.840  1.00  0.00     0.000 HD 
BRANCH  32  34
HETATM   34  C   UNL     1      -7.324   3.325  68.589  1.00  0.00    -0.049 C  
HETATM   35  C   UNL     1      -8.014   1.986  68.297  1.00  0.00    -0.063 C  
HETATM   36  C   UNL     1      -7.777   1.530  66.859  1.00  0.00    -0.064 C  
HETATM   37  C   UNL     1      -6.292   1.483  66.507  1.00  0.00    -0.020 C  
HETATM   38  C   UNL     1      -5.550   2.771  66.859  1.00  0.00    -0.021 C  
HETATM   39  C   UNL     1      -5.825   3.222  68.293  1.00  0.00    -0.023 C  
ENDBRANCH  32  34
ENDBRANCH  30  32
ENDBRANCH  28  30
ENDBRANCH  25  28
ENDBRANCH  22  25
ENDBRANCH  18  19
ENDBRANCH  17  18
ENDBRANCH  14  17
ENDBRANCH   2   3
TORSDOF 9
ENDMDL
MODEL      267
REMARK 921   NORMALIZED FREE ENERGY PREDICTED BY IDOCK:   -2.18 KCAL/MOL
REMARK 922        TOTAL FREE ENERGY PREDICTED BY IDOCK:   -5.47 KCAL/MOL
REMARK 923 INTER-LIGAND FREE ENERGY PREDICTED BY IDOCK:   -5.21 KCAL/MOL
REMARK 924 INTRA-LIGAND FREE ENERGY PREDICTED BY IDOCK:   -0.26 KCAL/MOL
REMARK 927      BINDING AFFINITY PREDICTED BY RF-SCORE:    0.00 PKD
ROOT
HETATM    1  C   UNL     1      -5.432  17.461  70.288  1.00  0.00    -0.244 C  
HETATM    2  O   UNL     1      -5.718  16.067  70.377  1.00  0.00    -0.164 OA 
ENDROOT
BRANCH   2   3
HETATM    3  C   UNL     1      -6.728  15.625  69.570  1.00  0.00    -0.185 A  
HETATM    4  C   UNL     1      -7.100  14.294  69.419  1.00  0.00    -0.086 A  
HETATM    5  C   UNL     1      -8.184  13.959  68.597  1.00  0.00    -0.088 A  
HETATM    6  C   UNL     1      -8.880  14.939  67.871  1.00  0.00    -0.165 A  
HETATM    7  C   UNL     1      -8.518  16.281  68.065  1.00  0.00    -0.174 A  
HETATM    8  C   UNL     1     -10.032  14.539  66.955  1.00  0.00    -0.255 C  
HETATM    9  C   UNL     1     -10.077  13.018  66.744  1.00  0.00    -0.247 C  
HETATM   10  C   UNL     1     -11.375  14.892  67.632  1.00  0.00    -0.348 C  
HETATM   11  C   UNL     1      -9.955  15.236  65.586  1.00  0.00    -0.397 C  
HETATM   12  C   UNL     1      -7.462  16.616  68.919  1.00  0.00    -0.232 A  
HETATM   13  O   UNL     1     -10.451  12.486  65.701  1.00  0.00    -0.262 OA 
HETATM   14  N   UNL     1      -9.815  12.307  67.900  1.00  0.00    -0.195 N  
HETATM   15  O   UNL     1      -8.107  11.721  69.325  1.00  0.00     0.153 OA 
HETATM   16  C   UNL     1      -8.679  12.560  68.638  1.00  0.00     0.048 C  
BRANCH  14  17
HETATM   17  C   UNL     1     -10.611  11.135  68.189  1.00  0.00    -0.193 C  
BRANCH  17  18
HETATM   18  C   UNL     1      -9.874   9.799  68.278  1.00  0.00    -0.167 C  
BRANCH  18  19
HETATM   19  C   UNL     1      -9.008   9.560  67.052  1.00  0.00    -0.150 A  
HETATM   20  C   UNL     1      -7.645   9.904  67.025  1.00  0.00    -0.092 A  
HETATM   21  C   UNL     1      -6.882   9.734  65.871  1.00  0.00    -0.096 A  
HETATM   22  C   UNL     1      -7.471   9.182  64.738  1.00  0.00    -0.106 A  
HETATM   23  C   UNL     1      -9.575   8.980  65.908  1.00  0.00    -0.317 A  
HETATM   24  C   UNL     1      -8.814   8.803  64.750  1.00  0.00    -0.089 A  
BRANCH  22  25
HETATM   25  S   UNL     1      -6.503   9.014  63.262  1.00  0.00    -0.090 S  
HETATM   26  O   UNL     1      -6.806  10.106  62.362  1.00  0.00    -0.113 OA 
HETATM   27  O   UNL     1      -5.136   8.758  63.669  1.00  0.00    -0.058 OA 
BRANCH  25  28
HETATM   28  N   UNL     1      -7.038   7.583  62.615  1.00  0.00    -0.078 N  
HETATM   29  H   UNL     1      -7.645   7.629  61.796  1.00  0.00     0.000 HD 
BRANCH  28  30
HETATM   30  C   UNL     1      -6.718   6.334  63.108  1.00  0.00    -0.040 C  
HETATM   31  O   UNL     1      -5.968   5.550  62.550  1.00  0.00    -0.014 OA 
BRANCH  30  32
HETATM   32  N   UNL     1      -7.343   6.075  64.290  1.00  0.00    -0.064 N  
HETATM   33  H   UNL     1      -7.803   6.837  64.788  1.00  0.00     0.000 HD 
BRANCH  32  34
HETATM   34  C   UNL     1      -7.369   4.733  64.860  1.00  0.00    -0.071 C  
HETATM   35  C   UNL     1      -7.141   4.764  66.377  1.00  0.00    -0.075 C  
HETATM   36  C   UNL     1      -8.300   5.441  67.108  1.00  0.00    -0.107 C  
HETATM   37  C   UNL     1      -9.646   4.813  66.756  1.00  0.00    -0.184 C  
HETATM   38  C   UNL     1      -9.877   4.689  65.251  1.00  0.00    -0.139 C  
HETATM   39  C   UNL     1      -8.693   4.035  64.538  1.00  0.00    -0.124 C  
ENDBRANCH  32  34
ENDBRANCH  30  32
ENDBRANCH  28  30
ENDBRANCH  25  28
ENDBRANCH  22  25
ENDBRANCH  18  19
ENDBRANCH  17  18
ENDBRANCH  14  17
ENDBRANCH   2   3
TORSDOF 9
ENDMDL
MODEL      268
REMARK 921   NORMALIZED FREE ENERGY PREDICTED BY IDOCK:   -2.08 KCAL/MOL
REMARK 922        TOTAL FREE ENERGY PREDICTED BY IDOCK:   -5.33 KCAL/MOL
REMARK 923 INTER-LIGAND FREE ENERGY PREDICTED BY IDOCK:   -4.72 KCAL/MOL
REMARK 924 INTRA-LIGAND FREE ENERGY PREDICTED BY IDOCK:   -0.61 KCAL/MOL
REMARK 927      BINDING AFFINITY PREDICTED BY RF-SCORE:    0.00 PKD
ROOT
HETATM    1  C   UNL     1      -6.733   9.838  68.305  1.00  0.00    -0.060 C  
HETATM    2  O   UNL     1      -7.784  10.650  68.823  1.00  0.00    -0.100 OA 
ENDROOT
BRANCH   2   3
HETATM    3  C   UNL     1      -8.758   9.979  69.508  1.00  0.00    -0.192 A  
HETATM    4  C   UNL     1      -8.524   9.005  70.472  1.00  0.00    -0.226 A  
HETATM    5  C   UNL     1      -9.602   8.413  71.145  1.00  0.00    -0.226 A  
HETATM    6  C   UNL     1     -10.930   8.744  70.830  1.00  0.00    -0.294 A  
HETATM    7  C   UNL     1     -11.147   9.757  69.884  1.00  0.00    -0.293 A  
HETATM    8  C   UNL     1     -12.082   8.056  71.554  1.00  0.00    -0.330 C  
HETATM    9  C   UNL     1     -11.592   6.845  72.362  1.00  0.00    -0.239 C  
HETATM   10  C   UNL     1     -12.684   9.021  72.599  1.00  0.00    -0.279 C  
HETATM   11  C   UNL     1     -13.188   7.602  70.585  1.00  0.00     0.383 C  
HETATM   12  C   UNL     1     -10.068  10.376  69.243  1.00  0.00    -0.248 A  
HETATM   13  O   UNL     1     -12.260   5.829  72.541  1.00  0.00    -0.196 OA 
HETATM   14  N   UNL     1     -10.393   7.080  73.008  1.00  0.00    -0.234 N  
HETATM   15  O   UNL     1      -8.137   7.312  72.624  1.00  0.00    -0.100 OA 
HETATM   16  C   UNL     1      -9.299   7.546  72.312  1.00  0.00    -0.145 C  
BRANCH  14  17
HETATM   17  C   UNL     1     -10.228   6.598  74.361  1.00  0.00    -0.262 C  
BRANCH  17  18
HETATM   18  C   UNL     1     -10.201   5.083  74.562  1.00  0.00    -0.305 C  
BRANCH  18  19
HETATM   19  C   UNL     1      -9.338   4.400  73.514  1.00  0.00    -0.122 A  
HETATM   20  C   UNL     1      -7.948   4.263  73.670  1.00  0.00    -0.090 A  
HETATM   21  C   UNL     1      -7.165   3.688  72.670  1.00  0.00    -0.049 A  
HETATM   22  C   UNL     1      -7.774   3.210  71.515  1.00  0.00    -0.055 A  
HETATM   23  C   UNL     1      -9.936   3.887  72.354  1.00  0.00    -0.232 A  
HETATM   24  C   UNL     1      -9.157   3.306  71.351  1.00  0.00    -0.173 A  
BRANCH  22  25
HETATM   25  S   UNL     1      -6.763   2.524  70.231  1.00  0.00    -0.033 S  
HETATM   26  O   UNL     1      -5.443   2.245  70.755  1.00  0.00    -0.011 OA 
HETATM   27  O   UNL     1      -7.532   1.479  69.587  1.00  0.00    -0.036 OA 
BRANCH  25  28
HETATM   28  N   UNL     1      -6.678   3.750  69.115  1.00  0.00    -0.044 N  
HETATM   29  H   UNL     1      -6.989   4.678  69.403  1.00  0.00     0.000 HD 
BRANCH  28  30
HETATM   30  C   UNL     1      -6.216   3.599  67.822  1.00  0.00    -0.033 C  
HETATM   31  O   UNL     1      -5.501   2.681  67.455  1.00  0.00    -0.016 OA 
BRANCH  30  32
HETATM   32  N   UNL     1      -6.644   4.600  67.005  1.00  0.00    -0.049 N  
HETATM   33  H   UNL     1      -6.798   5.530  67.395  1.00  0.00     0.000 HD 
BRANCH  32  34
HETATM   34  C   UNL     1      -6.888   4.373  65.585  1.00  0.00    -0.057 C  
HETATM   35  C   UNL     1      -8.302   4.812  65.183  1.00  0.00    -0.129 C  
HETATM   36  C   UNL     1      -8.477   6.325  65.294  1.00  0.00    -0.113 C  
HETATM   37  C   UNL     1      -7.409   7.086  64.512  1.00  0.00    -0.084 C  
HETATM   38  C   UNL     1      -5.988   6.621  64.825  1.00  0.00    -0.035 C  
HETATM   39  C   UNL     1      -5.845   5.102  64.734  1.00  0.00    -0.017 C  
ENDBRANCH  32  34
ENDBRANCH  30  32
ENDBRANCH  28  30
ENDBRANCH  25  28
ENDBRANCH  22  25
ENDBRANCH  18  19
ENDBRANCH  17  18
ENDBRANCH  14  17
ENDBRANCH   2   3
TORSDOF 9
ENDMDL
MODEL      269
REMARK 921   NORMALIZED FREE ENERGY PREDICTED BY IDOCK:   -1.96 KCAL/MOL
REMARK 922        TOTAL FREE ENERGY PREDICTED BY IDOCK:   -5.15 KCAL/MOL
REMARK 923 INTER-LIGAND FREE ENERGY PREDICTED BY IDOCK:   -7.59 KCAL/MOL
REMARK 924 INTRA-LIGAND FREE ENERGY PREDICTED BY IDOCK:    2.45 KCAL/MOL
REMARK 927      BINDING AFFINITY PREDICTED BY RF-SCORE:    0.00 PKD
ROOT
HETATM    1  C   UNL     1      -9.708  10.138  64.696  1.00  0.00    -0.309 C  
HETATM    2  O   UNL     1     -10.109  11.476  64.413  1.00  0.00    -0.249 OA 
ENDROOT
BRANCH   2   3
HETATM    3  C   UNL     1     -10.359  12.255  65.508  1.00  0.00    -0.267 A  
HETATM    4  C   UNL     1     -11.204  11.908  66.555  1.00  0.00    -0.383 A  
HETATM    5  C   UNL     1     -11.351  12.768  67.652  1.00  0.00    -0.359 A  
HETATM    6  C   UNL     1     -10.699  14.011  67.696  1.00  0.00    -0.261 A  
HETATM    7  C   UNL     1      -9.820  14.330  66.651  1.00  0.00    -0.288 A  
HETATM    8  C   UNL     1     -10.908  14.942  68.886  1.00  0.00    -0.253 C  
HETATM    9  C   UNL     1     -12.074  14.471  69.768  1.00  0.00    -0.331 C  
HETATM   10  C   UNL     1      -9.665  14.893  69.803  1.00  0.00     0.085 C  
HETATM   11  C   UNL     1     -11.160  16.395  68.450  1.00  0.00    -0.351 C  
HETATM   12  C   UNL     1      -9.643  13.450  65.577  1.00  0.00     0.036 A  
HETATM   13  O   UNL     1     -12.815  15.234  70.384  1.00  0.00    -0.370 OA 
HETATM   14  N   UNL     1     -12.105  13.098  69.932  1.00  0.00    -0.309 N  
HETATM   15  O   UNL     1     -12.597  11.146  68.819  1.00  0.00    -0.345 OA 
HETATM   16  C   UNL     1     -12.085  12.260  68.838  1.00  0.00    -0.126 C  
BRANCH  14  17
HETATM   17  C   UNL     1     -12.406  12.563  71.240  1.00  0.00    -0.047 C  
BRANCH  17  18
HETATM   18  C   UNL     1     -13.152  11.229  71.290  1.00  0.00    -0.317 C  
BRANCH  18  19
HETATM   19  C   UNL     1     -12.215  10.082  71.634  1.00  0.00    -0.456 A  
HETATM   20  C   UNL     1     -12.560   9.097  72.576  1.00  0.00    -0.311 A  
HETATM   21  C   UNL     1     -11.662   8.088  72.922  1.00  0.00    -0.222 A  
HETATM   22  C   UNL     1     -10.420   8.035  72.300  1.00  0.00    -0.279 A  
HETATM   23  C   UNL     1     -10.968   9.995  70.999  1.00  0.00    -0.267 A  
HETATM   24  C   UNL     1     -10.067   8.983  71.339  1.00  0.00    -0.399 A  
BRANCH  22  25
HETATM   25  S   UNL     1      -9.270   6.775  72.784  1.00  0.00    -0.134 S  
HETATM   26  O   UNL     1      -8.755   7.074  74.103  1.00  0.00    -0.154 OA 
HETATM   27  O   UNL     1      -9.893   5.495  72.513  1.00  0.00    -0.161 OA 
BRANCH  25  28
HETATM   28  N   UNL     1      -8.057   6.913  71.660  1.00  0.00    -0.105 N  
HETATM   29  H   UNL     1      -7.330   7.610  71.827  1.00  0.00     0.000 HD 
BRANCH  28  30
HETATM   30  C   UNL     1      -7.963   6.149  70.513  1.00  0.00    -0.111 C  
HETATM   31  O   UNL     1      -7.766   6.609  69.400  1.00  0.00    -0.097 OA 
BRANCH  30  32
HETATM   32  N   UNL     1      -8.123   4.822  70.769  1.00  0.00    -0.084 N  
HETATM   33  H   UNL     1      -8.996   4.365  70.505  1.00  0.00     0.000 HD 
BRANCH  32  34
HETATM   34  C   UNL     1      -7.074   4.037  71.411  1.00  0.00    -0.036 C  
HETATM   35  C   UNL     1      -7.050   4.269  72.927  1.00  0.00    -0.067 C  
HETATM   36  C   UNL     1      -8.308   3.724  73.601  1.00  0.00    -0.087 C  
HETATM   37  C   UNL     1      -8.552   2.256  73.262  1.00  0.00    -0.070 C  
HETATM   38  C   UNL     1      -8.503   1.969  71.762  1.00  0.00    -0.076 C  
HETATM   39  C   UNL     1      -7.250   2.547  71.105  1.00  0.00    -0.033 C  
ENDBRANCH  32  34
ENDBRANCH  30  32
ENDBRANCH  28  30
ENDBRANCH  25  28
ENDBRANCH  22  25
ENDBRANCH  18  19
ENDBRANCH  17  18
ENDBRANCH  14  17
ENDBRANCH   2   3
TORSDOF 9
ENDMDL
MODEL      270
REMARK 921   NORMALIZED FREE ENERGY PREDICTED BY IDOCK:   -1.74 KCAL/MOL
REMARK 922        TOTAL FREE ENERGY PREDICTED BY IDOCK:   -4.81 KCAL/MOL
REMARK 923 INTER-LIGAND FREE ENERGY PREDICTED BY IDOCK:   -4.49 KCAL/MOL
REMARK 924 INTRA-LIGAND FREE ENERGY PREDICTED BY IDOCK:   -0.32 KCAL/MOL
REMARK 927      BINDING AFFINITY PREDICTED BY RF-SCORE:    0.00 PKD
ROOT
HETATM    1  C   UNL     1     -11.003  17.098  68.483  1.00  0.00    -0.204 C  
HETATM    2  O   UNL     1     -11.674  15.915  68.909  1.00  0.00    -0.390 OA 
ENDROOT
BRANCH   2   3
HETATM    3  C   UNL     1     -10.926  14.772  68.872  1.00  0.00    -0.254 A  
HETATM    4  C   UNL     1     -11.435  13.484  68.986  1.00  0.00    -0.349 A  
HETATM    5  C   UNL     1     -10.578  12.380  68.888  1.00  0.00    -0.160 A  
HETATM    6  C   UNL     1      -9.192  12.545  68.729  1.00  0.00     0.143 A  
HETATM    7  C   UNL     1      -8.699  13.849  68.576  1.00  0.00    -0.134 A  
HETATM    8  C   UNL     1      -8.280  11.325  68.663  1.00  0.00    -0.146 C  
HETATM    9  C   UNL     1      -9.023  10.046  69.080  1.00  0.00    -0.163 C  
HETATM   10  C   UNL     1      -7.849  11.081  67.200  1.00  0.00    -0.135 C  
HETATM   11  C   UNL     1      -7.026  11.488  69.541  1.00  0.00    -0.034 C  
HETATM   12  C   UNL     1      -9.563  14.948  68.632  1.00  0.00    -0.222 A  
HETATM   13  O   UNL     1      -8.487   9.105  69.662  1.00  0.00    -0.118 OA 
HETATM   14  N   UNL     1     -10.313   9.990  68.587  1.00  0.00    -0.181 N  
HETATM   15  O   UNL     1     -12.408  10.898  68.870  1.00  0.00    -0.486 OA 
HETATM   16  C   UNL     1     -11.191  11.031  68.796  1.00  0.00    -0.266 C  
BRANCH  14  17
HETATM   17  C   UNL     1     -10.804   8.732  68.070  1.00  0.00     0.008 C  
BRANCH  17  18
HETATM   18  C   UNL     1      -9.935   7.497  68.306  1.00  0.00    -0.193 C  
BRANCH  18  19
HETATM   19  C   UNL     1      -9.037   7.214  67.112  1.00  0.00    -0.141 A  
HETATM   20  C   UNL     1      -8.075   6.189  67.131  1.00  0.00    -0.106 A  
HETATM   21  C   UNL     1      -7.220   5.985  66.049  1.00  0.00    -0.075 A  
HETATM   22  C   UNL     1      -7.344   6.787  64.919  1.00  0.00    -0.087 A  
HETATM   23  C   UNL     1      -9.164   7.993  65.953  1.00  0.00    -0.128 A  
HETATM   24  C   UNL     1      -8.312   7.791  64.865  1.00  0.00    -0.071 A  
BRANCH  22  25
HETATM   25  S   UNL     1      -6.219   6.549  63.570  1.00  0.00    -0.034 S  
HETATM   26  O   UNL     1      -5.932   7.826  62.952  1.00  0.00    -0.064 OA 
HETATM   27  O   UNL     1      -5.141   5.708  64.049  1.00  0.00    -0.009 OA 
BRANCH  25  28
HETATM   28  N   UNL     1      -7.080   5.594  62.519  1.00  0.00    -0.040 N  
HETATM   29  H   UNL     1      -6.555   5.007  61.871  1.00  0.00     0.000 HD 
BRANCH  28  30
HETATM   30  C   UNL     1      -8.458   5.540  62.464  1.00  0.00    -0.088 C  
HETATM   31  O   UNL     1      -9.176   6.519  62.344  1.00  0.00     0.545 OA 
BRANCH  30  32
HETATM   32  N   UNL     1      -8.925   4.265  62.566  1.00  0.00    -0.107 N  
HETATM   33  H   UNL     1      -8.390   3.504  62.149  1.00  0.00     0.000 HD 
BRANCH  32  34
HETATM   34  C   UNL     1     -10.173   3.963  63.259  1.00  0.00    -0.173 C  
HETATM   35  C   UNL     1     -10.657   2.542  62.944  1.00  0.00    -0.177 C  
HETATM   36  C   UNL     1      -9.716   1.485  63.516  1.00  0.00    -0.117 C  
HETATM   37  C   UNL     1      -9.475   1.677  65.012  1.00  0.00     0.012 C  
HETATM   38  C   UNL     1      -9.068   3.104  65.376  1.00  0.00    -0.150 C  
HETATM   39  C   UNL     1     -10.009   4.145  64.770  1.00  0.00    -0.196 C  
ENDBRANCH  32  34
ENDBRANCH  30  32
ENDBRANCH  28  30
ENDBRANCH  25  28
ENDBRANCH  22  25
ENDBRANCH  18  19
ENDBRANCH  17  18
ENDBRANCH  14  17
ENDBRANCH   2   3
TORSDOF 9
ENDMDL
MODEL      271
REMARK 921   NORMALIZED FREE ENERGY PREDICTED BY IDOCK:   -1.71 KCAL/MOL
REMARK 922        TOTAL FREE ENERGY PREDICTED BY IDOCK:   -4.76 KCAL/MOL
REMARK 923 INTER-LIGAND FREE ENERGY PREDICTED BY IDOCK:   -4.99 KCAL/MOL
REMARK 924 INTRA-LIGAND FREE ENERGY PREDICTED BY IDOCK:    0.23 KCAL/MOL
REMARK 927      BINDING AFFINITY PREDICTED BY RF-SCORE:    0.00 PKD
ROOT
HETATM    1  C   UNL     1     -11.031  20.027  67.888  1.00  0.00     0.209 C  
HETATM    2  O   UNL     1     -10.207  19.084  68.568  1.00  0.00    -0.383 OA 
ENDROOT
BRANCH   2   3
HETATM    3  C   UNL     1     -10.311  17.794  68.131  1.00  0.00    -0.391 A  
HETATM    4  C   UNL     1      -9.260  17.039  67.623  1.00  0.00    -0.233 A  
HETATM    5  C   UNL     1      -9.473  15.706  67.245  1.00  0.00    -0.221 A  
HETATM    6  C   UNL     1     -10.748  15.122  67.316  1.00  0.00    -0.305 A  
HETATM    7  C   UNL     1     -11.789  15.884  67.868  1.00  0.00     0.155 A  
HETATM    8  C   UNL     1     -10.956  13.682  66.863  1.00  0.00    -0.296 C  
HETATM    9  C   UNL     1      -9.732  13.153  66.099  1.00  0.00    -0.248 C  
HETATM   10  C   UNL     1     -11.086  12.765  68.100  1.00  0.00    -0.288 C  
HETATM   11  C   UNL     1     -12.207  13.525  65.981  1.00  0.00    -0.493 C  
HETATM   12  C   UNL     1     -11.565  17.201  68.283  1.00  0.00     0.624 A  
HETATM   13  O   UNL     1      -9.802  12.344  65.176  1.00  0.00    -0.232 OA 
HETATM   14  N   UNL     1      -8.534  13.549  66.664  1.00  0.00     0.047 N  
HETATM   15  O   UNL     1      -7.164  15.378  66.921  1.00  0.00    -0.172 OA 
HETATM   16  C   UNL     1      -8.284  14.879  66.918  1.00  0.00    -0.143 C  
BRANCH  14  17
HETATM   17  C   UNL     1      -7.458  12.588  66.753  1.00  0.00     0.244 C  
BRANCH  17  18
HETATM   18  C   UNL     1      -6.621  12.597  68.032  1.00  0.00    -0.095 C  
BRANCH  18  19
HETATM   19  C   UNL     1      -6.830  11.327  68.841  1.00  0.00    -0.086 A  
HETATM   20  C   UNL     1      -5.760  10.650  69.451  1.00  0.00    -0.038 A  
HETATM   21  C   UNL     1      -5.963   9.453  70.138  1.00  0.00    -0.037 A  
HETATM   22  C   UNL     1      -7.251   8.940  70.249  1.00  0.00    -0.054 A  
HETATM   23  C   UNL     1      -8.123  10.807  68.988  1.00  0.00    -0.140 A  
HETATM   24  C   UNL     1      -8.333   9.611  69.678  1.00  0.00    -0.173 A  
BRANCH  22  25
HETATM   25  S   UNL     1      -7.490   7.394  71.083  1.00  0.00    -0.078 S  
HETATM   26  O   UNL     1      -6.925   6.326  70.287  1.00  0.00    -0.058 OA 
HETATM   27  O   UNL     1      -7.078   7.578  72.460  1.00  0.00    -0.066 OA 
BRANCH  25  28
HETATM   28  N   UNL     1      -9.142   7.243  71.142  1.00  0.00    -0.151 N  
HETATM   29  H   UNL     1      -9.553   6.842  71.984  1.00  0.00     0.000 HD 
BRANCH  28  30
HETATM   30  C   UNL     1      -9.997   7.624  70.127  1.00  0.00    -0.186 C  
HETATM   31  O   UNL     1     -11.006   8.288  70.297  1.00  0.00    -0.241 OA 
BRANCH  30  32
HETATM   32  N   UNL     1      -9.587   7.165  68.913  1.00  0.00    -0.142 N  
HETATM   33  H   UNL     1      -8.689   6.688  68.837  1.00  0.00     0.000 HD 
BRANCH  32  34
HETATM   34  C   UNL     1     -10.404   7.339  67.716  1.00  0.00    -0.209 C  
HETATM   35  C   UNL     1      -9.756   8.324  66.735  1.00  0.00    -0.307 C  
HETATM   36  C   UNL     1      -8.457   7.770  66.152  1.00  0.00    -0.143 C  
HETATM   37  C   UNL     1      -8.653   6.395  65.519  1.00  0.00    -0.115 C  
HETATM   38  C   UNL     1      -9.370   5.406  66.437  1.00  0.00    -0.157 C  
HETATM   39  C   UNL     1     -10.650   5.993  67.029  1.00  0.00    -0.385 C  
ENDBRANCH  32  34
ENDBRANCH  30  32
ENDBRANCH  28  30
ENDBRANCH  25  28
ENDBRANCH  22  25
ENDBRANCH  18  19
ENDBRANCH  17  18
ENDBRANCH  14  17
ENDBRANCH   2   3
TORSDOF 9
ENDMDL
MODEL      272
REMARK 921   NORMALIZED FREE ENERGY PREDICTED BY IDOCK:   -1.68 KCAL/MOL
REMARK 922        TOTAL FREE ENERGY PREDICTED BY IDOCK:   -4.72 KCAL/MOL
REMARK 923 INTER-LIGAND FREE ENERGY PREDICTED BY IDOCK:   -5.25 KCAL/MOL
REMARK 924 INTRA-LIGAND FREE ENERGY PREDICTED BY IDOCK:    0.53 KCAL/MOL
REMARK 927      BINDING AFFINITY PREDICTED BY RF-SCORE:    0.00 PKD
ROOT
HETATM    1  C   UNL     1      -6.562  10.101  68.162  1.00  0.00    -0.058 C  
HETATM    2  O   UNL     1      -7.486  10.944  68.846  1.00  0.00    -0.098 OA 
ENDROOT
BRANCH   2   3
HETATM    3  C   UNL     1      -8.497  10.295  69.497  1.00  0.00    -0.142 A  
HETATM    4  C   UNL     1      -8.322   9.250  70.397  1.00  0.00    -0.224 A  
HETATM    5  C   UNL     1      -9.432   8.688  71.042  1.00  0.00    -0.261 A  
HETATM    6  C   UNL     1     -10.738   9.122  70.760  1.00  0.00    -0.327 A  
HETATM    7  C   UNL     1     -10.894  10.203  69.879  1.00  0.00    -0.347 A  
HETATM    8  C   UNL     1     -11.928   8.465  71.450  1.00  0.00    -0.337 C  
HETATM    9  C   UNL     1     -11.513   7.178  72.178  1.00  0.00    -0.269 C  
HETATM   10  C   UNL     1     -12.462   9.400  72.558  1.00  0.00    -0.140 C  
HETATM   11  C   UNL     1     -13.066   8.144  70.466  1.00  0.00     0.810 C  
HETATM   12  C   UNL     1      -9.781  10.790  69.269  1.00  0.00    -0.142 A  
HETATM   13  O   UNL     1     -12.245   6.197  72.300  1.00  0.00    -0.293 OA 
HETATM   14  N   UNL     1     -10.298   7.295  72.827  1.00  0.00    -0.217 N  
HETATM   15  O   UNL     1      -8.034   7.406  72.437  1.00  0.00    -0.096 OA 
HETATM   16  C   UNL     1      -9.181   7.732  72.150  1.00  0.00    -0.149 C  
BRANCH  14  17
HETATM   17  C   UNL     1     -10.158   6.721  74.146  1.00  0.00    -0.350 C  
BRANCH  17  18
HETATM   18  C   UNL     1      -9.981   5.205  74.230  1.00  0.00    -0.231 C  
BRANCH  18  19
HETATM   19  C   UNL     1      -9.281   4.659  72.996  1.00  0.00    -0.131 A  
HETATM   20  C   UNL     1      -7.883   4.689  72.860  1.00  0.00    -0.092 A  
HETATM   21  C   UNL     1      -7.263   4.239  71.695  1.00  0.00    -0.054 A  
HETATM   22  C   UNL     1      -8.040   3.720  70.665  1.00  0.00    -0.054 A  
HETATM   23  C   UNL     1     -10.044   4.106  71.958  1.00  0.00    -0.234 A  
HETATM   24  C   UNL     1      -9.428   3.650  70.789  1.00  0.00    -0.238 A  
BRANCH  22  25
HETATM   25  S   UNL     1      -7.244   3.195  69.170  1.00  0.00    -0.048 S  
HETATM   26  O   UNL     1      -6.071   4.011  68.938  1.00  0.00    -0.026 OA 
HETATM   27  O   UNL     1      -7.134   1.751  69.223  1.00  0.00    -0.036 OA 
BRANCH  25  28
HETATM   28  N   UNL     1      -8.384   3.501  68.003  1.00  0.00    -0.083 N  
HETATM   29  H   UNL     1      -8.617   4.475  67.809  1.00  0.00     0.000 HD 
BRANCH  28  30
HETATM   30  C   UNL     1      -9.038   2.526  67.276  1.00  0.00    -0.157 C  
HETATM   31  O   UNL     1      -9.517   1.515  67.764  1.00  0.00    -0.148 OA 
BRANCH  30  32
HETATM   32  N   UNL     1      -9.082   2.821  65.948  1.00  0.00    -0.199 N  
HETATM   33  H   UNL     1      -8.803   2.111  65.271  1.00  0.00     0.000 HD 
BRANCH  32  34
HETATM   34  C   UNL     1      -9.519   4.128  65.471  1.00  0.00    -0.176 C  
HETATM   35  C   UNL     1      -8.448   4.791  64.595  1.00  0.00    -0.139 C  
HETATM   36  C   UNL     1      -8.240   4.032  63.286  1.00  0.00    -0.087 C  
HETATM   37  C   UNL     1      -9.547   3.834  62.522  1.00  0.00    -0.113 C  
HETATM   38  C   UNL     1     -10.666   3.251  63.384  1.00  0.00    -0.241 C  
HETATM   39  C   UNL     1     -10.836   4.010  64.699  1.00  0.00    -0.122 C  
ENDBRANCH  32  34
ENDBRANCH  30  32
ENDBRANCH  28  30
ENDBRANCH  25  28
ENDBRANCH  22  25
ENDBRANCH  18  19
ENDBRANCH  17  18
ENDBRANCH  14  17
ENDBRANCH   2   3
TORSDOF 9
ENDMDL
MODEL      273
REMARK 921   NORMALIZED FREE ENERGY PREDICTED BY IDOCK:   -1.57 KCAL/MOL
REMARK 922        TOTAL FREE ENERGY PREDICTED BY IDOCK:   -4.54 KCAL/MOL
REMARK 923 INTER-LIGAND FREE ENERGY PREDICTED BY IDOCK:   -5.84 KCAL/MOL
REMARK 924 INTRA-LIGAND FREE ENERGY PREDICTED BY IDOCK:    1.29 KCAL/MOL
REMARK 927      BINDING AFFINITY PREDICTED BY RF-SCORE:    0.00 PKD
ROOT
HETATM    1  C   UNL     1     -12.347  13.452  63.229  1.00  0.00    -0.169 C  
HETATM    2  O   UNL     1     -12.402  12.463  64.254  1.00  0.00    -0.432 OA 
ENDROOT
BRANCH   2   3
HETATM    3  C   UNL     1     -11.273  11.708  64.399  1.00  0.00    -0.291 A  
HETATM    4  C   UNL     1     -10.971  10.936  65.514  1.00  0.00    -0.024 A  
HETATM    5  C   UNL     1      -9.802  10.163  65.536  1.00  0.00    -0.365 A  
HETATM    6  C   UNL     1      -8.889  10.190  64.469  1.00  0.00    -0.228 A  
HETATM    7  C   UNL     1      -9.228  10.944  63.335  1.00  0.00    -0.276 A  
HETATM    8  C   UNL     1      -7.607   9.368  64.537  1.00  0.00    -0.110 C  
HETATM    9  C   UNL     1      -7.366   8.823  65.953  1.00  0.00    -0.085 C  
HETATM   10  C   UNL     1      -7.750   8.115  63.643  1.00  0.00    -0.143 C  
HETATM   11  C   UNL     1      -6.375  10.173  64.089  1.00  0.00    -0.126 C  
HETATM   12  C   UNL     1     -10.416  11.681  63.299  1.00  0.00    -0.438 A  
HETATM   13  O   UNL     1      -6.249   8.661  66.440  1.00  0.00    -0.058 OA 
HETATM   14  N   UNL     1      -8.524   8.377  66.562  1.00  0.00    -0.109 N  
HETATM   15  O   UNL     1     -10.465   9.126  67.543  1.00  0.00    -0.245 OA 
HETATM   16  C   UNL     1      -9.632   9.192  66.646  1.00  0.00    -0.203 C  
BRANCH  14  17
HETATM   17  C   UNL     1      -8.479   7.149  67.323  1.00  0.00    -0.122 C  
BRANCH  17  18
HETATM   18  C   UNL     1      -8.114   7.262  68.804  1.00  0.00    -0.124 C  
BRANCH  18  19
HETATM   19  C   UNL     1      -7.568   8.640  69.138  1.00  0.00    -0.089 A  
HETATM   20  C   UNL     1      -8.406   9.762  69.266  1.00  0.00    -0.142 A  
HETATM   21  C   UNL     1      -7.880  11.029  69.512  1.00  0.00     0.083 A  
HETATM   22  C   UNL     1      -6.507  11.180  69.668  1.00  0.00    -0.128 A  
HETATM   23  C   UNL     1      -6.189   8.810  69.325  1.00  0.00    -0.042 A  
HETATM   24  C   UNL     1      -5.657  10.077  69.576  1.00  0.00    -0.037 A  
BRANCH  22  25
HETATM   25  S   UNL     1      -5.846  12.804  69.933  1.00  0.00    -0.142 S  
HETATM   26  O   UNL     1      -5.127  12.832  71.189  1.00  0.00    -0.133 OA 
HETATM   27  O   UNL     1      -5.193  13.210  68.706  1.00  0.00    -0.067 OA 
BRANCH  25  28
HETATM   28  N   UNL     1      -7.202  13.755  70.038  1.00  0.00    -0.136 N  
HETATM   29  H   UNL     1      -8.032  13.355  70.476  1.00  0.00     0.000 HD 
BRANCH  28  30
HETATM   30  C   UNL     1      -7.283  15.053  69.573  1.00  0.00    -0.199 C  
HETATM   31  O   UNL     1      -6.598  15.973  69.991  1.00  0.00    -0.135 OA 
BRANCH  30  32
HETATM   32  N   UNL     1      -8.223  15.190  68.598  1.00  0.00    -0.145 N  
HETATM   33  H   UNL     1      -8.021  14.846  67.660  1.00  0.00     0.000 HD 
BRANCH  32  34
HETATM   34  C   UNL     1      -9.513  15.817  68.865  1.00  0.00    -0.229 C  
HETATM   35  C   UNL     1      -9.342  17.171  69.565  1.00  0.00     0.375 C  
HETATM   36  C   UNL     1      -8.674  18.199  68.654  1.00  0.00    -0.280 C  
HETATM   37  C   UNL     1      -9.404  18.345  67.321  1.00  0.00    -0.271 C  
HETATM   38  C   UNL     1      -9.666  17.009  66.629  1.00  0.00    -0.287 C  
HETATM   39  C   UNL     1     -10.308  15.989  67.568  1.00  0.00    -0.287 C  
ENDBRANCH  32  34
ENDBRANCH  30  32
ENDBRANCH  28  30
ENDBRANCH  25  28
ENDBRANCH  22  25
ENDBRANCH  18  19
ENDBRANCH  17  18
ENDBRANCH  14  17
ENDBRANCH   2   3
TORSDOF 9
ENDMDL
MODEL      274
REMARK 921   NORMALIZED FREE ENERGY PREDICTED BY IDOCK:   -1.56 KCAL/MOL
REMARK 922        TOTAL FREE ENERGY PREDICTED BY IDOCK:   -4.54 KCAL/MOL
REMARK 923 INTER-LIGAND FREE ENERGY PREDICTED BY IDOCK:   -4.05 KCAL/MOL
REMARK 924 INTRA-LIGAND FREE ENERGY PREDICTED BY IDOCK:   -0.49 KCAL/MOL
REMARK 927      BINDING AFFINITY PREDICTED BY RF-SCORE:    0.00 PKD
ROOT
HETATM    1  C   UNL     1     -13.423  12.923  64.582  1.00  0.00     1.031 C  
HETATM    2  O   UNL     1     -12.135  13.282  64.088  1.00  0.00    -0.404 OA 
ENDROOT
BRANCH   2   3
HETATM    3  C   UNL     1     -11.465  14.217  64.826  1.00  0.00    -0.383 A  
HETATM    4  C   UNL     1     -10.871  13.979  66.060  1.00  0.00    -0.295 A  
HETATM    5  C   UNL     1     -10.169  15.004  66.709  1.00  0.00    -0.260 A  
HETATM    6  C   UNL     1     -10.094  16.296  66.163  1.00  0.00    -0.362 A  
HETATM    7  C   UNL     1     -10.665  16.509  64.899  1.00  0.00    -0.168 A  
HETATM    8  C   UNL     1      -9.355  17.400  66.910  1.00  0.00    -0.271 C  
HETATM    9  C   UNL     1      -9.025  16.978  68.350  1.00  0.00    -0.247 C  
HETATM   10  C   UNL     1      -7.985  17.649  66.240  1.00  0.00    -0.292 C  
HETATM   11  C   UNL     1     -10.152  18.716  66.941  1.00  0.00    -0.399 C  
HETATM   12  C   UNL     1     -11.329  15.473  64.235  1.00  0.00    -0.165 A  
HETATM   13  O   UNL     1      -8.989  17.760  69.298  1.00  0.00     0.040 OA 
HETATM   14  N   UNL     1      -8.609  15.663  68.443  1.00  0.00    -0.168 N  
HETATM   15  O   UNL     1      -9.387  13.501  68.344  1.00  0.00    -0.203 OA 
HETATM   16  C   UNL     1      -9.371  14.647  67.909  1.00  0.00    -0.198 C  
BRANCH  14  17
HETATM   17  C   UNL     1      -7.503  15.345  69.317  1.00  0.00    -0.207 C  
BRANCH  17  18
HETATM   18  C   UNL     1      -6.243  14.775  68.665  1.00  0.00    -0.086 C  
BRANCH  18  19
HETATM   19  C   UNL     1      -6.374  13.281  68.417  1.00  0.00    -0.086 A  
HETATM   20  C   UNL     1      -6.592  12.370  69.465  1.00  0.00    -0.048 A  
HETATM   21  C   UNL     1      -6.648  10.998  69.225  1.00  0.00    -0.091 A  
HETATM   22  C   UNL     1      -6.521  10.526  67.923  1.00  0.00    -0.060 A  
HETATM   23  C   UNL     1      -6.275  12.788  67.109  1.00  0.00     0.086 A  
HETATM   24  C   UNL     1      -6.335  11.413  66.862  1.00  0.00    -0.137 A  
BRANCH  22  25
HETATM   25  S   UNL     1      -6.547   8.777  67.637  1.00  0.00    -0.062 S  
HETATM   26  O   UNL     1      -7.835   8.244  68.027  1.00  0.00    -0.114 OA 
HETATM   27  O   UNL     1      -6.033   8.550  66.302  1.00  0.00    -0.043 OA 
BRANCH  25  28
HETATM   28  N   UNL     1      -5.369   8.206  68.657  1.00  0.00    -0.031 N  
HETATM   29  H   UNL     1      -4.481   8.708  68.688  1.00  0.00     0.000 HD 
BRANCH  28  30
HETATM   30  C   UNL     1      -5.508   7.097  69.469  1.00  0.00    -0.015 C  
HETATM   31  O   UNL     1      -5.409   5.946  69.076  1.00  0.00    -0.004 OA 
BRANCH  30  32
HETATM   32  N   UNL     1      -5.776   7.437  70.759  1.00  0.00    -0.027 N  
HETATM   33  H   UNL     1      -6.271   8.307  70.952  1.00  0.00     0.000 HD 
BRANCH  32  34
HETATM   34  C   UNL     1      -5.372   6.585  71.872  1.00  0.00    -0.028 C  
HETATM   35  C   UNL     1      -5.764   7.202  73.220  1.00  0.00    -0.045 C  
HETATM   36  C   UNL     1      -7.280   7.254  73.398  1.00  0.00    -0.080 C  
HETATM   37  C   UNL     1      -7.930   5.887  73.197  1.00  0.00    -0.110 C  
HETATM   38  C   UNL     1      -7.500   5.202  71.900  1.00  0.00    -0.094 C  
HETATM   39  C   UNL     1      -5.981   5.188  71.732  1.00  0.00    -0.025 C  
ENDBRANCH  32  34
ENDBRANCH  30  32
ENDBRANCH  28  30
ENDBRANCH  25  28
ENDBRANCH  22  25
ENDBRANCH  18  19
ENDBRANCH  17  18
ENDBRANCH  14  17
ENDBRANCH   2   3
TORSDOF 9
ENDMDL
MODEL      275
REMARK 921   NORMALIZED FREE ENERGY PREDICTED BY IDOCK:   -1.55 KCAL/MOL
REMARK 922        TOTAL FREE ENERGY PREDICTED BY IDOCK:   -4.52 KCAL/MOL
REMARK 923 INTER-LIGAND FREE ENERGY PREDICTED BY IDOCK:   -2.57 KCAL/MOL
REMARK 924 INTRA-LIGAND FREE ENERGY PREDICTED BY IDOCK:   -1.94 KCAL/MOL
REMARK 927      BINDING AFFINITY PREDICTED BY RF-SCORE:    0.00 PKD
ROOT
HETATM    1  C   UNL     1      -7.262  16.795  70.327  1.00  0.00     1.526 C  
HETATM    2  O   UNL     1      -6.092  16.016  70.092  1.00  0.00    -0.175 OA 
ENDROOT
BRANCH   2   3
HETATM    3  C   UNL     1      -6.309  14.681  69.891  1.00  0.00    -0.158 A  
HETATM    4  C   UNL     1      -7.174  14.151  68.940  1.00  0.00    -0.118 A  
HETATM    5  C   UNL     1      -7.284  12.762  68.791  1.00  0.00    -0.077 A  
HETATM    6  C   UNL     1      -6.575  11.880  69.624  1.00  0.00    -0.062 A  
HETATM    7  C   UNL     1      -5.678  12.431  70.550  1.00  0.00    -0.162 A  
HETATM    8  C   UNL     1      -6.745  10.374  69.462  1.00  0.00    -0.081 C  
HETATM    9  C   UNL     1      -7.936  10.038  68.551  1.00  0.00    -0.102 C  
HETATM   10  C   UNL     1      -5.509   9.790  68.740  1.00  0.00    -0.036 C  
HETATM   11  C   UNL     1      -6.927   9.661  70.813  1.00  0.00    -0.087 C  
HETATM   12  C   UNL     1      -5.538  13.818  70.668  1.00  0.00    -0.165 A  
HETATM   13  O   UNL     1      -8.641   9.042  68.691  1.00  0.00    -0.126 OA 
HETATM   14  N   UNL     1      -8.031  10.880  67.459  1.00  0.00    -0.114 N  
HETATM   15  O   UNL     1      -8.610  13.025  66.863  1.00  0.00    -0.194 OA 
HETATM   16  C   UNL     1      -8.047  12.247  67.626  1.00  0.00    -0.165 C  
BRANCH  14  17
HETATM   17  C   UNL     1      -8.362  10.311  66.172  1.00  0.00    -0.140 C  
BRANCH  17  18
HETATM   18  C   UNL     1      -7.321   9.397  65.526  1.00  0.00    -0.088 C  
BRANCH  18  19
HETATM   19  C   UNL     1      -7.544   7.944  65.910  1.00  0.00    -0.083 A  
HETATM   20  C   UNL     1      -8.736   7.267  65.599  1.00  0.00    -0.092 A  
HETATM   21  C   UNL     1      -8.946   5.952  66.013  1.00  0.00    -0.159 A  
HETATM   22  C   UNL     1      -7.946   5.289  66.716  1.00  0.00    -0.104 A  
HETATM   23  C   UNL     1      -6.538   7.249  66.595  1.00  0.00    -0.056 A  
HETATM   24  C   UNL     1      -6.742   5.930  67.010  1.00  0.00    -0.061 A  
BRANCH  22  25
HETATM   25  S   UNL     1      -8.244   3.634  67.278  1.00  0.00    -0.091 S  
HETATM   26  O   UNL     1      -9.652   3.327  67.143  1.00  0.00    -0.183 OA 
HETATM   27  O   UNL     1      -7.246   2.783  66.664  1.00  0.00    -0.062 OA 
BRANCH  25  28
HETATM   28  N   UNL     1      -7.832   3.697  68.885  1.00  0.00    -0.052 N  
HETATM   29  H   UNL     1      -6.909   4.057  69.126  1.00  0.00     0.000 HD 
BRANCH  28  30
HETATM   30  C   UNL     1      -8.654   3.294  69.919  1.00  0.00    -0.060 C  
HETATM   31  O   UNL     1      -8.739   2.143  70.316  1.00  0.00    -0.054 OA 
BRANCH  30  32
HETATM   32  N   UNL     1      -9.366   4.330  70.440  1.00  0.00    -0.132 N  
HETATM   33  H   UNL     1     -10.189   4.133  71.009  1.00  0.00     0.000 HD 
BRANCH  32  34
HETATM   34  C   UNL     1      -8.979   5.717  70.202  1.00  0.00    -0.138 C  
HETATM   35  C   UNL     1     -10.033   6.692  70.743  1.00  0.00    -0.201 C  
HETATM   36  C   UNL     1     -10.118   6.645  72.267  1.00  0.00    -0.191 C  
HETATM   37  C   UNL     1      -8.759   6.867  72.925  1.00  0.00    -0.138 C  
HETATM   38  C   UNL     1      -7.661   5.969  72.357  1.00  0.00    -0.100 C  
HETATM   39  C   UNL     1      -7.614   6.012  70.830  1.00  0.00    -0.093 C  
ENDBRANCH  32  34
ENDBRANCH  30  32
ENDBRANCH  28  30
ENDBRANCH  25  28
ENDBRANCH  22  25
ENDBRANCH  18  19
ENDBRANCH  17  18
ENDBRANCH  14  17
ENDBRANCH   2   3
TORSDOF 9
ENDMDL
MODEL      276
REMARK 921   NORMALIZED FREE ENERGY PREDICTED BY IDOCK:   -1.51 KCAL/MOL
REMARK 922        TOTAL FREE ENERGY PREDICTED BY IDOCK:   -4.45 KCAL/MOL
REMARK 923 INTER-LIGAND FREE ENERGY PREDICTED BY IDOCK:   -4.17 KCAL/MOL
REMARK 924 INTRA-LIGAND FREE ENERGY PREDICTED BY IDOCK:   -0.28 KCAL/MOL
REMARK 927      BINDING AFFINITY PREDICTED BY RF-SCORE:    0.00 PKD
ROOT
HETATM    1  C   UNL     1      -6.078  21.107  64.500  1.00  0.00    -0.189 C  
HETATM    2  O   UNL     1      -7.431  20.676  64.626  1.00  0.00     0.189 OA 
ENDROOT
BRANCH   2   3
HETATM    3  C   UNL     1      -7.639  19.653  65.509  1.00  0.00    -0.050 A  
HETATM    4  C   UNL     1      -8.748  19.529  66.336  1.00  0.00    -0.389 A  
HETATM    5  C   UNL     1      -8.879  18.412  67.171  1.00  0.00    -0.264 A  
HETATM    6  C   UNL     1      -7.880  17.427  67.234  1.00  0.00    -0.218 A  
HETATM    7  C   UNL     1      -6.786  17.546  66.364  1.00  0.00    -0.297 A  
HETATM    8  C   UNL     1      -8.033  16.241  68.180  1.00  0.00    -0.157 C  
HETATM    9  C   UNL     1      -9.186  16.460  69.171  1.00  0.00    -0.216 C  
HETATM   10  C   UNL     1      -8.430  14.985  67.372  1.00  0.00    -0.202 C  
HETATM   11  C   UNL     1      -6.741  15.952  68.964  1.00  0.00    -0.151 C  
HETATM   12  C   UNL     1      -6.678  18.641  65.501  1.00  0.00    -0.285 A  
HETATM   13  O   UNL     1      -9.185  16.031  70.323  1.00  0.00     0.565 OA 
HETATM   14  N   UNL     1     -10.294  17.044  68.586  1.00  0.00    -0.328 N  
HETATM   15  O   UNL     1     -11.070  19.045  67.759  1.00  0.00    -0.287 OA 
HETATM   16  C   UNL     1     -10.175  18.214  67.869  1.00  0.00    -0.379 C  
BRANCH  14  17
HETATM   17  C   UNL     1     -11.606  16.553  68.943  1.00  0.00    -0.037 C  
BRANCH  17  18
HETATM   18  C   UNL     1     -11.669  15.418  69.965  1.00  0.00    -0.349 C  
BRANCH  18  19
HETATM   19  C   UNL     1     -11.294  14.085  69.339  1.00  0.00    -0.317 A  
HETATM   20  C   UNL     1     -10.543  13.121  70.035  1.00  0.00     1.198 A  
HETATM   21  C   UNL     1     -10.156  11.930  69.422  1.00  0.00     0.443 A  
HETATM   22  C   UNL     1     -10.550  11.676  68.113  1.00  0.00    -0.201 A  
HETATM   23  C   UNL     1     -11.704  13.798  68.029  1.00  0.00    -0.390 A  
HETATM   24  C   UNL     1     -11.322  12.603  67.412  1.00  0.00    -0.367 A  
BRANCH  22  25
HETATM   25  S   UNL     1     -10.012  10.180  67.329  1.00  0.00    -0.206 S  
HETATM   26  O   UNL     1     -10.460   9.042  68.105  1.00  0.00    -0.215 OA 
HETATM   27  O   UNL     1     -10.345  10.285  65.923  1.00  0.00    -0.237 OA 
BRANCH  25  28
HETATM   28  N   UNL     1      -8.357  10.289  67.393  1.00  0.00    -0.118 N  
HETATM   29  H   UNL     1      -7.943  11.220  67.433  1.00  0.00     0.000 HD 
BRANCH  28  30
HETATM   30  C   UNL     1      -7.502   9.204  67.395  1.00  0.00    -0.084 C  
HETATM   31  O   UNL     1      -6.840   8.858  68.360  1.00  0.00    -0.063 OA 
BRANCH  30  32
HETATM   32  N   UNL     1      -7.478   8.569  66.191  1.00  0.00    -0.088 N  
HETATM   33  H   UNL     1      -8.356   8.399  65.700  1.00  0.00     0.000 HD 
BRANCH  32  34
HETATM   34  C   UNL     1      -6.226   8.126  65.588  1.00  0.00    -0.045 C  
HETATM   35  C   UNL     1      -6.443   7.621  64.155  1.00  0.00    -0.052 C  
HETATM   36  C   UNL     1      -6.864   8.750  63.216  1.00  0.00    -0.089 C  
HETATM   37  C   UNL     1      -5.888   9.924  63.255  1.00  0.00    -0.117 C  
HETATM   38  C   UNL     1      -5.582  10.404  64.673  1.00  0.00    -0.136 C  
HETATM   39  C   UNL     1      -5.191   9.254  65.600  1.00  0.00    -0.039 C  
ENDBRANCH  32  34
ENDBRANCH  30  32
ENDBRANCH  28  30
ENDBRANCH  25  28
ENDBRANCH  22  25
ENDBRANCH  18  19
ENDBRANCH  17  18
ENDBRANCH  14  17
ENDBRANCH   2   3
TORSDOF 9
ENDMDL
MODEL      277
REMARK 921   NORMALIZED FREE ENERGY PREDICTED BY IDOCK:   -1.47 KCAL/MOL
REMARK 922        TOTAL FREE ENERGY PREDICTED BY IDOCK:   -4.39 KCAL/MOL
REMARK 923 INTER-LIGAND FREE ENERGY PREDICTED BY IDOCK:   -3.93 KCAL/MOL
REMARK 924 INTRA-LIGAND FREE ENERGY PREDICTED BY IDOCK:   -0.46 KCAL/MOL
REMARK 927      BINDING AFFINITY PREDICTED BY RF-SCORE:    0.00 PKD
ROOT
HETATM    1  C   UNL     1     -11.687   7.944  72.901  1.00  0.00    -0.181 C  
HETATM    2  O   UNL     1     -11.229   7.204  71.772  1.00  0.00    -0.237 OA 
ENDROOT
BRANCH   2   3
HETATM    3  C   UNL     1     -10.125   7.713  71.147  1.00  0.00    -0.184 A  
HETATM    4  C   UNL     1      -9.881   7.642  69.781  1.00  0.00    -0.181 A  
HETATM    5  C   UNL     1      -8.734   8.241  69.242  1.00  0.00    -0.139 A  
HETATM    6  C   UNL     1      -7.786   8.871  70.063  1.00  0.00    -0.078 A  
HETATM    7  C   UNL     1      -8.066   8.969  71.434  1.00  0.00    -0.101 A  
HETATM    8  C   UNL     1      -6.529   9.481  69.452  1.00  0.00    -0.044 C  
HETATM    9  C   UNL     1      -6.350   9.046  67.989  1.00  0.00    -0.055 C  
HETATM   10  C   UNL     1      -6.674  11.018  69.399  1.00  0.00    -0.112 C  
HETATM   11  C   UNL     1      -5.262   9.117  70.244  1.00  0.00    -0.027 C  
HETATM   12  C   UNL     1      -9.233   8.407  71.964  1.00  0.00    -0.304 A  
HETATM   13  O   UNL     1      -5.255   8.876  67.457  1.00  0.00    -0.033 OA 
HETATM   14  N   UNL     1      -7.540   9.027  67.285  1.00  0.00    -0.088 N  
HETATM   15  O   UNL     1      -9.493   7.835  67.050  1.00  0.00    -0.145 OA 
HETATM   16  C   UNL     1      -8.628   8.330  67.764  1.00  0.00    -0.131 C  
BRANCH  14  17
HETATM   17  C   UNL     1      -7.552   9.533  65.931  1.00  0.00    -0.100 C  
BRANCH  17  18
HETATM   18  C   UNL     1      -6.877   8.675  64.861  1.00  0.00    -0.072 C  
BRANCH  18  19
HETATM   19  C   UNL     1      -7.022   7.193  65.166  1.00  0.00    -0.052 A  
HETATM   20  C   UNL     1      -6.045   6.482  65.884  1.00  0.00    -0.030 A  
HETATM   21  C   UNL     1      -6.167   5.110  66.100  1.00  0.00    -0.031 A  
HETATM   22  C   UNL     1      -7.291   4.441  65.627  1.00  0.00    -0.080 A  
HETATM   23  C   UNL     1      -8.160   6.505  64.721  1.00  0.00    -0.112 A  
HETATM   24  C   UNL     1      -8.289   5.130  64.938  1.00  0.00    -0.145 A  
BRANCH  22  25
HETATM   25  S   UNL     1      -7.411   2.688  65.867  1.00  0.00    -0.068 S  
HETATM   26  O   UNL     1      -8.611   2.196  65.225  1.00  0.00    -0.098 OA 
HETATM   27  O   UNL     1      -6.119   2.119  65.542  1.00  0.00    -0.021 OA 
BRANCH  25  28
HETATM   28  N   UNL     1      -7.550   2.537  67.514  1.00  0.00    -0.060 N  
HETATM   29  H   UNL     1      -6.739   2.196  68.031  1.00  0.00     0.000 HD 
BRANCH  28  30
HETATM   30  C   UNL     1      -8.689   2.842  68.233  1.00  0.00    -0.101 C  
HETATM   31  O   UNL     1      -9.748   3.176  67.726  1.00  0.00    -0.139 OA 
BRANCH  30  32
HETATM   32  N   UNL     1      -8.492   2.731  69.575  1.00  0.00    -0.059 N  
HETATM   33  H   UNL     1      -7.590   2.406  69.921  1.00  0.00     0.000 HD 
BRANCH  32  34
HETATM   34  C   UNL     1      -9.542   3.068  70.530  1.00  0.00    -0.117 C  
HETATM   35  C   UNL     1      -9.844   1.893  71.468  1.00  0.00    -0.207 C  
HETATM   36  C   UNL     1      -8.666   1.588  72.390  1.00  0.00    -0.068 C  
HETATM   37  C   UNL     1      -8.209   2.821  73.166  1.00  0.00    -0.067 C  
HETATM   38  C   UNL     1      -7.976   4.040  72.275  1.00  0.00    -0.081 C  
HETATM   39  C   UNL     1      -9.157   4.307  71.343  1.00  0.00    -0.179 C  
ENDBRANCH  32  34
ENDBRANCH  30  32
ENDBRANCH  28  30
ENDBRANCH  25  28
ENDBRANCH  22  25
ENDBRANCH  18  19
ENDBRANCH  17  18
ENDBRANCH  14  17
ENDBRANCH   2   3
TORSDOF 9
ENDMDL
MODEL      278
REMARK 921   NORMALIZED FREE ENERGY PREDICTED BY IDOCK:   -1.44 KCAL/MOL
REMARK 922        TOTAL FREE ENERGY PREDICTED BY IDOCK:   -4.35 KCAL/MOL
REMARK 923 INTER-LIGAND FREE ENERGY PREDICTED BY IDOCK:   -4.20 KCAL/MOL
REMARK 924 INTRA-LIGAND FREE ENERGY PREDICTED BY IDOCK:   -0.14 KCAL/MOL
REMARK 927      BINDING AFFINITY PREDICTED BY RF-SCORE:    0.00 PKD
ROOT
HETATM    1  C   UNL     1     -11.264  14.347  64.624  1.00  0.00    -0.360 C  
HETATM    2  O   UNL     1     -11.444  13.789  65.923  1.00  0.00    -0.311 OA 
ENDROOT
BRANCH   2   3
HETATM    3  C   UNL     1     -10.370  13.105  66.420  1.00  0.00    -0.287 A  
HETATM    4  C   UNL     1      -9.739  12.045  65.781  1.00  0.00    -0.254 A  
HETATM    5  C   UNL     1      -8.614  11.445  66.364  1.00  0.00    -0.174 A  
HETATM    6  C   UNL     1      -8.135  11.857  67.618  1.00  0.00    -0.148 A  
HETATM    7  C   UNL     1      -8.759  12.954  68.231  1.00  0.00    -0.168 A  
HETATM    8  C   UNL     1      -6.932  11.160  68.244  1.00  0.00    -0.070 C  
HETATM    9  C   UNL     1      -6.582   9.866  67.494  1.00  0.00    -0.069 C  
HETATM   10  C   UNL     1      -5.683  12.058  68.100  1.00  0.00    -0.050 C  
HETATM   11  C   UNL     1      -7.157  10.836  69.731  1.00  0.00    -0.126 C  
HETATM   12  C   UNL     1      -9.856  13.578  67.626  1.00  0.00    -0.228 A  
HETATM   13  O   UNL     1      -6.115   8.867  68.038  1.00  0.00    -0.049 OA 
HETATM   14  N   UNL     1      -6.688   9.994  66.122  1.00  0.00    -0.094 N  
HETATM   15  O   UNL     1      -8.233  10.161  64.426  1.00  0.00    -0.156 OA 
HETATM   16  C   UNL     1      -7.847  10.470  65.548  1.00  0.00    -0.138 C  
BRANCH  14  17
HETATM   17  C   UNL     1      -5.670   9.394  65.289  1.00  0.00    -0.057 C  
BRANCH  17  18
HETATM   18  C   UNL     1      -6.038   8.097  64.568  1.00  0.00    -0.056 C  
BRANCH  18  19
HETATM   19  C   UNL     1      -6.818   7.159  65.475  1.00  0.00    -0.052 A  
HETATM   20  C   UNL     1      -6.186   6.382  66.461  1.00  0.00    -0.037 A  
HETATM   21  C   UNL     1      -6.911   5.483  67.242  1.00  0.00    -0.065 A  
HETATM   22  C   UNL     1      -8.286   5.379  67.066  1.00  0.00    -0.107 A  
HETATM   23  C   UNL     1      -8.209   7.059  65.331  1.00  0.00    -0.133 A  
HETATM   24  C   UNL     1      -8.941   6.162  66.114  1.00  0.00    -0.164 A  
BRANCH  22  25
HETATM   25  S   UNL     1      -9.189   4.198  68.032  1.00  0.00    -0.159 S  
HETATM   26  O   UNL     1     -10.508   4.720  68.321  1.00  0.00     0.027 OA 
HETATM   27  O   UNL     1      -9.036   2.908  67.390  1.00  0.00    -0.149 OA 
BRANCH  25  28
HETATM   28  N   UNL     1      -8.304   4.093  69.432  1.00  0.00    -0.065 N  
HETATM   29  H   UNL     1      -7.288   4.042  69.350  1.00  0.00     0.000 HD 
BRANCH  28  30
HETATM   30  C   UNL     1      -8.849   4.071  70.701  1.00  0.00    -0.080 C  
HETATM   31  O   UNL     1     -10.015   3.801  70.938  1.00  0.00    -0.168 OA 
BRANCH  30  32
HETATM   32  N   UNL     1      -7.934   4.391  71.656  1.00  0.00    -0.089 N  
HETATM   33  H   UNL     1      -8.247   4.541  72.615  1.00  0.00     0.000 HD 
BRANCH  32  34
HETATM   34  C   UNL     1      -6.516   4.524  71.340  1.00  0.00    -0.019 C  
HETATM   35  C   UNL     1      -6.102   5.998  71.237  1.00  0.00    -0.035 C  
HETATM   36  C   UNL     1      -6.192   6.706  72.588  1.00  0.00    -0.054 C  
HETATM   37  C   UNL     1      -5.403   5.976  73.673  1.00  0.00    -0.035 C  
HETATM   38  C   UNL     1      -5.729   4.485  73.753  1.00  0.00    -0.013 C  
HETATM   39  C   UNL     1      -5.660   3.806  72.386  1.00  0.00    -0.007 C  
ENDBRANCH  32  34
ENDBRANCH  30  32
ENDBRANCH  28  30
ENDBRANCH  25  28
ENDBRANCH  22  25
ENDBRANCH  18  19
ENDBRANCH  17  18
ENDBRANCH  14  17
ENDBRANCH   2   3
TORSDOF 9
ENDMDL
MODEL      279
REMARK 921   NORMALIZED FREE ENERGY PREDICTED BY IDOCK:   -1.36 KCAL/MOL
REMARK 922        TOTAL FREE ENERGY PREDICTED BY IDOCK:   -4.23 KCAL/MOL
REMARK 923 INTER-LIGAND FREE ENERGY PREDICTED BY IDOCK:   -3.08 KCAL/MOL
REMARK 924 INTRA-LIGAND FREE ENERGY PREDICTED BY IDOCK:   -1.15 KCAL/MOL
REMARK 927      BINDING AFFINITY PREDICTED BY RF-SCORE:    0.00 PKD
ROOT
HETATM    1  C   UNL     1      -8.863   1.769  70.489  1.00  0.00    -0.067 C  
HETATM    2  O   UNL     1      -8.313   2.780  71.330  1.00  0.00    -0.060 OA 
ENDROOT
BRANCH   2   3
HETATM    3  C   UNL     1      -8.725   4.055  71.059  1.00  0.00    -0.085 A  
HETATM    4  C   UNL     1      -7.878   5.131  70.819  1.00  0.00    -0.088 A  
HETATM    5  C   UNL     1      -8.414   6.387  70.505  1.00  0.00    -0.138 A  
HETATM    6  C   UNL     1      -9.801   6.604  70.479  1.00  0.00    -0.190 A  
HETATM    7  C   UNL     1     -10.642   5.499  70.685  1.00  0.00    -0.329 A  
HETATM    8  C   UNL     1     -10.353   7.991  70.172  1.00  0.00    -0.215 C  
HETATM    9  C   UNL     1      -9.246   9.056  70.212  1.00  0.00    -0.202 C  
HETATM   10  C   UNL     1     -10.890   8.023  68.723  1.00  0.00     0.019 C  
HETATM   11  C   UNL     1     -11.478   8.397  71.139  1.00  0.00    -0.314 C  
HETATM   12  C   UNL     1     -10.104   4.237  70.956  1.00  0.00    -0.165 A  
HETATM   13  O   UNL     1      -9.429  10.216  70.576  1.00  0.00     0.081 OA 
HETATM   14  N   UNL     1      -8.064   8.624  69.640  1.00  0.00    -0.109 N  
HETATM   15  O   UNL     1      -6.272   7.230  70.006  1.00  0.00    -0.027 OA 
HETATM   16  C   UNL     1      -7.479   7.445  70.044  1.00  0.00    -0.084 C  
BRANCH  14  17
HETATM   17  C   UNL     1      -7.326   9.539  68.800  1.00  0.00    -0.074 C  
BRANCH  17  18
HETATM   18  C   UNL     1      -8.124  10.333  67.766  1.00  0.00    -0.103 C  
BRANCH  18  19
HETATM   19  C   UNL     1      -7.784  11.813  67.818  1.00  0.00    -0.133 A  
HETATM   20  C   UNL     1      -8.241  12.717  66.843  1.00  0.00    -0.048 A  
HETATM   21  C   UNL     1      -7.868  14.060  66.875  1.00  0.00     0.267 A  
HETATM   22  C   UNL     1      -7.059  14.519  67.908  1.00  0.00    -0.157 A  
HETATM   23  C   UNL     1      -6.992  12.302  68.867  1.00  0.00    -0.098 A  
HETATM   24  C   UNL     1      -6.619  13.649  68.906  1.00  0.00    -0.105 A  
BRANCH  22  25
HETATM   25  S   UNL     1      -6.553  16.218  67.911  1.00  0.00    -0.146 S  
HETATM   26  O   UNL     1      -6.132  16.593  69.245  1.00  0.00    -0.158 OA 
HETATM   27  O   UNL     1      -5.664  16.406  66.783  1.00  0.00    -0.340 OA 
BRANCH  25  28
HETATM   28  N   UNL     1      -7.943  17.032  67.509  1.00  0.00    -0.172 N  
HETATM   29  H   UNL     1      -8.692  17.064  68.201  1.00  0.00     0.000 HD 
BRANCH  28  30
HETATM   30  C   UNL     1      -8.154  17.668  66.302  1.00  0.00    -0.246 C  
HETATM   31  O   UNL     1      -9.036  17.365  65.515  1.00  0.00    -0.253 OA 
BRANCH  30  32
HETATM   32  N   UNL     1      -7.258  18.670  66.088  1.00  0.00    -0.250 N  
HETATM   33  H   UNL     1      -6.262  18.451  66.060  1.00  0.00     0.000 HD 
BRANCH  32  34
HETATM   34  C   UNL     1      -7.689  20.051  65.898  1.00  0.00    -0.282 C  
HETATM   35  C   UNL     1      -6.690  21.039  66.513  1.00  0.00    -0.281 C  
HETATM   36  C   UNL     1      -5.352  21.022  65.777  1.00  0.00    -0.249 C  
HETATM   37  C   UNL     1      -5.519  21.254  64.277  1.00  0.00    -0.196 C  
HETATM   38  C   UNL     1      -6.566  20.343  63.640  1.00  0.00     0.205 C  
HETATM   39  C   UNL     1      -7.886  20.355  64.410  1.00  0.00     1.718 C  
ENDBRANCH  32  34
ENDBRANCH  30  32
ENDBRANCH  28  30
ENDBRANCH  25  28
ENDBRANCH  22  25
ENDBRANCH  18  19
ENDBRANCH  17  18
ENDBRANCH  14  17
ENDBRANCH   2   3
TORSDOF 9
ENDMDL
MODEL      280
REMARK 921   NORMALIZED FREE ENERGY PREDICTED BY IDOCK:   -1.29 KCAL/MOL
REMARK 922        TOTAL FREE ENERGY PREDICTED BY IDOCK:   -4.11 KCAL/MOL
REMARK 923 INTER-LIGAND FREE ENERGY PREDICTED BY IDOCK:   -6.54 KCAL/MOL
REMARK 924 INTRA-LIGAND FREE ENERGY PREDICTED BY IDOCK:    2.43 KCAL/MOL
REMARK 927      BINDING AFFINITY PREDICTED BY RF-SCORE:    0.00 PKD
ROOT
HETATM    1  C   UNL     1     -10.619  14.423  65.220  1.00  0.00    -0.382 C  
HETATM    2  O   UNL     1     -10.291  13.412  66.171  1.00  0.00    -0.282 OA 
ENDROOT
BRANCH   2   3
HETATM    3  C   UNL     1     -10.872  13.554  67.399  1.00  0.00    -0.269 A  
HETATM    4  C   UNL     1     -11.442  12.520  68.133  1.00  0.00    -0.368 A  
HETATM    5  C   UNL     1     -11.971  12.773  69.406  1.00  0.00    -0.321 A  
HETATM    6  C   UNL     1     -11.989  14.070  69.944  1.00  0.00    -0.399 A  
HETATM    7  C   UNL     1     -11.375  15.095  69.208  1.00  0.00    -0.313 A  
HETATM    8  C   UNL     1     -12.604  14.320  71.316  1.00  0.00    -0.436 C  
HETATM    9  C   UNL     1     -13.400  13.100  71.805  1.00  0.00    -0.389 C  
HETATM   10  C   UNL     1     -11.481  14.512  72.359  1.00  0.00     0.560 C  
HETATM   11  C   UNL     1     -13.521  15.556  71.325  1.00  0.00    -0.560 C  
HETATM   12  C   UNL     1     -10.810  14.831  67.956  1.00  0.00    -0.261 A  
HETATM   13  O   UNL     1     -14.409  13.178  72.502  1.00  0.00    -0.613 OA 
HETATM   14  N   UNL     1     -12.772  11.901  71.521  1.00  0.00    -0.322 N  
HETATM   15  O   UNL     1     -12.287  10.470  69.786  1.00  0.00    -0.250 OA 
HETATM   16  C   UNL     1     -12.366  11.608  70.238  1.00  0.00    -0.258 C  
BRANCH  14  17
HETATM   17  C   UNL     1     -12.772  10.863  72.527  1.00  0.00     1.190 C  
BRANCH  17  18
HETATM   18  C   UNL     1     -12.919   9.422  72.040  1.00  0.00    -0.508 C  
BRANCH  18  19
HETATM   19  C   UNL     1     -11.589   8.858  71.566  1.00  0.00    -0.388 A  
HETATM   20  C   UNL     1     -10.400   9.046  72.293  1.00  0.00    -0.038 A  
HETATM   21  C   UNL     1      -9.180   8.574  71.812  1.00  0.00    -0.316 A  
HETATM   22  C   UNL     1      -9.144   7.876  70.609  1.00  0.00    -0.153 A  
HETATM   23  C   UNL     1     -11.535   8.129  70.370  1.00  0.00    -0.126 A  
HETATM   24  C   UNL     1     -10.315   7.650  69.885  1.00  0.00    -0.225 A  
BRANCH  22  25
HETATM   25  S   UNL     1      -7.580   7.322  69.985  1.00  0.00    -0.092 S  
HETATM   26  O   UNL     1      -6.529   8.179  70.490  1.00  0.00    -0.036 OA 
HETATM   27  O   UNL     1      -7.517   5.889  70.186  1.00  0.00    -0.077 OA 
BRANCH  25  28
HETATM   28  N   UNL     1      -7.731   7.523  68.344  1.00  0.00    -0.117 N  
HETATM   29  H   UNL     1      -8.430   8.186  68.008  1.00  0.00     0.000 HD 
BRANCH  28  30
HETATM   30  C   UNL     1      -6.975   6.853  67.402  1.00  0.00    -0.079 C  
HETATM   31  O   UNL     1      -6.316   7.406  66.537  1.00  0.00    -0.042 OA 
BRANCH  30  32
HETATM   32  N   UNL     1      -7.057   5.502  67.546  1.00  0.00    -0.072 N  
HETATM   33  H   UNL     1      -6.219   4.976  67.795  1.00  0.00     0.000 HD 
BRANCH  32  34
HETATM   34  C   UNL     1      -8.315   4.790  67.353  1.00  0.00    -0.105 C  
HETATM   35  C   UNL     1      -9.280   5.588  66.468  1.00  0.00    -0.144 C  
HETATM   36  C   UNL     1      -8.764   5.710  65.036  1.00  0.00    -0.068 C  
HETATM   37  C   UNL     1      -8.439   4.349  64.425  1.00  0.00    -0.117 C  
HETATM   38  C   UNL     1      -7.543   3.489  65.315  1.00  0.00    -0.078 C  
HETATM   39  C   UNL     1      -8.065   3.405  66.749  1.00  0.00    -0.088 C  
ENDBRANCH  32  34
ENDBRANCH  30  32
ENDBRANCH  28  30
ENDBRANCH  25  28
ENDBRANCH  22  25
ENDBRANCH  18  19
ENDBRANCH  17  18
ENDBRANCH  14  17
ENDBRANCH   2   3
TORSDOF 9
ENDMDL
MODEL      281
REMARK 921   NORMALIZED FREE ENERGY PREDICTED BY IDOCK:   -1.20 KCAL/MOL
REMARK 922        TOTAL FREE ENERGY PREDICTED BY IDOCK:   -3.98 KCAL/MOL
REMARK 923 INTER-LIGAND FREE ENERGY PREDICTED BY IDOCK:   -5.87 KCAL/MOL
REMARK 924 INTRA-LIGAND FREE ENERGY PREDICTED BY IDOCK:    1.89 KCAL/MOL
REMARK 927      BINDING AFFINITY PREDICTED BY RF-SCORE:    0.00 PKD
ROOT
HETATM    1  C   UNL     1      -9.634  10.105  64.726  1.00  0.00    -0.314 C  
HETATM    2  O   UNL     1     -10.138  11.430  64.580  1.00  0.00    -0.246 OA 
ENDROOT
BRANCH   2   3
HETATM    3  C   UNL     1     -10.488  12.054  65.745  1.00  0.00    -0.254 A  
HETATM    4  C   UNL     1     -11.311  11.509  66.723  1.00  0.00    -0.309 A  
HETATM    5  C   UNL     1     -11.567  12.223  67.902  1.00  0.00    -0.416 A  
HETATM    6  C   UNL     1     -11.050  13.514  68.099  1.00  0.00    -0.283 A  
HETATM    7  C   UNL     1     -10.189  14.033  67.121  1.00  0.00    -0.258 A  
HETATM    8  C   UNL     1     -11.376  14.281  69.376  1.00  0.00    -0.325 C  
HETATM    9  C   UNL     1     -12.503  13.599  70.167  1.00  0.00    -0.239 C  
HETATM   10  C   UNL     1     -10.152  14.258  70.319  1.00  0.00     1.163 C  
HETATM   11  C   UNL     1     -11.770  15.741  69.092  1.00  0.00    -0.398 C  
HETATM   12  C   UNL     1      -9.902  13.301  65.964  1.00  0.00    -0.271 A  
HETATM   13  O   UNL     1     -13.330  14.211  70.840  1.00  0.00    -0.293 OA 
HETATM   14  N   UNL     1     -12.393  12.221  70.180  1.00  0.00    -0.193 N  
HETATM   15  O   UNL     1     -12.659  10.364  68.849  1.00  0.00     0.058 OA 
HETATM   16  C   UNL     1     -12.266  11.516  69.004  1.00  0.00    -0.121 C  
BRANCH  14  17
HETATM   17  C   UNL     1     -12.660  11.516  71.413  1.00  0.00    -0.314 C  
BRANCH  17  18
HETATM   18  C   UNL     1     -12.793   9.996  71.331  1.00  0.00    -0.519 C  
BRANCH  18  19
HETATM   19  C   UNL     1     -11.435   9.316  71.409  1.00  0.00    -0.439 A  
HETATM   20  C   UNL     1     -11.256   8.088  72.071  1.00  0.00    -0.356 A  
HETATM   21  C   UNL     1      -9.992   7.510  72.185  1.00  0.00    -0.218 A  
HETATM   22  C   UNL     1      -8.897   8.142  71.605  1.00  0.00    -0.156 A  
HETATM   23  C   UNL     1     -10.323   9.922  70.809  1.00  0.00    -0.198 A  
HETATM   24  C   UNL     1      -9.055   9.346  70.917  1.00  0.00    -0.220 A  
BRANCH  22  25
HETATM   25  S   UNL     1      -7.289   7.422  71.798  1.00  0.00    -0.080 S  
HETATM   26  O   UNL     1      -6.886   7.510  73.186  1.00  0.00    -0.064 OA 
HETATM   27  O   UNL     1      -7.304   6.142  71.119  1.00  0.00    -0.080 OA 
BRANCH  25  28
HETATM   28  N   UNL     1      -6.320   8.396  70.867  1.00  0.00    -0.037 N  
HETATM   29  H   UNL     1      -5.924   9.230  71.302  1.00  0.00     0.000 HD 
BRANCH  28  30
HETATM   30  C   UNL     1      -6.011   8.154  69.543  1.00  0.00    -0.030 C  
HETATM   31  O   UNL     1      -5.518   8.981  68.794  1.00  0.00    -0.039 OA 
BRANCH  30  32
HETATM   32  N   UNL     1      -6.328   6.884  69.167  1.00  0.00    -0.027 N  
HETATM   33  H   UNL     1      -5.732   6.113  69.466  1.00  0.00     0.000 HD 
BRANCH  32  34
HETATM   34  C   UNL     1      -7.501   6.602  68.347  1.00  0.00    -0.095 C  
HETATM   35  C   UNL     1      -7.444   7.354  67.011  1.00  0.00    -0.098 C  
HETATM   36  C   UNL     1      -6.309   6.845  66.124  1.00  0.00    -0.050 C  
HETATM   37  C   UNL     1      -6.377   5.334  65.915  1.00  0.00    -0.035 C  
HETATM   38  C   UNL     1      -6.517   4.552  67.220  1.00  0.00    -0.042 C  
HETATM   39  C   UNL     1      -7.640   5.097  68.102  1.00  0.00    -0.080 C  
ENDBRANCH  32  34
ENDBRANCH  30  32
ENDBRANCH  28  30
ENDBRANCH  25  28
ENDBRANCH  22  25
ENDBRANCH  18  19
ENDBRANCH  17  18
ENDBRANCH  14  17
ENDBRANCH   2   3
TORSDOF 9
ENDMDL
MODEL      282
REMARK 921   NORMALIZED FREE ENERGY PREDICTED BY IDOCK:   -1.12 KCAL/MOL
REMARK 922        TOTAL FREE ENERGY PREDICTED BY IDOCK:   -3.86 KCAL/MOL
REMARK 923 INTER-LIGAND FREE ENERGY PREDICTED BY IDOCK:   -5.59 KCAL/MOL
REMARK 924 INTRA-LIGAND FREE ENERGY PREDICTED BY IDOCK:    1.73 KCAL/MOL
REMARK 927      BINDING AFFINITY PREDICTED BY RF-SCORE:    0.00 PKD
ROOT
HETATM    1  C   UNL     1      -7.931  19.981  66.980  1.00  0.00    -0.314 C  
HETATM    2  O   UNL     1      -7.330  19.076  66.057  1.00  0.00    -0.260 OA 
ENDROOT
BRANCH   2   3
HETATM    3  C   UNL     1      -7.148  17.803  66.520  1.00  0.00    -0.240 A  
HETATM    4  C   UNL     1      -8.032  16.750  66.318  1.00  0.00    -0.352 A  
HETATM    5  C   UNL     1      -7.721  15.472  66.801  1.00  0.00    -0.111 A  
HETATM    6  C   UNL     1      -6.549  15.236  67.539  1.00  0.00    -0.181 A  
HETATM    7  C   UNL     1      -5.649  16.300  67.699  1.00  0.00    -0.167 A  
HETATM    8  C   UNL     1      -6.256  13.842  68.083  1.00  0.00    -0.128 C  
HETATM    9  C   UNL     1      -7.484  12.927  67.972  1.00  0.00    -0.125 C  
HETATM   10  C   UNL     1      -5.171  13.167  67.214  1.00  0.00     0.227 C  
HETATM   11  C   UNL     1      -5.784  13.878  69.547  1.00  0.00    -0.093 C  
HETATM   12  C   UNL     1      -5.943  17.565  67.179  1.00  0.00    -0.164 A  
HETATM   13  O   UNL     1      -7.750  12.041  68.781  1.00  0.00    -0.118 OA 
HETATM   14  N   UNL     1      -8.170  13.090  66.783  1.00  0.00     0.030 N  
HETATM   15  O   UNL     1      -9.569  14.542  65.676  1.00  0.00    -0.275 OA 
HETATM   16  C   UNL     1      -8.582  14.340  66.375  1.00  0.00     0.281 C  
BRANCH  14  17
HETATM   17  C   UNL     1      -8.664  11.915  66.100  1.00  0.00    -0.009 C  
BRANCH  17  18
HETATM   18  C   UNL     1      -8.659  10.603  66.883  1.00  0.00    -0.126 C  
BRANCH  18  19
HETATM   19  C   UNL     1      -9.797  10.552  67.889  1.00  0.00    -0.181 A  
HETATM   20  C   UNL     1     -11.107  10.932  67.550  1.00  0.00    -0.375 A  
HETATM   21  C   UNL     1     -12.125  10.937  68.503  1.00  0.00     0.004 A  
HETATM   22  C   UNL     1     -11.847  10.526  69.802  1.00  0.00    -0.257 A  
HETATM   23  C   UNL     1      -9.544  10.115  69.197  1.00  0.00    -0.222 A  
HETATM   24  C   UNL     1     -10.561  10.115  70.155  1.00  0.00    -0.337 A  
BRANCH  22  25
HETATM   25  S   UNL     1     -13.138  10.583  71.015  1.00  0.00    -0.255 S  
HETATM   26  O   UNL     1     -13.340  11.952  71.439  1.00  0.00    -0.185 OA 
HETATM   27  O   UNL     1     -14.246   9.802  70.503  1.00  0.00     0.376 OA 
BRANCH  25  28
HETATM   28  N   UNL     1     -12.521   9.689  72.271  1.00  0.00    -0.259 N  
HETATM   29  H   UNL     1     -11.594   9.934  72.619  1.00  0.00     0.000 HD 
BRANCH  28  30
HETATM   30  C   UNL     1     -13.178   8.635  72.876  1.00  0.00     0.084 C  
HETATM   31  O   UNL     1     -14.259   8.734  73.433  1.00  0.00    -0.128 OA 
BRANCH  30  32
HETATM   32  N   UNL     1     -12.475   7.474  72.784  1.00  0.00    -0.381 N  
HETATM   33  H   UNL     1     -12.949   6.589  72.963  1.00  0.00     0.000 HD 
BRANCH  32  34
HETATM   34  C   UNL     1     -11.058   7.465  72.435  1.00  0.00    -0.287 C  
HETATM   35  C   UNL     1     -10.296   6.388  73.217  1.00  0.00    -0.251 C  
HETATM   36  C   UNL     1     -10.729   4.981  72.809  1.00  0.00    -0.292 C  
HETATM   37  C   UNL     1     -10.624   4.761  71.302  1.00  0.00    -0.040 C  
HETATM   38  C   UNL     1     -11.302   5.859  70.485  1.00  0.00    -0.215 C  
HETATM   39  C   UNL     1     -10.874   7.257  70.930  1.00  0.00    -0.262 C  
ENDBRANCH  32  34
ENDBRANCH  30  32
ENDBRANCH  28  30
ENDBRANCH  25  28
ENDBRANCH  22  25
ENDBRANCH  18  19
ENDBRANCH  17  18
ENDBRANCH  14  17
ENDBRANCH   2   3
TORSDOF 9
ENDMDL
MODEL      283
REMARK 921   NORMALIZED FREE ENERGY PREDICTED BY IDOCK:   -0.95 KCAL/MOL
REMARK 922        TOTAL FREE ENERGY PREDICTED BY IDOCK:   -3.60 KCAL/MOL
REMARK 923 INTER-LIGAND FREE ENERGY PREDICTED BY IDOCK:   -2.07 KCAL/MOL
REMARK 924 INTRA-LIGAND FREE ENERGY PREDICTED BY IDOCK:   -1.52 KCAL/MOL
REMARK 927      BINDING AFFINITY PREDICTED BY RF-SCORE:    0.00 PKD
ROOT
HETATM    1  C   UNL     1     -12.957  12.062  65.256  1.00  0.00     1.602 C  
HETATM    2  O   UNL     1     -11.607  12.211  64.824  1.00  0.00    -0.331 OA 
ENDROOT
BRANCH   2   3
HETATM    3  C   UNL     1     -10.941  13.285  65.344  1.00  0.00    -0.284 A  
HETATM    4  C   UNL     1     -10.550  13.412  66.672  1.00  0.00    -0.282 A  
HETATM    5  C   UNL     1      -9.831  14.541  67.086  1.00  0.00    -0.245 A  
HETATM    6  C   UNL     1      -9.538  15.587  66.194  1.00  0.00    -0.362 A  
HETATM    7  C   UNL     1      -9.904  15.425  64.850  1.00  0.00     0.226 A  
HETATM    8  C   UNL     1      -8.786  16.819  66.683  1.00  0.00    -0.281 C  
HETATM    9  C   UNL     1      -8.703  16.855  68.217  1.00  0.00    -0.235 C  
HETATM   10  C   UNL     1      -7.319  16.753  66.203  1.00  0.00    -0.064 C  
HETATM   11  C   UNL     1      -9.425  18.126  66.183  1.00  0.00    -0.166 C  
HETATM   12  C   UNL     1     -10.585  14.278  64.431  1.00  0.00    -0.047 A  
HETATM   13  O   UNL     1      -8.708  17.892  68.876  1.00  0.00    -0.235 OA 
HETATM   14  N   UNL     1      -8.456  15.612  68.770  1.00  0.00    -0.176 N  
HETATM   15  O   UNL     1      -9.453  13.585  69.204  1.00  0.00     0.214 OA 
HETATM   16  C   UNL     1      -9.248  14.531  68.451  1.00  0.00    -0.196 C  
BRANCH  14  17
HETATM   17  C   UNL     1      -7.521  15.516  69.868  1.00  0.00     0.016 C  
BRANCH  17  18
HETATM   18  C   UNL     1      -6.125  14.981  69.548  1.00  0.00    -0.117 C  
BRANCH  18  19
HETATM   19  C   UNL     1      -6.181  13.545  69.052  1.00  0.00    -0.095 A  
HETATM   20  C   UNL     1      -6.564  12.483  69.890  1.00  0.00     0.126 A  
HETATM   21  C   UNL     1      -6.550  11.166  69.433  1.00  0.00    -0.109 A  
HETATM   22  C   UNL     1      -6.185  10.902  68.118  1.00  0.00    -0.049 A  
HETATM   23  C   UNL     1      -5.842  13.261  67.722  1.00  0.00    -0.132 A  
HETATM   24  C   UNL     1      -5.831  11.943  67.258  1.00  0.00    -0.130 A  
BRANCH  22  25
HETATM   25  S   UNL     1      -6.125   9.219  67.564  1.00  0.00    -0.054 S  
HETATM   26  O   UNL     1      -7.472   8.742  67.329  1.00  0.00    -0.087 OA 
HETATM   27  O   UNL     1      -5.128   9.144  66.516  1.00  0.00    -0.032 OA 
BRANCH  25  28
HETATM   28  N   UNL     1      -5.459   8.416  68.855  1.00  0.00    -0.035 N  
HETATM   29  H   UNL     1      -4.512   8.668  69.135  1.00  0.00     0.000 HD 
BRANCH  28  30
HETATM   30  C   UNL     1      -6.102   7.428  69.576  1.00  0.00    -0.030 C  
HETATM   31  O   UNL     1      -6.081   7.349  70.794  1.00  0.00    -0.034 OA 
BRANCH  30  32
HETATM   32  N   UNL     1      -6.756   6.549  68.770  1.00  0.00    -0.055 N  
HETATM   33  H   UNL     1      -6.721   6.679  67.759  1.00  0.00     0.000 HD 
BRANCH  32  34
HETATM   34  C   UNL     1      -7.505   5.423  69.318  1.00  0.00    -0.073 C  
HETATM   35  C   UNL     1      -8.631   4.986  68.372  1.00  0.00    -0.100 C  
HETATM   36  C   UNL     1      -8.082   4.397  67.074  1.00  0.00    -0.101 C  
HETATM   37  C   UNL     1      -7.093   3.262  67.331  1.00  0.00    -0.058 C  
HETATM   38  C   UNL     1      -6.000   3.632  68.333  1.00  0.00    -0.027 C  
HETATM   39  C   UNL     1      -6.573   4.245  69.611  1.00  0.00    -0.033 C  
ENDBRANCH  32  34
ENDBRANCH  30  32
ENDBRANCH  28  30
ENDBRANCH  25  28
ENDBRANCH  22  25
ENDBRANCH  18  19
ENDBRANCH  17  18
ENDBRANCH  14  17
ENDBRANCH   2   3
TORSDOF 9
ENDMDL
MODEL      284
REMARK 921   NORMALIZED FREE ENERGY PREDICTED BY IDOCK:   -0.93 KCAL/MOL
REMARK 922        TOTAL FREE ENERGY PREDICTED BY IDOCK:   -3.57 KCAL/MOL
REMARK 923 INTER-LIGAND FREE ENERGY PREDICTED BY IDOCK:   -2.82 KCAL/MOL
REMARK 924 INTRA-LIGAND FREE ENERGY PREDICTED BY IDOCK:   -0.75 KCAL/MOL
REMARK 927      BINDING AFFINITY PREDICTED BY RF-SCORE:    0.00 PKD
ROOT
HETATM    1  C   UNL     1     -12.975  12.165  72.174  1.00  0.00    -0.171 C  
HETATM    2  O   UNL     1     -12.702  13.177  71.208  1.00  0.00    -0.363 OA 
ENDROOT
BRANCH   2   3
HETATM    3  C   UNL     1     -12.115  12.742  70.054  1.00  0.00    -0.285 A  
HETATM    4  C   UNL     1     -10.860  13.134  69.604  1.00  0.00     0.241 A  
HETATM    5  C   UNL     1     -10.336  12.587  68.425  1.00  0.00    -0.237 A  
HETATM    6  C   UNL     1     -11.077  11.681  67.648  1.00  0.00    -0.314 A  
HETATM    7  C   UNL     1     -12.324  11.265  68.137  1.00  0.00     0.622 A  
HETATM    8  C   UNL     1     -10.495  11.131  66.351  1.00  0.00    -0.311 C  
HETATM    9  C   UNL     1      -9.236  11.905  65.929  1.00  0.00    -0.141 C  
HETATM   10  C   UNL     1     -10.018   9.679  66.574  1.00  0.00    -0.313 C  
HETATM   11  C   UNL     1     -11.514  11.160  65.199  1.00  0.00     0.234 C  
HETATM   12  C   UNL     1     -12.827  11.782  69.336  1.00  0.00     0.883 A  
HETATM   13  O   UNL     1      -8.916  12.100  64.759  1.00  0.00     0.469 OA 
HETATM   14  N   UNL     1      -8.414  12.215  66.996  1.00  0.00    -0.181 N  
HETATM   15  O   UNL     1      -8.250  13.607  68.820  1.00  0.00    -0.097 OA 
HETATM   16  C   UNL     1      -8.914  12.867  68.102  1.00  0.00    -0.202 C  
BRANCH  14  17
HETATM   17  C   UNL     1      -6.984  12.073  66.833  1.00  0.00    -0.033 C  
BRANCH  17  18
HETATM   18  C   UNL     1      -6.432  10.651  66.746  1.00  0.00    -0.086 C  
BRANCH  18  19
HETATM   19  C   UNL     1      -7.008   9.764  67.839  1.00  0.00    -0.078 A  
HETATM   20  C   UNL     1      -7.185   8.381  67.658  1.00  0.00    -0.088 A  
HETATM   21  C   UNL     1      -7.771   7.595  68.649  1.00  0.00    -0.119 A  
HETATM   22  C   UNL     1      -8.155   8.183  69.849  1.00  0.00    -0.115 A  
HETATM   23  C   UNL     1      -7.376  10.332  69.066  1.00  0.00    -0.092 A  
HETATM   24  C   UNL     1      -7.961   9.548  70.064  1.00  0.00    -0.163 A  
BRANCH  22  25
HETATM   25  S   UNL     1      -8.943   7.182  71.082  1.00  0.00    -0.144 S  
HETATM   26  O   UNL     1      -8.896   7.865  72.358  1.00  0.00    -0.126 OA 
HETATM   27  O   UNL     1     -10.209   6.739  70.535  1.00  0.00    -0.190 OA 
BRANCH  25  28
HETATM   28  N   UNL     1      -7.993   5.822  71.135  1.00  0.00    -0.110 N  
HETATM   29  H   UNL     1      -7.842   5.313  70.263  1.00  0.00     0.000 HD 
BRANCH  28  30
HETATM   30  C   UNL     1      -7.391   5.333  72.277  1.00  0.00    -0.093 C  
HETATM   31  O   UNL     1      -6.664   5.993  73.003  1.00  0.00    -0.068 OA 
BRANCH  30  32
HETATM   32  N   UNL     1      -7.698   4.026  72.498  1.00  0.00    -0.072 N  
HETATM   33  H   UNL     1      -7.595   3.354  71.737  1.00  0.00     0.000 HD 
BRANCH  32  34
HETATM   34  C   UNL     1      -8.171   3.562  73.798  1.00  0.00    -0.079 C  
HETATM   35  C   UNL     1      -9.074   4.605  74.469  1.00  0.00    -0.115 C  
HETATM   36  C   UNL     1     -10.384   4.793  73.706  1.00  0.00    -0.267 C  
HETATM   37  C   UNL     1     -11.118   3.472  73.489  1.00  0.00    -0.317 C  
HETATM   38  C   UNL     1     -10.228   2.380  72.896  1.00  0.00    -0.225 C  
HETATM   39  C   UNL     1      -8.913   2.230  73.659  1.00  0.00    -0.072 C  
ENDBRANCH  32  34
ENDBRANCH  30  32
ENDBRANCH  28  30
ENDBRANCH  25  28
ENDBRANCH  22  25
ENDBRANCH  18  19
ENDBRANCH  17  18
ENDBRANCH  14  17
ENDBRANCH   2   3
TORSDOF 9
ENDMDL
MODEL      285
REMARK 921   NORMALIZED FREE ENERGY PREDICTED BY IDOCK:   -0.92 KCAL/MOL
REMARK 922        TOTAL FREE ENERGY PREDICTED BY IDOCK:   -3.55 KCAL/MOL
REMARK 923 INTER-LIGAND FREE ENERGY PREDICTED BY IDOCK:   -3.84 KCAL/MOL
REMARK 924 INTRA-LIGAND FREE ENERGY PREDICTED BY IDOCK:    0.29 KCAL/MOL
REMARK 927      BINDING AFFINITY PREDICTED BY RF-SCORE:    0.00 PKD
ROOT
HETATM    1  C   UNL     1     -11.114  16.766  65.398  1.00  0.00     0.054 C  
HETATM    2  O   UNL     1     -11.027  16.791  66.820  1.00  0.00    -0.088 OA 
ENDROOT
BRANCH   2   3
HETATM    3  C   UNL     1      -9.890  16.245  67.346  1.00  0.00    -0.242 A  
HETATM    4  C   UNL     1      -9.807  14.983  67.923  1.00  0.00    -0.217 A  
HETATM    5  C   UNL     1      -8.575  14.506  68.391  1.00  0.00    -0.172 A  
HETATM    6  C   UNL     1      -7.418  15.300  68.339  1.00  0.00    -0.111 A  
HETATM    7  C   UNL     1      -7.510  16.555  67.718  1.00  0.00    -0.160 A  
HETATM    8  C   UNL     1      -6.100  14.767  68.889  1.00  0.00    -0.082 C  
HETATM    9  C   UNL     1      -6.312  13.485  69.709  1.00  0.00    -0.087 C  
HETATM   10  C   UNL     1      -5.183  14.349  67.718  1.00  0.00     0.008 C  
HETATM   11  C   UNL     1      -5.370  15.806  69.759  1.00  0.00    -0.119 C  
HETATM   12  C   UNL     1      -8.732  17.012  67.214  1.00  0.00    -0.212 A  
HETATM   13  O   UNL     1      -5.631  13.179  70.685  1.00  0.00    -0.153 OA 
HETATM   14  N   UNL     1      -7.236  12.629  69.138  1.00  0.00     0.010 N  
HETATM   15  O   UNL     1      -9.492  12.371  68.776  1.00  0.00    -0.064 OA 
HETATM   16  C   UNL     1      -8.491  13.080  68.795  1.00  0.00     0.150 C  
BRANCH  14  17
HETATM   17  C   UNL     1      -6.958  11.211  69.136  1.00  0.00    -0.108 C  
BRANCH  17  18
HETATM   18  C   UNL     1      -8.132  10.271  69.412  1.00  0.00    -0.167 C  
BRANCH  18  19
HETATM   19  C   UNL     1      -7.861   8.873  68.880  1.00  0.00    -0.096 A  
HETATM   20  C   UNL     1      -8.109   8.525  67.541  1.00  0.00    -0.107 A  
HETATM   21  C   UNL     1      -7.912   7.222  67.088  1.00  0.00    -0.110 A  
HETATM   22  C   UNL     1      -7.428   6.259  67.967  1.00  0.00    -0.090 A  
HETATM   23  C   UNL     1      -7.348   7.894  69.743  1.00  0.00    -0.078 A  
HETATM   24  C   UNL     1      -7.144   6.587  69.293  1.00  0.00    -0.084 A  
BRANCH  22  25
HETATM   25  S   UNL     1      -7.227   4.594  67.391  1.00  0.00    -0.074 S  
HETATM   26  O   UNL     1      -7.154   4.591  65.945  1.00  0.00    -0.068 OA 
HETATM   27  O   UNL     1      -6.173   3.989  68.179  1.00  0.00    -0.031 OA 
BRANCH  25  28
HETATM   28  N   UNL     1      -8.623   3.847  67.887  1.00  0.00    -0.094 N  
HETATM   29  H   UNL     1      -8.805   2.903  67.544  1.00  0.00     0.000 HD 
BRANCH  28  30
HETATM   30  C   UNL     1      -9.555   4.415  68.733  1.00  0.00    -0.155 C  
HETATM   31  O   UNL     1     -10.267   5.358  68.430  1.00  0.00    -0.173 OA 
BRANCH  30  32
HETATM   32  N   UNL     1      -9.583   3.803  69.948  1.00  0.00    -0.196 N  
HETATM   33  H   UNL     1      -9.607   2.784  69.993  1.00  0.00     0.000 HD 
BRANCH  32  34
HETATM   34  C   UNL     1      -9.579   4.571  71.189  1.00  0.00    -0.175 C  
HETATM   35  C   UNL     1     -10.475   3.922  72.252  1.00  0.00    -0.102 C  
HETATM   36  C   UNL     1      -9.920   2.576  72.713  1.00  0.00    -0.207 C  
HETATM   37  C   UNL     1      -8.473   2.683  73.188  1.00  0.00    -0.071 C  
HETATM   38  C   UNL     1      -7.563   3.398  72.190  1.00  0.00    -0.057 C  
HETATM   39  C   UNL     1      -8.153   4.728  71.723  1.00  0.00    -0.108 C  
ENDBRANCH  32  34
ENDBRANCH  30  32
ENDBRANCH  28  30
ENDBRANCH  25  28
ENDBRANCH  22  25
ENDBRANCH  18  19
ENDBRANCH  17  18
ENDBRANCH  14  17
ENDBRANCH   2   3
TORSDOF 9
ENDMDL
MODEL      286
REMARK 921   NORMALIZED FREE ENERGY PREDICTED BY IDOCK:   -0.91 KCAL/MOL
REMARK 922        TOTAL FREE ENERGY PREDICTED BY IDOCK:   -3.53 KCAL/MOL
REMARK 923 INTER-LIGAND FREE ENERGY PREDICTED BY IDOCK:   -6.55 KCAL/MOL
REMARK 924 INTRA-LIGAND FREE ENERGY PREDICTED BY IDOCK:    3.02 KCAL/MOL
REMARK 927      BINDING AFFINITY PREDICTED BY RF-SCORE:    0.00 PKD
ROOT
HETATM    1  C   UNL     1     -14.408  15.314  71.528  1.00  0.00    -0.527 C  
HETATM    2  O   UNL     1     -13.028  15.168  71.852  1.00  0.00    -0.316 OA 
ENDROOT
BRANCH   2   3
HETATM    3  C   UNL     1     -12.157  15.437  70.833  1.00  0.00    -0.364 A  
HETATM    4  C   UNL     1     -12.114  14.755  69.623  1.00  0.00    -0.346 A  
HETATM    5  C   UNL     1     -11.206  15.147  68.630  1.00  0.00    -0.295 A  
HETATM    6  C   UNL     1     -10.291  16.190  68.848  1.00  0.00    -0.250 A  
HETATM    7  C   UNL     1     -10.374  16.894  70.059  1.00  0.00     0.225 A  
HETATM    8  C   UNL     1      -9.291  16.570  67.762  1.00  0.00    -0.210 C  
HETATM    9  C   UNL     1      -9.251  15.517  66.644  1.00  0.00    -0.271 C  
HETATM   10  C   UNL     1      -9.749  17.873  67.071  1.00  0.00    -0.298 C  
HETATM   11  C   UNL     1      -7.871  16.764  68.322  1.00  0.00    -0.194 C  
HETATM   12  C   UNL     1     -11.310  16.527  71.032  1.00  0.00    -0.062 A  
HETATM   13  O   UNL     1      -8.238  15.235  66.008  1.00  0.00     0.333 OA 
HETATM   14  N   UNL     1     -10.505  15.038  66.312  1.00  0.00    -0.294 N  
HETATM   15  O   UNL     1     -12.190  13.673  67.079  1.00  0.00    -0.389 OA 
HETATM   16  C   UNL     1     -11.345  14.538  67.283  1.00  0.00    -0.350 C  
BRANCH  14  17
HETATM   17  C   UNL     1     -10.824  14.838  64.917  1.00  0.00    -0.416 C  
BRANCH  17  18
HETATM   18  C   UNL     1     -10.677  13.420  64.365  1.00  0.00    -0.423 C  
BRANCH  18  19
HETATM   19  C   UNL     1      -9.748  12.582  65.229  1.00  0.00    -0.074 A  
HETATM   20  C   UNL     1      -9.814  12.608  66.633  1.00  0.00    -0.245 A  
HETATM   21  C   UNL     1      -8.913  11.879  67.409  1.00  0.00    -0.173 A  
HETATM   22  C   UNL     1      -7.957  11.087  66.782  1.00  0.00    -0.152 A  
HETATM   23  C   UNL     1      -8.795  11.757  64.617  1.00  0.00     0.597 A  
HETATM   24  C   UNL     1      -7.892  11.021  65.390  1.00  0.00     0.180 A  
BRANCH  22  25
HETATM   25  S   UNL     1      -6.788  10.203  67.779  1.00  0.00    -0.076 S  
HETATM   26  O   UNL     1      -6.864   8.790  67.472  1.00  0.00    -0.069 OA 
HETATM   27  O   UNL     1      -5.524  10.905  67.688  1.00  0.00    -0.040 OA 
BRANCH  25  28
HETATM   28  N   UNL     1      -7.324  10.473  69.327  1.00  0.00    -0.100 N  
HETATM   29  H   UNL     1      -7.339  11.436  69.663  1.00  0.00     0.000 HD 
BRANCH  28  30
HETATM   30  C   UNL     1      -7.750   9.484  70.190  1.00  0.00    -0.154 C  
HETATM   31  O   UNL     1      -7.064   9.016  71.085  1.00  0.00    -0.095 OA 
BRANCH  30  32
HETATM   32  N   UNL     1      -9.023   9.085  69.923  1.00  0.00    -0.153 N  
HETATM   33  H   UNL     1      -9.242   8.699  69.004  1.00  0.00     0.000 HD 
BRANCH  32  34
HETATM   34  C   UNL     1     -10.082   9.195  70.920  1.00  0.00    -0.287 C  
HETATM   35  C   UNL     1     -11.420   8.679  70.376  1.00  0.00    -0.151 C  
HETATM   36  C   UNL     1     -11.383   7.173  70.121  1.00  0.00    -0.277 C  
HETATM   37  C   UNL     1     -10.941   6.392  71.356  1.00  0.00    -0.316 C  
HETATM   38  C   UNL     1      -9.653   6.928  71.978  1.00  0.00    -0.150 C  
HETATM   39  C   UNL     1      -9.703   8.440  72.197  1.00  0.00    -0.370 C  
ENDBRANCH  32  34
ENDBRANCH  30  32
ENDBRANCH  28  30
ENDBRANCH  25  28
ENDBRANCH  22  25
ENDBRANCH  18  19
ENDBRANCH  17  18
ENDBRANCH  14  17
ENDBRANCH   2   3
TORSDOF 9
ENDMDL
MODEL      287
REMARK 921   NORMALIZED FREE ENERGY PREDICTED BY IDOCK:   -0.61 KCAL/MOL
REMARK 922        TOTAL FREE ENERGY PREDICTED BY IDOCK:   -3.08 KCAL/MOL
REMARK 923 INTER-LIGAND FREE ENERGY PREDICTED BY IDOCK:   -4.52 KCAL/MOL
REMARK 924 INTRA-LIGAND FREE ENERGY PREDICTED BY IDOCK:    1.44 KCAL/MOL
REMARK 927      BINDING AFFINITY PREDICTED BY RF-SCORE:    0.00 PKD
ROOT
HETATM    1  C   UNL     1     -12.247  11.751  64.675  1.00  0.00     0.049 C  
HETATM    2  O   UNL     1     -12.164  13.173  64.611  1.00  0.00    -0.382 OA 
ENDROOT
BRANCH   2   3
HETATM    3  C   UNL     1     -11.525  13.770  65.662  1.00  0.00    -0.310 A  
HETATM    4  C   UNL     1     -10.156  13.720  65.891  1.00  0.00    -0.325 A  
HETATM    5  C   UNL     1      -9.602  14.409  66.978  1.00  0.00    -0.251 A  
HETATM    6  C   UNL     1     -10.411  15.114  67.884  1.00  0.00    -0.245 A  
HETATM    7  C   UNL     1     -11.786  15.188  67.616  1.00  0.00    -0.134 A  
HETATM    8  C   UNL     1      -9.783  15.824  69.079  1.00  0.00    -0.242 C  
HETATM    9  C   UNL     1      -8.318  15.405  69.272  1.00  0.00    -0.254 C  
HETATM   10  C   UNL     1      -9.736  17.344  68.809  1.00  0.00    -0.282 C  
HETATM   11  C   UNL     1     -10.558  15.563  70.383  1.00  0.00    -0.294 C  
HETATM   12  C   UNL     1     -12.331  14.533  66.506  1.00  0.00    -0.167 A  
HETATM   13  O   UNL     1      -7.770  15.325  70.370  1.00  0.00     0.316 OA 
HETATM   14  N   UNL     1      -7.630  15.290  68.078  1.00  0.00    -0.118 N  
HETATM   15  O   UNL     1      -7.420  13.944  66.225  1.00  0.00     1.405 OA 
HETATM   16  C   UNL     1      -8.122  14.508  67.057  1.00  0.00    -0.094 C  
BRANCH  14  17
HETATM   17  C   UNL     1      -6.277  15.795  68.006  1.00  0.00    -0.135 C  
BRANCH  17  18
HETATM   18  C   UNL     1      -5.168  14.777  67.739  1.00  0.00    -0.017 C  
BRANCH  18  19
HETATM   19  C   UNL     1      -5.518  13.412  68.312  1.00  0.00    -0.099 A  
HETATM   20  C   UNL     1      -6.060  13.263  69.600  1.00  0.00    -0.118 A  
HETATM   21  C   UNL     1      -6.317  12.000  70.131  1.00  0.00     0.007 A  
HETATM   22  C   UNL     1      -6.066  10.871  69.359  1.00  0.00    -0.056 A  
HETATM   23  C   UNL     1      -5.298  12.263  67.540  1.00  0.00    -0.113 A  
HETATM   24  C   UNL     1      -5.558  10.994  68.065  1.00  0.00    -0.042 A  
BRANCH  22  25
HETATM   25  S   UNL     1      -6.352   9.269  70.062  1.00  0.00    -0.048 S  
HETATM   26  O   UNL     1      -5.156   8.465  69.932  1.00  0.00    -0.023 OA 
HETATM   27  O   UNL     1      -6.962   9.470  71.361  1.00  0.00    -0.316 OA 
BRANCH  25  28
HETATM   28  N   UNL     1      -7.559   8.643  69.109  1.00  0.00    -0.087 N  
HETATM   29  H   UNL     1      -7.646   8.999  68.157  1.00  0.00     0.000 HD 
BRANCH  28  30
HETATM   30  C   UNL     1      -8.453   7.673  69.518  1.00  0.00    -0.132 C  
HETATM   31  O   UNL     1      -8.308   6.479  69.312  1.00  0.00    -0.121 OA 
BRANCH  30  32
HETATM   32  N   UNL     1      -9.522   8.205  70.172  1.00  0.00    -0.166 N  
HETATM   33  H   UNL     1     -10.105   8.895  69.697  1.00  0.00     0.000 HD 
BRANCH  32  34
HETATM   34  C   UNL     1      -9.853   7.812  71.537  1.00  0.00    -0.167 C  
HETATM   35  C   UNL     1     -10.979   8.680  72.112  1.00  0.00    -0.434 C  
HETATM   36  C   UNL     1     -12.302   8.444  71.386  1.00  0.00    -0.328 C  
HETATM   37  C   UNL     1     -12.689   6.967  71.363  1.00  0.00    -0.421 C  
HETATM   38  C   UNL     1     -11.564   6.058  70.872  1.00  0.00    -0.147 C  
HETATM   39  C   UNL     1     -10.245   6.333  71.593  1.00  0.00    -0.225 C  
ENDBRANCH  32  34
ENDBRANCH  30  32
ENDBRANCH  28  30
ENDBRANCH  25  28
ENDBRANCH  22  25
ENDBRANCH  18  19
ENDBRANCH  17  18
ENDBRANCH  14  17
ENDBRANCH   2   3
TORSDOF 9
ENDMDL
MODEL      288
REMARK 921   NORMALIZED FREE ENERGY PREDICTED BY IDOCK:   -0.52 KCAL/MOL
REMARK 922        TOTAL FREE ENERGY PREDICTED BY IDOCK:   -2.94 KCAL/MOL
REMARK 923 INTER-LIGAND FREE ENERGY PREDICTED BY IDOCK:   -1.37 KCAL/MOL
REMARK 924 INTRA-LIGAND FREE ENERGY PREDICTED BY IDOCK:   -1.58 KCAL/MOL
REMARK 927      BINDING AFFINITY PREDICTED BY RF-SCORE:    0.00 PKD
ROOT
HETATM    1  C   UNL     1     -11.263   4.630  65.205  1.00  0.00     0.309 C  
HETATM    2  O   UNL     1     -11.083   5.488  66.329  1.00  0.00    -0.129 OA 
ENDROOT
BRANCH   2   3
HETATM    3  C   UNL     1      -9.905   6.181  66.353  1.00  0.00    -0.092 A  
HETATM    4  C   UNL     1      -9.759   7.484  66.813  1.00  0.00    -0.283 A  
HETATM    5  C   UNL     1      -8.492   8.083  66.833  1.00  0.00    -0.124 A  
HETATM    6  C   UNL     1      -7.360   7.410  66.344  1.00  0.00    -0.083 A  
HETATM    7  C   UNL     1      -7.518   6.082  65.920  1.00  0.00    -0.082 A  
HETATM    8  C   UNL     1      -6.001   8.101  66.344  1.00  0.00    -0.041 C  
HETATM    9  C   UNL     1      -6.136   9.603  66.638  1.00  0.00    -0.063 C  
HETATM   10  C   UNL     1      -5.138   7.541  67.497  1.00  0.00    -0.025 C  
HETATM   11  C   UNL     1      -5.253   7.913  65.012  1.00  0.00    -0.029 C  
HETATM   12  C   UNL     1      -8.777   5.473  65.940  1.00  0.00    -0.145 A  
HETATM   13  O   UNL     1      -5.396  10.461  66.160  1.00  0.00    -0.050 OA 
HETATM   14  N   UNL     1      -7.066   9.876  67.623  1.00  0.00    -0.086 N  
HETATM   15  O   UNL     1      -9.332   9.938  68.016  1.00  0.00    -0.131 OA 
HETATM   16  C   UNL     1      -8.350   9.385  67.532  1.00  0.00    -0.122 C  
BRANCH  14  17
HETATM   17  C   UNL     1      -6.752  10.881  68.614  1.00  0.00    -0.059 C  
BRANCH  17  18
HETATM   18  C   UNL     1      -6.494  12.300  68.108  1.00  0.00    -0.062 C  
BRANCH  18  19
HETATM   19  C   UNL     1      -7.714  13.187  68.298  1.00  0.00    -0.141 A  
HETATM   20  C   UNL     1      -8.635  13.416  67.261  1.00  0.00    -0.216 A  
HETATM   21  C   UNL     1      -9.714  14.282  67.436  1.00  0.00    -0.235 A  
HETATM   22  C   UNL     1      -9.901  14.901  68.667  1.00  0.00    -0.225 A  
HETATM   23  C   UNL     1      -7.935  13.801  69.539  1.00  0.00     0.658 A  
HETATM   24  C   UNL     1      -9.017  14.666  69.720  1.00  0.00     0.451 A  
BRANCH  22  25
HETATM   25  S   UNL     1     -11.249  16.036  68.861  1.00  0.00    -0.362 S  
HETATM   26  O   UNL     1     -10.749  17.393  68.799  1.00  0.00    -0.309 OA 
HETATM   27  O   UNL     1     -12.308  15.604  67.972  1.00  0.00     0.311 OA 
BRANCH  25  28
HETATM   28  N   UNL     1     -11.806  15.710  70.390  1.00  0.00    -0.341 N  
HETATM   29  H   UNL     1     -11.141  15.771  71.162  1.00  0.00     0.000 HD 
BRANCH  28  30
HETATM   30  C   UNL     1     -13.108  15.361  70.689  1.00  0.00    -0.354 C  
HETATM   31  O   UNL     1     -13.991  16.166  70.937  1.00  0.00     0.462 OA 
BRANCH  30  32
HETATM   32  N   UNL     1     -13.291  14.012  70.683  1.00  0.00    -0.205 N  
HETATM   33  H   UNL     1     -14.154  13.628  70.299  1.00  0.00     0.000 HD 
BRANCH  32  34
HETATM   34  C   UNL     1     -12.280  13.103  71.212  1.00  0.00     0.026 C  
HETATM   35  C   UNL     1     -12.856  12.205  72.313  1.00  0.00     0.071 C  
HETATM   36  C   UNL     1     -13.897  11.232  71.762  1.00  0.00     0.448 C  
HETATM   37  C   UNL     1     -13.356  10.411  70.595  1.00  0.00    -0.046 C  
HETATM   38  C   UNL     1     -12.699  11.265  69.512  1.00  0.00     0.219 C  
HETATM   39  C   UNL     1     -11.682  12.249  70.091  1.00  0.00    -0.280 C  
ENDBRANCH  32  34
ENDBRANCH  30  32
ENDBRANCH  28  30
ENDBRANCH  25  28
ENDBRANCH  22  25
ENDBRANCH  18  19
ENDBRANCH  17  18
ENDBRANCH  14  17
ENDBRANCH   2   3
TORSDOF 9
ENDMDL
MODEL      289
REMARK 921   NORMALIZED FREE ENERGY PREDICTED BY IDOCK:   -0.36 KCAL/MOL
REMARK 922        TOTAL FREE ENERGY PREDICTED BY IDOCK:   -2.70 KCAL/MOL
REMARK 923 INTER-LIGAND FREE ENERGY PREDICTED BY IDOCK:   -4.52 KCAL/MOL
REMARK 924 INTRA-LIGAND FREE ENERGY PREDICTED BY IDOCK:    1.82 KCAL/MOL
REMARK 927      BINDING AFFINITY PREDICTED BY RF-SCORE:    0.00 PKD
ROOT
HETATM    1  C   UNL     1     -10.178  15.068  65.009  1.00  0.00    -0.314 C  
HETATM    2  O   UNL     1     -10.640  14.247  66.077  1.00  0.00    -0.288 OA 
ENDROOT
BRANCH   2   3
HETATM    3  C   UNL     1      -9.708  13.402  66.612  1.00  0.00    -0.275 A  
HETATM    4  C   UNL     1      -9.078  12.373  65.922  1.00  0.00     0.090 A  
HETATM    5  C   UNL     1      -8.102  11.596  66.559  1.00  0.00    -0.075 A  
HETATM    6  C   UNL     1      -7.776  11.799  67.911  1.00  0.00    -0.125 A  
HETATM    7  C   UNL     1      -8.391  12.866  68.581  1.00  0.00     0.032 A  
HETATM    8  C   UNL     1      -6.736  10.913  68.587  1.00  0.00    -0.059 C  
HETATM    9  C   UNL     1      -6.387   9.695  67.719  1.00  0.00    -0.053 C  
HETATM   10  C   UNL     1      -5.411  11.694  68.736  1.00  0.00    -0.049 C  
HETATM   11  C   UNL     1      -7.198  10.429  69.973  1.00  0.00    -0.143 C  
HETATM   12  C   UNL     1      -9.336  13.667  67.930  1.00  0.00    -0.206 A  
HETATM   13  O   UNL     1      -6.085   8.595  68.177  1.00  0.00    -0.049 OA 
HETATM   14  N   UNL     1      -6.284  10.004  66.376  1.00  0.00    -0.065 N  
HETATM   15  O   UNL     1      -7.551  10.535  64.531  1.00  0.00    -0.078 OA 
HETATM   16  C   UNL     1      -7.306  10.660  65.726  1.00  0.00    -0.110 C  
BRANCH  14  17
HETATM   17  C   UNL     1      -5.209   9.416  65.609  1.00  0.00    -0.039 C  
BRANCH  17  18
HETATM   18  C   UNL     1      -5.367   7.951  65.200  1.00  0.00    -0.029 C  
BRANCH  18  19
HETATM   19  C   UNL     1      -6.669   7.366  65.723  1.00  0.00    -0.052 A  
HETATM   20  C   UNL     1      -6.693   6.385  66.730  1.00  0.00    -0.060 A  
HETATM   21  C   UNL     1      -7.894   5.817  67.153  1.00  0.00    -0.102 A  
HETATM   22  C   UNL     1      -9.090   6.253  66.594  1.00  0.00    -0.144 A  
HETATM   23  C   UNL     1      -7.888   7.811  65.192  1.00  0.00    -0.123 A  
HETATM   24  C   UNL     1      -9.095   7.248  65.615  1.00  0.00     0.084 A  
BRANCH  22  25
HETATM   25  S   UNL     1     -10.605   5.490  67.106  1.00  0.00    -0.189 S  
HETATM   26  O   UNL     1     -11.700   6.418  66.918  1.00  0.00     0.267 OA 
HETATM   27  O   UNL     1     -10.650   4.173  66.504  1.00  0.00     0.222 OA 
BRANCH  25  28
HETATM   28  N   UNL     1     -10.368   5.218  68.726  1.00  0.00    -0.167 N  
HETATM   29  H   UNL     1     -10.379   4.251  69.053  1.00  0.00     0.000 HD 
BRANCH  28  30
HETATM   30  C   UNL     1     -10.156   6.211  69.662  1.00  0.00    -0.179 C  
HETATM   31  O   UNL     1      -9.052   6.566  70.043  1.00  0.00    -0.149 OA 
BRANCH  30  32
HETATM   32  N   UNL     1     -11.323   6.744  70.116  1.00  0.00    -0.354 N  
HETATM   33  H   UNL     1     -12.132   6.773  69.495  1.00  0.00     0.000 HD 
BRANCH  32  34
HETATM   34  C   UNL     1     -11.443   7.276  71.469  1.00  0.00    -0.263 C  
HETATM   35  C   UNL     1     -10.398   8.366  71.737  1.00  0.00    -0.333 C  
HETATM   36  C   UNL     1     -10.649   9.610  70.886  1.00  0.00    -0.386 C  
HETATM   37  C   UNL     1     -12.071  10.142  71.052  1.00  0.00    -0.476 C  
HETATM   38  C   UNL     1     -13.140   9.066  70.873  1.00  0.00     0.068 C  
HETATM   39  C   UNL     1     -12.853   7.822  71.712  1.00  0.00    -0.352 C  
ENDBRANCH  32  34
ENDBRANCH  30  32
ENDBRANCH  28  30
ENDBRANCH  25  28
ENDBRANCH  22  25
ENDBRANCH  18  19
ENDBRANCH  17  18
ENDBRANCH  14  17
ENDBRANCH   2   3
TORSDOF 9
ENDMDL
MODEL      290
REMARK 921   NORMALIZED FREE ENERGY PREDICTED BY IDOCK:   -0.29 KCAL/MOL
REMARK 922        TOTAL FREE ENERGY PREDICTED BY IDOCK:   -2.59 KCAL/MOL
REMARK 923 INTER-LIGAND FREE ENERGY PREDICTED BY IDOCK:   -3.27 KCAL/MOL
REMARK 924 INTRA-LIGAND FREE ENERGY PREDICTED BY IDOCK:    0.68 KCAL/MOL
REMARK 927      BINDING AFFINITY PREDICTED BY RF-SCORE:    0.00 PKD
ROOT
HETATM    1  C   UNL     1     -11.962  16.793  69.611  1.00  0.00     1.226 C  
HETATM    2  O   UNL     1     -12.347  15.466  69.962  1.00  0.00    -0.359 OA 
ENDROOT
BRANCH   2   3
HETATM    3  C   UNL     1     -11.456  14.488  69.616  1.00  0.00    -0.288 A  
HETATM    4  C   UNL     1     -11.669  13.125  69.782  1.00  0.00    -0.350 A  
HETATM    5  C   UNL     1     -10.703  12.207  69.349  1.00  0.00     0.054 A  
HETATM    6  C   UNL     1      -9.486  12.636  68.793  1.00  0.00     0.112 A  
HETATM    7  C   UNL     1      -9.304  14.013  68.596  1.00  0.00    -0.130 A  
HETATM    8  C   UNL     1      -8.439  11.614  68.365  1.00  0.00    -0.157 C  
HETATM    9  C   UNL     1      -8.778  10.211  68.889  1.00  0.00    -0.149 C  
HETATM   10  C   UNL     1      -8.447  11.482  66.825  1.00  0.00    -0.168 C  
HETATM   11  C   UNL     1      -7.025  12.000  68.834  1.00  0.00    -0.104 C  
HETATM   12  C   UNL     1     -10.289  14.925  68.991  1.00  0.00    -0.245 A  
HETATM   13  O   UNL     1      -7.931   9.380  69.211  1.00  0.00    -0.085 OA 
HETATM   14  N   UNL     1     -10.126   9.917  68.805  1.00  0.00    -0.166 N  
HETATM   15  O   UNL     1     -12.156  10.402  69.772  1.00  0.00    -0.228 OA 
HETATM   16  C   UNL     1     -11.065  10.767  69.345  1.00  0.00    -0.268 C  
BRANCH  14  17
HETATM   17  C   UNL     1     -10.521   8.597  68.368  1.00  0.00    -0.176 C  
BRANCH  17  18
HETATM   18  C   UNL     1      -9.750   7.412  68.949  1.00  0.00    -0.150 C  
BRANCH  18  19
HETATM   19  C   UNL     1      -9.233   6.495  67.852  1.00  0.00    -0.110 A  
HETATM   20  C   UNL     1      -9.984   6.221  66.696  1.00  0.00    -0.207 A  
HETATM   21  C   UNL     1      -9.518   5.329  65.730  1.00  0.00    -0.132 A  
HETATM   22  C   UNL     1      -8.275   4.729  65.897  1.00  0.00    -0.112 A  
HETATM   23  C   UNL     1      -7.970   5.901  67.988  1.00  0.00    -0.105 A  
HETATM   24  C   UNL     1      -7.497   5.010  67.021  1.00  0.00    -0.087 A  
BRANCH  22  25
HETATM   25  S   UNL     1      -7.715   3.562  64.686  1.00  0.00    -0.078 S  
HETATM   26  O   UNL     1      -6.833   2.602  65.314  1.00  0.00    -0.042 OA 
HETATM   27  O   UNL     1      -8.879   3.115  63.948  1.00  0.00    -0.092 OA 
BRANCH  25  28
HETATM   28  N   UNL     1      -6.859   4.501  63.618  1.00  0.00    -0.043 N  
HETATM   29  H   UNL     1      -6.889   4.247  62.630  1.00  0.00     0.000 HD 
BRANCH  28  30
HETATM   30  C   UNL     1      -6.107   5.603  63.975  1.00  0.00    -0.025 C  
HETATM   31  O   UNL     1      -5.448   5.677  64.999  1.00  0.00    -0.015 OA 
BRANCH  30  32
HETATM   32  N   UNL     1      -6.193   6.601  63.054  1.00  0.00    -0.041 N  
HETATM   33  H   UNL     1      -6.581   6.398  62.133  1.00  0.00     0.000 HD 
BRANCH  32  34
HETATM   34  C   UNL     1      -5.743   7.956  63.354  1.00  0.00    -0.054 C  
HETATM   35  C   UNL     1      -6.603   9.004  62.636  1.00  0.00    -0.094 C  
HETATM   36  C   UNL     1      -8.034   9.022  63.169  1.00  0.00    -0.151 C  
HETATM   37  C   UNL     1      -8.081   9.202  64.684  1.00  0.00    -0.136 C  
HETATM   38  C   UNL     1      -7.173   8.229  65.434  1.00  0.00    -0.071 C  
HETATM   39  C   UNL     1      -5.755   8.208  64.864  1.00  0.00    -0.044 C  
ENDBRANCH  32  34
ENDBRANCH  30  32
ENDBRANCH  28  30
ENDBRANCH  25  28
ENDBRANCH  22  25
ENDBRANCH  18  19
ENDBRANCH  17  18
ENDBRANCH  14  17
ENDBRANCH   2   3
TORSDOF 9
ENDMDL
MODEL      291
REMARK 921   NORMALIZED FREE ENERGY PREDICTED BY IDOCK:   -0.16 KCAL/MOL
REMARK 922        TOTAL FREE ENERGY PREDICTED BY IDOCK:   -2.39 KCAL/MOL
REMARK 923 INTER-LIGAND FREE ENERGY PREDICTED BY IDOCK:   -4.68 KCAL/MOL
REMARK 924 INTRA-LIGAND FREE ENERGY PREDICTED BY IDOCK:    2.29 KCAL/MOL
REMARK 927      BINDING AFFINITY PREDICTED BY RF-SCORE:    0.00 PKD
ROOT
HETATM    1  C   UNL     1      -6.329   1.674  68.883  1.00  0.00    -0.025 C  
HETATM    2  O   UNL     1      -7.479   2.171  69.563  1.00  0.00    -0.043 OA 
ENDROOT
BRANCH   2   3
HETATM    3  C   UNL     1      -7.343   3.416  70.109  1.00  0.00    -0.041 A  
HETATM    4  C   UNL     1      -6.827   4.523  69.445  1.00  0.00    -0.046 A  
HETATM    5  C   UNL     1      -6.776   5.766  70.090  1.00  0.00    -0.048 A  
HETATM    6  C   UNL     1      -7.189   5.913  71.425  1.00  0.00    -0.079 A  
HETATM    7  C   UNL     1      -7.744   4.796  72.067  1.00  0.00    -0.095 A  
HETATM    8  C   UNL     1      -7.087   7.270  72.112  1.00  0.00    -0.067 C  
HETATM    9  C   UNL     1      -6.248   8.256  71.284  1.00  0.00    -0.037 C  
HETATM   10  C   UNL     1      -8.491   7.911  72.199  1.00  0.00    -0.173 C  
HETATM   11  C   UNL     1      -6.490   7.163  73.526  1.00  0.00    -0.065 C  
HETATM   12  C   UNL     1      -7.832   3.566  71.406  1.00  0.00    -0.060 A  
HETATM   13  O   UNL     1      -5.539   9.130  71.778  1.00  0.00    -0.058 OA 
HETATM   14  N   UNL     1      -6.500   8.169  69.928  1.00  0.00    -0.038 N  
HETATM   15  O   UNL     1      -6.129   6.832  68.093  1.00  0.00    -0.029 OA 
HETATM   16  C   UNL     1      -6.425   6.957  69.276  1.00  0.00    -0.043 C  
BRANCH  14  17
HETATM   17  C   UNL     1      -6.596   9.390  69.160  1.00  0.00    -0.049 C  
BRANCH  17  18
HETATM   18  C   UNL     1      -7.375   9.326  67.847  1.00  0.00    -0.080 C  
BRANCH  18  19
HETATM   19  C   UNL     1      -8.317  10.511  67.702  1.00  0.00    -0.114 A  
HETATM   20  C   UNL     1      -7.841  11.824  67.544  1.00  0.00    -0.148 A  
HETATM   21  C   UNL     1      -8.720  12.905  67.475  1.00  0.00    -0.190 A  
HETATM   22  C   UNL     1     -10.090  12.675  67.527  1.00  0.00    -0.212 A  
HETATM   23  C   UNL     1      -9.702  10.298  67.726  1.00  0.00    -0.178 A  
HETATM   24  C   UNL     1     -10.588  11.377  67.652  1.00  0.00    -0.240 A  
BRANCH  22  25
HETATM   25  S   UNL     1     -11.195  14.061  67.486  1.00  0.00    -0.324 S  
HETATM   26  O   UNL     1     -11.514  14.381  66.111  1.00  0.00    -0.343 OA 
HETATM   27  O   UNL     1     -12.252  13.799  68.441  1.00  0.00    -0.340 OA 
BRANCH  25  28
HETATM   28  N   UNL     1     -10.298  15.285  68.157  1.00  0.00    -0.239 N  
HETATM   29  H   UNL     1     -10.609  16.244  68.001  1.00  0.00     0.000 HD 
BRANCH  28  30
HETATM   30  C   UNL     1      -9.158  15.094  68.913  1.00  0.00    -0.206 C  
HETATM   31  O   UNL     1      -9.050  14.246  69.784  1.00  0.00     0.580 OA 
BRANCH  30  32
HETATM   32  N   UNL     1      -8.169  15.967  68.577  1.00  0.00    -0.172 N  
HETATM   33  H   UNL     1      -7.506  16.268  69.292  1.00  0.00     0.000 HD 
BRANCH  32  34
HETATM   34  C   UNL     1      -8.035  16.482  67.219  1.00  0.00    -0.164 C  
HETATM   35  C   UNL     1      -9.219  17.383  66.843  1.00  0.00    -0.266 C  
HETATM   36  C   UNL     1      -9.235  18.669  67.667  1.00  0.00    -0.300 C  
HETATM   37  C   UNL     1      -7.909  19.421  67.584  1.00  0.00    -0.309 C  
HETATM   38  C   UNL     1      -6.697  18.537  67.873  1.00  0.00    -0.218 C  
HETATM   39  C   UNL     1      -6.718  17.245  67.058  1.00  0.00    -0.220 C  
ENDBRANCH  32  34
ENDBRANCH  30  32
ENDBRANCH  28  30
ENDBRANCH  25  28
ENDBRANCH  22  25
ENDBRANCH  18  19
ENDBRANCH  17  18
ENDBRANCH  14  17
ENDBRANCH   2   3
TORSDOF 9
ENDMDL
MODEL      292
REMARK 921   NORMALIZED FREE ENERGY PREDICTED BY IDOCK:    0.19 KCAL/MOL
REMARK 922        TOTAL FREE ENERGY PREDICTED BY IDOCK:   -1.86 KCAL/MOL
REMARK 923 INTER-LIGAND FREE ENERGY PREDICTED BY IDOCK:   -2.27 KCAL/MOL
REMARK 924 INTRA-LIGAND FREE ENERGY PREDICTED BY IDOCK:    0.41 KCAL/MOL
REMARK 927      BINDING AFFINITY PREDICTED BY RF-SCORE:    0.00 PKD
ROOT
HETATM    1  C   UNL     1     -10.850  17.326  64.375  1.00  0.00     1.753 C  
HETATM    2  O   UNL     1     -10.991  17.113  65.777  1.00  0.00    -0.109 OA 
ENDROOT
BRANCH   2   3
HETATM    3  C   UNL     1      -9.881  16.627  66.409  1.00  0.00    -0.292 A  
HETATM    4  C   UNL     1      -9.812  15.406  67.069  1.00  0.00    -0.236 A  
HETATM    5  C   UNL     1      -8.605  14.988  67.645  1.00  0.00    -0.179 A  
HETATM    6  C   UNL     1      -7.462  15.804  67.619  1.00  0.00    -0.180 A  
HETATM    7  C   UNL     1      -7.537  17.015  66.915  1.00  0.00    -0.244 A  
HETATM    8  C   UNL     1      -6.174  15.337  68.286  1.00  0.00    -0.123 C  
HETATM    9  C   UNL     1      -6.415  14.104  69.170  1.00  0.00    -0.111 C  
HETATM   10  C   UNL     1      -5.173  14.869  67.206  1.00  0.00     0.537 C  
HETATM   11  C   UNL     1      -5.524  16.445  69.134  1.00  0.00    -0.121 C  
HETATM   12  C   UNL     1      -8.732  17.411  66.305  1.00  0.00    -0.242 A  
HETATM   13  O   UNL     1      -5.795  13.876  70.206  1.00  0.00    -0.126 OA 
HETATM   14  N   UNL     1      -7.282  13.193  68.596  1.00  0.00    -0.105 N  
HETATM   15  O   UNL     1      -9.505  12.861  68.105  1.00  0.00    -0.210 OA 
HETATM   16  C   UNL     1      -8.521  13.592  68.144  1.00  0.00    -0.172 C  
BRANCH  14  17
HETATM   17  C   UNL     1      -6.978  11.784  68.701  1.00  0.00    -0.093 C  
BRANCH  17  18
HETATM   18  C   UNL     1      -8.151  10.809  68.600  1.00  0.00    -0.136 C  
BRANCH  18  19
HETATM   19  C   UNL     1      -7.977   9.852  67.432  1.00  0.00    -0.106 A  
HETATM   20  C   UNL     1      -8.657  10.032  66.215  1.00  0.00    -0.137 A  
HETATM   21  C   UNL     1      -8.532   9.110  65.177  1.00  0.00    -0.182 A  
HETATM   22  C   UNL     1      -7.694   8.012  65.337  1.00  0.00    -0.096 A  
HETATM   23  C   UNL     1      -7.116   8.753  67.563  1.00  0.00    -0.079 A  
HETATM   24  C   UNL     1      -6.984   7.827  66.524  1.00  0.00    -0.067 A  
BRANCH  22  25
HETATM   25  S   UNL     1      -7.580   6.821  64.028  1.00  0.00    -0.113 S  
HETATM   26  O   UNL     1      -8.217   7.349  62.840  1.00  0.00    -0.099 OA 
HETATM   27  O   UNL     1      -6.207   6.361  63.981  1.00  0.00    -0.029 OA 
BRANCH  25  28
HETATM   28  N   UNL     1      -8.450   5.532  64.608  1.00  0.00    -0.208 N  
HETATM   29  H   UNL     1      -8.460   4.676  64.053  1.00  0.00     0.000 HD 
BRANCH  28  30
HETATM   30  C   UNL     1      -9.162   5.539  65.791  1.00  0.00    -0.120 C  
HETATM   31  O   UNL     1      -9.970   6.400  66.097  1.00  0.00    -0.017 OA 
BRANCH  30  32
HETATM   32  N   UNL     1      -8.852   4.475  66.581  1.00  0.00    -0.111 N  
HETATM   33  H   UNL     1      -8.871   3.536  66.183  1.00  0.00     0.000 HD 
BRANCH  32  34
HETATM   34  C   UNL     1      -8.494   4.646  67.985  1.00  0.00    -0.102 C  
HETATM   35  C   UNL     1      -9.058   3.511  68.849  1.00  0.00    -0.205 C  
HETATM   36  C   UNL     1      -8.406   2.171  68.519  1.00  0.00    -0.079 C  
HETATM   37  C   UNL     1      -6.883   2.236  68.604  1.00  0.00    -0.039 C  
HETATM   38  C   UNL     1      -6.286   3.404  67.821  1.00  0.00    -0.032 C  
HETATM   39  C   UNL     1      -6.974   4.729  68.148  1.00  0.00    -0.057 C  
ENDBRANCH  32  34
ENDBRANCH  30  32
ENDBRANCH  28  30
ENDBRANCH  25  28
ENDBRANCH  22  25
ENDBRANCH  18  19
ENDBRANCH  17  18
ENDBRANCH  14  17
ENDBRANCH   2   3
TORSDOF 9
ENDMDL
MODEL      293
REMARK 921   NORMALIZED FREE ENERGY PREDICTED BY IDOCK:    0.42 KCAL/MOL
REMARK 922        TOTAL FREE ENERGY PREDICTED BY IDOCK:   -1.50 KCAL/MOL
REMARK 923 INTER-LIGAND FREE ENERGY PREDICTED BY IDOCK:   -4.58 KCAL/MOL
REMARK 924 INTRA-LIGAND FREE ENERGY PREDICTED BY IDOCK:    3.07 KCAL/MOL
REMARK 927      BINDING AFFINITY PREDICTED BY RF-SCORE:    0.00 PKD
ROOT
HETATM    1  C   UNL     1     -11.502   7.906  70.703  1.00  0.00    -0.238 C  
HETATM    2  O   UNL     1     -11.325   9.248  71.150  1.00  0.00    -0.285 OA 
ENDROOT
BRANCH   2   3
HETATM    3  C   UNL     1     -10.836  10.116  70.214  1.00  0.00    -0.310 A  
HETATM    4  C   UNL     1      -9.497  10.457  70.069  1.00  0.00     0.179 A  
HETATM    5  C   UNL     1      -9.103  11.326  69.042  1.00  0.00     0.015 A  
HETATM    6  C   UNL     1     -10.044  11.909  68.178  1.00  0.00    -0.200 A  
HETATM    7  C   UNL     1     -11.386  11.523  68.312  1.00  0.00    -0.352 A  
HETATM    8  C   UNL     1      -9.589  12.879  67.093  1.00  0.00    -0.225 C  
HETATM    9  C   UNL     1      -8.127  13.305  67.300  1.00  0.00    -0.142 C  
HETATM   10  C   UNL     1      -9.610  12.167  65.722  1.00  0.00    -0.209 C  
HETATM   11  C   UNL     1     -10.475  14.135  67.027  1.00  0.00    -0.271 C  
HETATM   12  C   UNL     1     -11.771  10.624  69.312  1.00  0.00    -0.336 A  
HETATM   13  O   UNL     1      -7.692  14.415  67.003  1.00  0.00    -0.104 OA 
HETATM   14  N   UNL     1      -7.314  12.260  67.699  1.00  0.00    -0.115 N  
HETATM   15  O   UNL     1      -6.830  10.923  69.507  1.00  0.00    -0.097 OA 
HETATM   16  C   UNL     1      -7.649  11.487  68.789  1.00  0.00    -0.129 C  
BRANCH  14  17
HETATM   17  C   UNL     1      -5.996  12.146  67.117  1.00  0.00    -0.143 C  
BRANCH  17  18
HETATM   18  C   UNL     1      -5.217  10.862  67.405  1.00  0.00    -0.038 C  
BRANCH  18  19
HETATM   19  C   UNL     1      -6.099   9.633  67.253  1.00  0.00    -0.056 A  
HETATM   20  C   UNL     1      -6.897   9.426  66.115  1.00  0.00    -0.085 A  
HETATM   21  C   UNL     1      -7.745   8.323  66.021  1.00  0.00    -0.093 A  
HETATM   22  C   UNL     1      -7.775   7.395  67.056  1.00  0.00    -0.111 A  
HETATM   23  C   UNL     1      -6.123   8.671  68.273  1.00  0.00    -0.050 A  
HETATM   24  C   UNL     1      -6.968   7.562  68.182  1.00  0.00    -0.072 A  
BRANCH  22  25
HETATM   25  S   UNL     1      -8.891   6.022  66.946  1.00  0.00    -0.118 S  
HETATM   26  O   UNL     1      -8.210   4.813  67.355  1.00  0.00    -0.105 OA 
HETATM   27  O   UNL     1     -10.128   6.420  67.588  1.00  0.00    -0.131 OA 
BRANCH  25  28
HETATM   28  N   UNL     1      -9.248   5.949  65.327  1.00  0.00    -0.363 N  
HETATM   29  H   UNL     1     -10.203   5.710  65.060  1.00  0.00     0.000 HD 
BRANCH  28  30
HETATM   30  C   UNL     1      -8.339   6.189  64.315  1.00  0.00     0.022 C  
HETATM   31  O   UNL     1      -8.268   7.237  63.695  1.00  0.00    -0.050 OA 
BRANCH  30  32
HETATM   32  N   UNL     1      -7.534   5.116  64.085  1.00  0.00    -0.062 N  
HETATM   33  H   UNL     1      -6.695   5.234  63.517  1.00  0.00     0.000 HD 
BRANCH  32  34
HETATM   34  C   UNL     1      -7.844   3.799  64.632  1.00  0.00    -0.085 C  
HETATM   35  C   UNL     1      -8.710   2.981  63.666  1.00  0.00    -0.089 C  
HETATM   36  C   UNL     1      -7.950   2.622  62.391  1.00  0.00    -0.067 C  
HETATM   37  C   UNL     1      -6.627   1.920  62.689  1.00  0.00    -0.014 C  
HETATM   38  C   UNL     1      -5.769   2.663  63.711  1.00  0.00    -0.010 C  
HETATM   39  C   UNL     1      -6.559   3.036  64.965  1.00  0.00    -0.039 C  
ENDBRANCH  32  34
ENDBRANCH  30  32
ENDBRANCH  28  30
ENDBRANCH  25  28
ENDBRANCH  22  25
ENDBRANCH  18  19
ENDBRANCH  17  18
ENDBRANCH  14  17
ENDBRANCH   2   3
TORSDOF 9
ENDMDL
MODEL      294
REMARK 921   NORMALIZED FREE ENERGY PREDICTED BY IDOCK:    0.51 KCAL/MOL
REMARK 922        TOTAL FREE ENERGY PREDICTED BY IDOCK:   -1.36 KCAL/MOL
REMARK 923 INTER-LIGAND FREE ENERGY PREDICTED BY IDOCK:   -5.14 KCAL/MOL
REMARK 924 INTRA-LIGAND FREE ENERGY PREDICTED BY IDOCK:    3.78 KCAL/MOL
REMARK 927      BINDING AFFINITY PREDICTED BY RF-SCORE:    0.00 PKD
ROOT
HETATM    1  C   UNL     1     -12.392  10.218  71.646  1.00  0.00    -0.349 C  
HETATM    2  O   UNL     1     -11.111  10.554  71.119  1.00  0.00     0.012 OA 
ENDROOT
BRANCH   2   3
HETATM    3  C   UNL     1     -11.126  11.320  69.987  1.00  0.00    -0.037 A  
HETATM    4  C   UNL     1     -10.901  10.843  68.701  1.00  0.00    -0.258 A  
HETATM    5  C   UNL     1     -10.986  11.713  67.606  1.00  0.00    -0.294 A  
HETATM    6  C   UNL     1     -11.244  13.082  67.780  1.00  0.00    -0.313 A  
HETATM    7  C   UNL     1     -11.509  13.540  69.080  1.00  0.00    -0.349 A  
HETATM    8  C   UNL     1     -11.295  14.011  66.572  1.00  0.00    -0.343 C  
HETATM    9  C   UNL     1     -10.753  13.320  65.311  1.00  0.00    -0.311 C  
HETATM   10  C   UNL     1     -12.765  14.352  66.244  1.00  0.00     0.035 C  
HETATM   11  C   UNL     1     -10.512  15.314  66.808  1.00  0.00    -0.293 C  
HETATM   12  C   UNL     1     -11.464  12.661  70.167  1.00  0.00    -0.003 A  
HETATM   13  O   UNL     1     -10.151  13.909  64.416  1.00  0.00    -0.299 OA 
HETATM   14  N   UNL     1     -11.157  12.002  65.205  1.00  0.00    -0.310 N  
HETATM   15  O   UNL     1     -10.796   9.913  66.098  1.00  0.00     0.055 OA 
HETATM   16  C   UNL     1     -10.956  11.120  66.245  1.00  0.00    -0.163 C  
BRANCH  14  17
HETATM   17  C   UNL     1     -11.563  11.503  63.911  1.00  0.00    -0.212 C  
BRANCH  17  18
HETATM   18  C   UNL     1     -10.509  10.760  63.091  1.00  0.00     0.060 C  
BRANCH  18  19
HETATM   19  C   UNL     1      -9.389  10.232  63.973  1.00  0.00    -0.337 A  
HETATM   20  C   UNL     1      -8.724  11.053  64.901  1.00  0.00    -0.002 A  
HETATM   21  C   UNL     1      -7.659  10.567  65.658  1.00  0.00    -0.134 A  
HETATM   22  C   UNL     1      -7.271   9.239  65.517  1.00  0.00    -0.086 A  
HETATM   23  C   UNL     1      -9.000   8.890  63.866  1.00  0.00     0.181 A  
HETATM   24  C   UNL     1      -7.936   8.396  64.626  1.00  0.00    -0.147 A  
BRANCH  22  25
HETATM   25  S   UNL     1      -5.885   8.646  66.450  1.00  0.00    -0.048 S  
HETATM   26  O   UNL     1      -5.198   7.622  65.693  1.00  0.00    -0.027 OA 
HETATM   27  O   UNL     1      -5.164   9.805  66.936  1.00  0.00    -0.040 OA 
BRANCH  25  28
HETATM   28  N   UNL     1      -6.588   7.977  67.796  1.00  0.00    -0.056 N  
HETATM   29  H   UNL     1      -7.301   8.522  68.281  1.00  0.00     0.000 HD 
BRANCH  28  30
HETATM   30  C   UNL     1      -6.275   6.731  68.304  1.00  0.00    -0.030 C  
HETATM   31  O   UNL     1      -5.184   6.198  68.179  1.00  0.00    -0.004 OA 
BRANCH  30  32
HETATM   32  N   UNL     1      -7.327   6.164  68.955  1.00  0.00    -0.083 N  
HETATM   33  H   UNL     1      -7.259   5.994  69.958  1.00  0.00     0.000 HD 
BRANCH  32  34
HETATM   34  C   UNL     1      -8.550   5.794  68.250  1.00  0.00    -0.112 C  
HETATM   35  C   UNL     1      -8.596   4.288  67.963  1.00  0.00    -0.106 C  
HETATM   36  C   UNL     1      -8.713   3.471  69.248  1.00  0.00    -0.133 C  
HETATM   37  C   UNL     1      -9.896   3.915  70.105  1.00  0.00    -0.163 C  
HETATM   38  C   UNL     1      -9.931   5.423  70.347  1.00  0.00    -0.291 C  
HETATM   39  C   UNL     1      -9.784   6.219  69.051  1.00  0.00    -0.147 C  
ENDBRANCH  32  34
ENDBRANCH  30  32
ENDBRANCH  28  30
ENDBRANCH  25  28
ENDBRANCH  22  25
ENDBRANCH  18  19
ENDBRANCH  17  18
ENDBRANCH  14  17
ENDBRANCH   2   3
TORSDOF 9
ENDMDL
MODEL      295
REMARK 921   NORMALIZED FREE ENERGY PREDICTED BY IDOCK:    0.65 KCAL/MOL
REMARK 922        TOTAL FREE ENERGY PREDICTED BY IDOCK:   -1.15 KCAL/MOL
REMARK 923 INTER-LIGAND FREE ENERGY PREDICTED BY IDOCK:   -0.11 KCAL/MOL
REMARK 924 INTRA-LIGAND FREE ENERGY PREDICTED BY IDOCK:   -1.04 KCAL/MOL
REMARK 927      BINDING AFFINITY PREDICTED BY RF-SCORE:    0.00 PKD
ROOT
HETATM    1  C   UNL     1      -6.848  19.116  71.335  1.00  0.00     1.984 C  
HETATM    2  O   UNL     1      -7.933  19.704  70.622  1.00  0.00     1.095 OA 
ENDROOT
BRANCH   2   3
HETATM    3  C   UNL     1      -8.453  18.941  69.614  1.00  0.00     0.650 A  
HETATM    4  C   UNL     1      -7.820  17.845  69.040  1.00  0.00    -0.095 A  
HETATM    5  C   UNL     1      -8.468  17.106  68.041  1.00  0.00    -0.219 A  
HETATM    6  C   UNL     1      -9.734  17.481  67.561  1.00  0.00    -0.278 A  
HETATM    7  C   UNL     1     -10.376  18.565  68.179  1.00  0.00    -0.391 A  
HETATM    8  C   UNL     1     -10.398  16.679  66.447  1.00  0.00    -0.310 C  
HETATM    9  C   UNL     1      -9.409  15.699  65.796  1.00  0.00    -0.268 C  
HETATM   10  C   UNL     1     -11.511  15.789  67.045  1.00  0.00     0.125 C  
HETATM   11  C   UNL     1     -11.001  17.584  65.359  1.00  0.00     0.194 C  
HETATM   12  C   UNL     1      -9.744  19.275  69.205  1.00  0.00    -0.382 A  
HETATM   13  O   UNL     1      -9.443  15.385  64.608  1.00  0.00     0.413 OA 
HETATM   14  N   UNL     1      -8.582  15.080  66.715  1.00  0.00    -0.254 N  
HETATM   15  O   UNL     1      -6.776  15.469  68.085  1.00  0.00    -0.111 OA 
HETATM   16  C   UNL     1      -7.851  15.824  67.615  1.00  0.00    -0.150 C  
BRANCH  14  17
HETATM   17  C   UNL     1      -8.304  13.671  66.558  1.00  0.00     0.465 C  
BRANCH  17  18
HETATM   18  C   UNL     1      -9.433  12.795  66.014  1.00  0.00    -0.127 C  
BRANCH  18  19
HETATM   19  C   UNL     1     -10.176  12.088  67.136  1.00  0.00    -0.221 A  
HETATM   20  C   UNL     1     -11.465  11.556  66.954  1.00  0.00    -0.261 A  
HETATM   21  C   UNL     1     -12.155  10.966  68.012  1.00  0.00     0.376 A  
HETATM   22  C   UNL     1     -11.544  10.870  69.258  1.00  0.00    -0.318 A  
HETATM   23  C   UNL     1      -9.568  11.958  68.392  1.00  0.00    -0.196 A  
HETATM   24  C   UNL     1     -10.254  11.363  69.455  1.00  0.00     0.083 A  
BRANCH  22  25
HETATM   25  S   UNL     1     -12.450  10.160  70.606  1.00  0.00    -0.256 S  
HETATM   26  O   UNL     1     -11.885  10.615  71.858  1.00  0.00     0.225 OA 
HETATM   27  O   UNL     1     -13.859  10.350  70.326  1.00  0.00     0.492 OA 
BRANCH  25  28
HETATM   28  N   UNL     1     -12.188   8.531  70.426  1.00  0.00    -0.358 N  
HETATM   29  H   UNL     1     -11.751   8.212  69.562  1.00  0.00     0.000 HD 
BRANCH  28  30
HETATM   30  C   UNL     1     -12.521   7.578  71.369  1.00  0.00    -0.352 C  
HETATM   31  O   UNL     1     -13.643   7.120  71.511  1.00  0.00    -0.380 OA 
BRANCH  30  32
HETATM   32  N   UNL     1     -11.451   7.212  72.126  1.00  0.00    -0.262 N  
HETATM   33  H   UNL     1     -11.606   6.695  72.991  1.00  0.00     0.000 HD 
BRANCH  32  34
HETATM   34  C   UNL     1     -10.087   7.543  71.729  1.00  0.00    -0.176 C  
HETATM   35  C   UNL     1      -9.131   7.512  72.929  1.00  0.00    -0.211 C  
HETATM   36  C   UNL     1      -8.965   6.098  73.482  1.00  0.00    -0.124 C  
HETATM   37  C   UNL     1      -8.541   5.104  72.403  1.00  0.00    -0.125 C  
HETATM   38  C   UNL     1      -9.421   5.161  71.155  1.00  0.00    -0.205 C  
HETATM   39  C   UNL     1      -9.595   6.589  70.637  1.00  0.00    -0.183 C  
ENDBRANCH  32  34
ENDBRANCH  30  32
ENDBRANCH  28  30
ENDBRANCH  25  28
ENDBRANCH  22  25
ENDBRANCH  18  19
ENDBRANCH  17  18
ENDBRANCH  14  17
ENDBRANCH   2   3
TORSDOF 9
ENDMDL
MODEL      296
REMARK 921   NORMALIZED FREE ENERGY PREDICTED BY IDOCK:    2.17 KCAL/MOL
REMARK 922        TOTAL FREE ENERGY PREDICTED BY IDOCK:    1.17 KCAL/MOL
REMARK 923 INTER-LIGAND FREE ENERGY PREDICTED BY IDOCK:   -1.63 KCAL/MOL
REMARK 924 INTRA-LIGAND FREE ENERGY PREDICTED BY IDOCK:    2.80 KCAL/MOL
REMARK 927      BINDING AFFINITY PREDICTED BY RF-SCORE:    0.00 PKD
ROOT
HETATM    1  C   UNL     1     -14.265  15.329  71.918  1.00  0.00    -0.581 C  
HETATM    2  O   UNL     1     -13.010  14.694  72.150  1.00  0.00    -0.312 OA 
ENDROOT
BRANCH   2   3
HETATM    3  C   UNL     1     -11.991  15.096  71.332  1.00  0.00    -0.350 A  
HETATM    4  C   UNL     1     -12.154  15.588  70.043  1.00  0.00    -0.391 A  
HETATM    5  C   UNL     1     -11.038  16.013  69.309  1.00  0.00    -0.331 A  
HETATM    6  C   UNL     1      -9.738  15.905  69.829  1.00  0.00    -0.134 A  
HETATM    7  C   UNL     1      -9.595  15.443  71.146  1.00  0.00     2.048 A  
HETATM    8  C   UNL     1      -8.541  16.342  68.993  1.00  0.00    -0.247 C  
HETATM    9  C   UNL     1      -8.939  16.588  67.530  1.00  0.00    -0.196 C  
HETATM   10  C   UNL     1      -8.024  17.705  69.504  1.00  0.00     0.565 C  
HETATM   11  C   UNL     1      -7.395  15.315  69.037  1.00  0.00    -0.157 C  
HETATM   12  C   UNL     1     -10.714  15.058  71.892  1.00  0.00     0.762 A  
HETATM   13  O   UNL     1      -8.194  16.376  66.575  1.00  0.00    -0.246 OA 
HETATM   14  N   UNL     1     -10.158  17.228  67.406  1.00  0.00    -0.297 N  
HETATM   15  O   UNL     1     -12.423  16.881  67.613  1.00  0.00     1.945 OA 
HETATM   16  C   UNL     1     -11.280  16.731  68.032  1.00  0.00    -0.119 C  
BRANCH  14  17
HETATM   17  C   UNL     1     -10.294  18.275  66.418  1.00  0.00    -0.400 C  
BRANCH  17  18
HETATM   18  C   UNL     1     -10.602  17.842  64.984  1.00  0.00     0.863 C  
BRANCH  18  19
HETATM   19  C   UNL     1     -10.840  16.343  64.896  1.00  0.00    -0.268 A  
HETATM   20  C   UNL     1      -9.912  15.412  65.395  1.00  0.00    -0.356 A  
HETATM   21  C   UNL     1     -10.120  14.041  65.249  1.00  0.00    -0.345 A  
HETATM   22  C   UNL     1     -11.280  13.587  64.632  1.00  0.00    -0.363 A  
HETATM   23  C   UNL     1     -12.016  15.865  64.301  1.00  0.00     0.008 A  
HETATM   24  C   UNL     1     -12.230  14.492  64.156  1.00  0.00    -0.372 A  
BRANCH  22  25
HETATM   25  S   UNL     1     -11.509  11.844  64.411  1.00  0.00    -0.293 S  
HETATM   26  O   UNL     1     -12.883  11.497  64.708  1.00  0.00     0.345 OA 
HETATM   27  O   UNL     1     -10.924  11.489  63.134  1.00  0.00    -0.286 OA 
BRANCH  25  28
HETATM   28  N   UNL     1     -10.501  11.178  65.549  1.00  0.00    -0.266 N  
HETATM   29  H   UNL     1      -9.502  11.370  65.470  1.00  0.00     0.000 HD 
BRANCH  28  30
HETATM   30  C   UNL     1     -10.922  10.384  66.597  1.00  0.00     0.003 C  
HETATM   31  O   UNL     1     -11.708  10.748  67.457  1.00  0.00    -0.510 OA 
BRANCH  30  32
HETATM   32  N   UNL     1     -10.353   9.148  66.563  1.00  0.00    -0.241 N  
HETATM   33  H   UNL     1      -9.696   8.922  65.817  1.00  0.00     0.000 HD 
BRANCH  32  34
HETATM   34  C   UNL     1     -10.662   8.139  67.570  1.00  0.00    -0.156 C  
HETATM   35  C   UNL     1     -10.802   6.746  66.943  1.00  0.00    -0.402 C  
HETATM   36  C   UNL     1      -9.471   6.241  66.388  1.00  0.00    -0.165 C  
HETATM   37  C   UNL     1      -8.361   6.275  67.436  1.00  0.00    -0.109 C  
HETATM   38  C   UNL     1      -8.244   7.624  68.143  1.00  0.00    -0.124 C  
HETATM   39  C   UNL     1      -9.592   8.121  68.664  1.00  0.00    -0.151 C  
ENDBRANCH  32  34
ENDBRANCH  30  32
ENDBRANCH  28  30
ENDBRANCH  25  28
ENDBRANCH  22  25
ENDBRANCH  18  19
ENDBRANCH  17  18
ENDBRANCH  14  17
ENDBRANCH   2   3
TORSDOF 9
ENDMDL
MODEL      297
REMARK 921   NORMALIZED FREE ENERGY PREDICTED BY IDOCK:    2.27 KCAL/MOL
REMARK 922        TOTAL FREE ENERGY PREDICTED BY IDOCK:    1.32 KCAL/MOL
REMARK 923 INTER-LIGAND FREE ENERGY PREDICTED BY IDOCK:   -3.09 KCAL/MOL
REMARK 924 INTRA-LIGAND FREE ENERGY PREDICTED BY IDOCK:    4.41 KCAL/MOL
REMARK 927      BINDING AFFINITY PREDICTED BY RF-SCORE:    0.00 PKD
ROOT
HETATM    1  C   UNL     1      -5.297   9.939  65.019  1.00  0.00    -0.060 C  
HETATM    2  O   UNL     1      -6.660   9.563  65.198  1.00  0.00    -0.076 OA 
ENDROOT
BRANCH   2   3
HETATM    3  C   UNL     1      -7.434  10.471  65.865  1.00  0.00    -0.147 A  
HETATM    4  C   UNL     1      -8.711  10.220  66.354  1.00  0.00    -0.144 A  
HETATM    5  C   UNL     1      -9.397  11.214  67.064  1.00  0.00    -0.182 A  
HETATM    6  C   UNL     1      -8.844  12.492  67.250  1.00  0.00    -0.195 A  
HETATM    7  C   UNL     1      -7.539  12.716  66.786  1.00  0.00     0.261 A  
HETATM    8  C   UNL     1      -9.630  13.565  67.995  1.00  0.00    -0.221 C  
HETATM    9  C   UNL     1     -11.095  13.148  68.196  1.00  0.00    -0.255 C  
HETATM   10  C   UNL     1      -9.059  13.726  69.422  1.00  0.00     0.790 C  
HETATM   11  C   UNL     1      -9.587  14.923  67.274  1.00  0.00    -0.216 C  
HETATM   12  C   UNL     1      -6.840  11.708  66.114  1.00  0.00     0.379 A  
HETATM   13  O   UNL     1     -12.034  13.940  68.207  1.00  0.00    -0.359 OA 
HETATM   14  N   UNL     1     -11.233  11.813  68.529  1.00  0.00    -0.229 N  
HETATM   15  O   UNL     1     -11.103   9.696  67.639  1.00  0.00    -0.214 OA 
HETATM   16  C   UNL     1     -10.656  10.832  67.752  1.00  0.00    -0.228 C  
BRANCH  14  17
HETATM   17  C   UNL     1     -12.189  11.448  69.549  1.00  0.00    -0.235 C  
BRANCH  17  18
HETATM   18  C   UNL     1     -11.636  10.815  70.826  1.00  0.00    -0.322 C  
BRANCH  18  19
HETATM   19  C   UNL     1     -10.311  10.115  70.570  1.00  0.00    -0.108 A  
HETATM   20  C   UNL     1      -9.209  10.789  70.015  1.00  0.00     0.810 A  
HETATM   21  C   UNL     1      -8.022  10.115  69.730  1.00  0.00    -0.172 A  
HETATM   22  C   UNL     1      -7.916   8.762  70.033  1.00  0.00    -0.108 A  
HETATM   23  C   UNL     1     -10.174   8.758  70.892  1.00  0.00    -0.284 A  
HETATM   24  C   UNL     1      -8.985   8.078  70.612  1.00  0.00    -0.148 A  
BRANCH  22  25
HETATM   25  S   UNL     1      -6.418   7.906  69.622  1.00  0.00    -0.034 S  
HETATM   26  O   UNL     1      -6.034   8.232  68.265  1.00  0.00    -0.043 OA 
HETATM   27  O   UNL     1      -5.491   8.110  70.716  1.00  0.00    -0.029 OA 
BRANCH  25  28
HETATM   28  N   UNL     1      -6.854   6.307  69.716  1.00  0.00    -0.062 N  
HETATM   29  H   UNL     1      -6.657   5.810  70.585  1.00  0.00     0.000 HD 
BRANCH  28  30
HETATM   30  C   UNL     1      -7.466   5.604  68.698  1.00  0.00    -0.084 C  
HETATM   31  O   UNL     1      -7.595   6.023  67.559  1.00  0.00    -0.087 OA 
BRANCH  30  32
HETATM   32  N   UNL     1      -7.916   4.388  69.114  1.00  0.00    -0.068 N  
HETATM   33  H   UNL     1      -7.283   3.770  69.622  1.00  0.00     0.000 HD 
BRANCH  32  34
HETATM   34  C   UNL     1      -9.282   3.950  68.851  1.00  0.00    -0.152 C  
HETATM   35  C   UNL     1     -10.000   4.903  67.888  1.00  0.00    -0.181 C  
HETATM   36  C   UNL     1      -9.383   4.867  66.491  1.00  0.00    -0.142 C  
HETATM   37  C   UNL     1      -9.315   3.449  65.929  1.00  0.00    -0.145 C  
HETATM   38  C   UNL     1      -8.679   2.450  66.894  1.00  0.00    -0.136 C  
HETATM   39  C   UNL     1      -9.294   2.525  68.291  1.00  0.00    -0.262 C  
ENDBRANCH  32  34
ENDBRANCH  30  32
ENDBRANCH  28  30
ENDBRANCH  25  28
ENDBRANCH  22  25
ENDBRANCH  18  19
ENDBRANCH  17  18
ENDBRANCH  14  17
ENDBRANCH   2   3
TORSDOF 9
ENDMDL
MODEL      298
REMARK 921   NORMALIZED FREE ENERGY PREDICTED BY IDOCK:    3.24 KCAL/MOL
REMARK 922        TOTAL FREE ENERGY PREDICTED BY IDOCK:    2.79 KCAL/MOL
REMARK 923 INTER-LIGAND FREE ENERGY PREDICTED BY IDOCK:    2.92 KCAL/MOL
REMARK 924 INTRA-LIGAND FREE ENERGY PREDICTED BY IDOCK:   -0.13 KCAL/MOL
REMARK 927      BINDING AFFINITY PREDICTED BY RF-SCORE:    0.00 PKD
ROOT
HETATM    1  C   UNL     1      -6.183  17.366  72.309  1.00  0.00     3.386 C  
HETATM    2  O   UNL     1      -5.127  16.451  72.025  1.00  0.00    -0.236 OA 
ENDROOT
BRANCH   2   3
HETATM    3  C   UNL     1      -5.515  15.265  71.468  1.00  0.00     0.112 A  
HETATM    4  C   UNL     1      -6.086  15.127  70.208  1.00  0.00    -0.127 A  
HETATM    5  C   UNL     1      -6.404  13.853  69.719  1.00  0.00    -0.125 A  
HETATM    6  C   UNL     1      -6.208  12.702  70.499  1.00  0.00     0.211 A  
HETATM    7  C   UNL     1      -5.595  12.854  71.752  1.00  0.00     0.260 A  
HETATM    8  C   UNL     1      -6.599  11.333  69.953  1.00  0.00    -0.108 C  
HETATM    9  C   UNL     1      -7.446  11.459  68.678  1.00  0.00    -0.119 C  
HETATM   10  C   UNL     1      -5.328  10.569  69.519  1.00  0.00    -0.038 C  
HETATM   11  C   UNL     1      -7.367  10.493  70.988  1.00  0.00     1.666 C  
HETATM   12  C   UNL     1      -5.240  14.123  72.221  1.00  0.00    -0.223 A  
HETATM   13  O   UNL     1      -8.335  10.668  68.369  1.00  0.00    -0.115 OA 
HETATM   14  N   UNL     1      -6.996  12.454  67.830  1.00  0.00    -0.093 N  
HETATM   15  O   UNL     1      -6.911  14.741  67.597  1.00  0.00    -0.162 OA 
HETATM   16  C   UNL     1      -6.804  13.737  68.294  1.00  0.00    -0.109 C  
BRANCH  14  17
HETATM   17  C   UNL     1      -6.969  12.194  66.409  1.00  0.00     0.652 C  
BRANCH  17  18
HETATM   18  C   UNL     1      -6.122  11.014  65.934  1.00  0.00    -0.057 C  
BRANCH  18  19
HETATM   19  C   UNL     1      -6.793   9.687  66.249  1.00  0.00    -0.091 A  
HETATM   20  C   UNL     1      -6.207   8.743  67.110  1.00  0.00    -0.059 A  
HETATM   21  C   UNL     1      -6.809   7.506  67.338  1.00  0.00    -0.071 A  
HETATM   22  C   UNL     1      -8.026   7.216  66.732  1.00  0.00    -0.108 A  
HETATM   23  C   UNL     1      -8.034   9.386  65.669  1.00  0.00    -0.103 A  
HETATM   24  C   UNL     1      -8.643   8.149  65.898  1.00  0.00    -0.171 A  
BRANCH  22  25
HETATM   25  S   UNL     1      -8.757   5.622  66.993  1.00  0.00    -0.108 S  
HETATM   26  O   UNL     1      -7.790   4.592  66.679  1.00  0.00    -0.097 OA 
HETATM   27  O   UNL     1      -9.404   5.651  68.289  1.00  0.00    -0.110 OA 
BRANCH  25  28
HETATM   28  N   UNL     1      -9.998   5.586  65.890  1.00  0.00    -0.370 N  
HETATM   29  H   UNL     1     -10.503   6.454  65.714  1.00  0.00     0.000 HD 
BRANCH  28  30
HETATM   30  C   UNL     1     -10.391   4.460  65.194  1.00  0.00    -0.173 C  
HETATM   31  O   UNL     1     -11.554   4.117  65.051  1.00  0.00     0.128 OA 
BRANCH  30  32
HETATM   32  N   UNL     1      -9.330   3.771  64.692  1.00  0.00    -0.143 N  
HETATM   33  H   UNL     1      -8.733   3.243  65.327  1.00  0.00     0.000 HD 
BRANCH  32  34
HETATM   34  C   UNL     1      -9.028   3.772  63.265  1.00  0.00    -0.103 C  
HETATM   35  C   UNL     1      -8.319   5.066  62.844  1.00  0.00    -0.110 C  
HETATM   36  C   UNL     1      -6.926   5.174  63.461  1.00  0.00    -0.046 C  
HETATM   37  C   UNL     1      -6.070   3.945  63.167  1.00  0.00    -0.017 C  
HETATM   38  C   UNL     1      -6.773   2.629  63.497  1.00  0.00    -0.031 C  
HETATM   39  C   UNL     1      -8.175   2.557  62.892  1.00  0.00    -0.073 C  
ENDBRANCH  32  34
ENDBRANCH  30  32
ENDBRANCH  28  30
ENDBRANCH  25  28
ENDBRANCH  22  25
ENDBRANCH  18  19
ENDBRANCH  17  18
ENDBRANCH  14  17
ENDBRANCH   2   3
TORSDOF 9
ENDMDL
MODEL      299
REMARK 921   NORMALIZED FREE ENERGY PREDICTED BY IDOCK:    3.34 KCAL/MOL
REMARK 922        TOTAL FREE ENERGY PREDICTED BY IDOCK:    2.95 KCAL/MOL
REMARK 923 INTER-LIGAND FREE ENERGY PREDICTED BY IDOCK:   -4.66 KCAL/MOL
REMARK 924 INTRA-LIGAND FREE ENERGY PREDICTED BY IDOCK:    7.61 KCAL/MOL
REMARK 927      BINDING AFFINITY PREDICTED BY RF-SCORE:    0.00 PKD
ROOT
HETATM    1  C   UNL     1     -14.410  15.163  71.919  1.00  0.00    -0.596 C  
HETATM    2  O   UNL     1     -13.120  14.629  72.205  1.00  0.00    -0.311 OA 
ENDROOT
BRANCH   2   3
HETATM    3  C   UNL     1     -12.168  14.861  71.252  1.00  0.00    -0.325 A  
HETATM    4  C   UNL     1     -12.329  14.623  69.892  1.00  0.00    -0.341 A  
HETATM    5  C   UNL     1     -11.298  14.942  68.998  1.00  0.00    -0.310 A  
HETATM    6  C   UNL     1     -10.070  15.452  69.452  1.00  0.00    -0.269 A  
HETATM    7  C   UNL     1      -9.938  15.723  70.822  1.00  0.00     0.919 A  
HETATM    8  C   UNL     1      -8.954  15.754  68.458  1.00  0.00    -0.194 C  
HETATM    9  C   UNL     1      -9.261  15.164  67.074  1.00  0.00    -0.223 C  
HETATM   10  C   UNL     1      -8.862  17.280  68.234  1.00  0.00    -0.258 C  
HETATM   11  C   UNL     1      -7.590  15.229  68.939  1.00  0.00    -0.152 C  
HETATM   12  C   UNL     1     -10.985  15.443  71.707  1.00  0.00    -0.095 A  
HETATM   13  O   UNL     1      -8.399  14.742  66.306  1.00  0.00     0.159 OA 
HETATM   14  N   UNL     1     -10.587  15.307  66.710  1.00  0.00    -0.299 N  
HETATM   15  O   UNL     1     -12.691  14.492  67.154  1.00  0.00     0.169 OA 
HETATM   16  C   UNL     1     -11.595  14.877  67.545  1.00  0.00    -0.339 C  
BRANCH  14  17
HETATM   17  C   UNL     1     -10.896  15.683  65.349  1.00  0.00    -0.381 C  
BRANCH  17  18
HETATM   18  C   UNL     1     -11.110  14.550  64.346  1.00  0.00    -0.176 C  
BRANCH  18  19
HETATM   19  C   UNL     1     -10.760  13.200  64.951  1.00  0.00    -0.362 A  
HETATM   20  C   UNL     1      -9.443  12.864  65.308  1.00  0.00     0.243 A  
HETATM   21  C   UNL     1      -9.132  11.599  65.804  1.00  0.00    -0.128 A  
HETATM   22  C   UNL     1     -10.148  10.666  65.981  1.00  0.00    -0.250 A  
HETATM   23  C   UNL     1     -11.774  12.255  65.163  1.00  0.00    -0.414 A  
HETATM   24  C   UNL     1     -11.468  10.986  65.664  1.00  0.00     0.419 A  
BRANCH  22  25
HETATM   25  S   UNL     1      -9.733   9.046  66.568  1.00  0.00    -0.265 S  
HETATM   26  O   UNL     1     -10.616   8.688  67.658  1.00  0.00    -0.248 OA 
HETATM   27  O   UNL     1      -9.613   8.184  65.410  1.00  0.00     0.288 OA 
BRANCH  25  28
HETATM   28  N   UNL     1      -8.184   9.230  67.135  1.00  0.00    -0.116 N  
HETATM   29  H   UNL     1      -7.479   9.581  66.486  1.00  0.00     0.000 HD 
BRANCH  28  30
HETATM   30  C   UNL     1      -7.784   8.940  68.424  1.00  0.00    -0.099 C  
HETATM   31  O   UNL     1      -6.696   8.466  68.712  1.00  0.00    -0.056 OA 
BRANCH  30  32
HETATM   32  N   UNL     1      -8.747   9.237  69.338  1.00  0.00    -0.140 N  
HETATM   33  H   UNL     1      -9.575   9.753  69.040  1.00  0.00     0.000 HD 
BRANCH  32  34
HETATM   34  C   UNL     1      -8.624   8.834  70.735  1.00  0.00    -0.187 C  
HETATM   35  C   UNL     1      -8.854   7.328  70.905  1.00  0.00    -0.149 C  
HETATM   36  C   UNL     1      -7.749   6.508  70.242  1.00  0.00    -0.098 C  
HETATM   37  C   UNL     1      -6.360   6.921  70.723  1.00  0.00    -0.040 C  
HETATM   38  C   UNL     1      -6.120   8.428  70.646  1.00  0.00    -0.032 C  
HETATM   39  C   UNL     1      -7.252   9.226  71.291  1.00  0.00    -0.007 C  
ENDBRANCH  32  34
ENDBRANCH  30  32
ENDBRANCH  28  30
ENDBRANCH  25  28
ENDBRANCH  22  25
ENDBRANCH  18  19
ENDBRANCH  17  18
ENDBRANCH  14  17
ENDBRANCH   2   3
TORSDOF 9
ENDMDL
MODEL      300
REMARK 921   NORMALIZED FREE ENERGY PREDICTED BY IDOCK:    3.40 KCAL/MOL
REMARK 922        TOTAL FREE ENERGY PREDICTED BY IDOCK:    3.04 KCAL/MOL
REMARK 923 INTER-LIGAND FREE ENERGY PREDICTED BY IDOCK:   -2.02 KCAL/MOL
REMARK 924 INTRA-LIGAND FREE ENERGY PREDICTED BY IDOCK:    5.06 KCAL/MOL
REMARK 927      BINDING AFFINITY PREDICTED BY RF-SCORE:    0.00 PKD
ROOT
HETATM    1  C   UNL     1     -12.452  15.344  67.035  1.00  0.00     1.272 C  
HETATM    2  O   UNL     1     -12.894  14.035  66.685  1.00  0.00    -0.112 OA 
ENDROOT
BRANCH   2   3
HETATM    3  C   UNL     1     -11.982  13.269  66.015  1.00  0.00    -0.423 A  
HETATM    4  C   UNL     1     -11.116  12.360  66.612  1.00  0.00    -0.336 A  
HETATM    5  C   UNL     1     -10.251  11.593  65.820  1.00  0.00    -0.281 A  
HETATM    6  C   UNL     1     -10.198  11.758  64.426  1.00  0.00    -0.332 A  
HETATM    7  C   UNL     1     -11.106  12.649  63.836  1.00  0.00    -0.476 A  
HETATM    8  C   UNL     1      -9.221  10.934  63.595  1.00  0.00    -0.242 C  
HETATM    9  C   UNL     1      -8.197  10.213  64.486  1.00  0.00    -0.162 C  
HETATM   10  C   UNL     1      -9.985   9.807  62.866  1.00  0.00     0.985 C  
HETATM   11  C   UNL     1      -8.472  11.792  62.560  1.00  0.00     0.751 C  
HETATM   12  C   UNL     1     -11.998  13.384  64.625  1.00  0.00    -0.441 A  
HETATM   13  O   UNL     1      -7.036   9.992  64.148  1.00  0.00    -0.126 OA 
HETATM   14  N   UNL     1      -8.759   9.692  65.636  1.00  0.00    -0.134 N  
HETATM   15  O   UNL     1      -9.607  10.306  67.684  1.00  0.00    -0.150 OA 
HETATM   16  C   UNL     1      -9.507  10.488  66.475  1.00  0.00    -0.166 C  
BRANCH  14  17
HETATM   17  C   UNL     1      -8.349   8.376  66.073  1.00  0.00    -0.126 C  
BRANCH  17  18
HETATM   18  C   UNL     1      -8.324   8.120  67.580  1.00  0.00    -0.127 C  
BRANCH  18  19
HETATM   19  C   UNL     1      -7.744   9.306  68.335  1.00  0.00    -0.090 A  
HETATM   20  C   UNL     1      -8.505  10.044  69.258  1.00  0.00    -0.165 A  
HETATM   21  C   UNL     1      -7.974  11.165  69.895  1.00  0.00     0.819 A  
HETATM   22  C   UNL     1      -6.659  11.538  69.638  1.00  0.00    -0.112 A  
HETATM   23  C   UNL     1      -6.412   9.682  68.111  1.00  0.00    -0.057 A  
HETATM   24  C   UNL     1      -5.874  10.802  68.750  1.00  0.00    -0.040 A  
BRANCH  22  25
HETATM   25  S   UNL     1      -6.012  12.992  70.418  1.00  0.00    -0.050 S  
HETATM   26  O   UNL     1      -5.513  12.652  71.734  1.00  0.00    -0.395 OA 
HETATM   27  O   UNL     1      -5.152  13.651  69.456  1.00  0.00    -0.083 OA 
BRANCH  25  28
HETATM   28  N   UNL     1      -7.341  13.976  70.556  1.00  0.00     0.398 N  
HETATM   29  H   UNL     1      -7.883  13.926  71.419  1.00  0.00     0.000 HD 
BRANCH  28  30
HETATM   30  C   UNL     1      -7.764  14.859  69.582  1.00  0.00    -0.072 C  
HETATM   31  O   UNL     1      -8.762  14.696  68.898  1.00  0.00    -0.177 OA 
BRANCH  30  32
HETATM   32  N   UNL     1      -6.934  15.932  69.468  1.00  0.00    -0.201 N  
HETATM   33  H   UNL     1      -5.927  15.793  69.548  1.00  0.00     0.000 HD 
BRANCH  32  34
HETATM   34  C   UNL     1      -7.452  17.275  69.235  1.00  0.00    -0.039 C  
HETATM   35  C   UNL     1      -6.316  18.292  69.066  1.00  0.00    -0.245 C  
HETATM   36  C   UNL     1      -5.515  18.037  67.791  1.00  0.00    -0.149 C  
HETATM   37  C   UNL     1      -6.407  17.982  66.553  1.00  0.00    -0.239 C  
HETATM   38  C   UNL     1      -7.599  17.040  66.712  1.00  0.00    -0.273 C  
HETATM   39  C   UNL     1      -8.368  17.296  68.008  1.00  0.00    -0.228 C  
ENDBRANCH  32  34
ENDBRANCH  30  32
ENDBRANCH  28  30
ENDBRANCH  25  28
ENDBRANCH  22  25
ENDBRANCH  18  19
ENDBRANCH  17  18
ENDBRANCH  14  17
ENDBRANCH   2   3
TORSDOF 9
ENDMDL
MODEL      301
REMARK 921   NORMALIZED FREE ENERGY PREDICTED BY IDOCK:    3.69 KCAL/MOL
REMARK 922        TOTAL FREE ENERGY PREDICTED BY IDOCK:    3.49 KCAL/MOL
REMARK 923 INTER-LIGAND FREE ENERGY PREDICTED BY IDOCK:   -3.69 KCAL/MOL
REMARK 924 INTRA-LIGAND FREE ENERGY PREDICTED BY IDOCK:    7.17 KCAL/MOL
REMARK 927      BINDING AFFINITY PREDICTED BY RF-SCORE:    0.00 PKD
ROOT
HETATM    1  C   UNL     1     -10.334  11.163  66.070  1.00  0.00    -0.254 C  
HETATM    2  O   UNL     1     -10.343  10.010  66.908  1.00  0.00    -0.225 OA 
ENDROOT
BRANCH   2   3
HETATM    3  C   UNL     1      -9.704   8.914  66.401  1.00  0.00    -0.262 A  
HETATM    4  C   UNL     1      -9.516   7.717  67.082  1.00  0.00    -0.198 A  
HETATM    5  C   UNL     1      -8.884   6.640  66.446  1.00  0.00    -0.151 A  
HETATM    6  C   UNL     1      -8.382   6.757  65.140  1.00  0.00    -0.084 A  
HETATM    7  C   UNL     1      -8.615   7.958  64.452  1.00  0.00     0.207 A  
HETATM    8  C   UNL     1      -7.666   5.580  64.488  1.00  0.00    -0.090 C  
HETATM    9  C   UNL     1      -7.344   4.482  65.513  1.00  0.00    -0.080 C  
HETATM   10  C   UNL     1      -8.606   4.909  63.462  1.00  0.00    -0.128 C  
HETATM   11  C   UNL     1      -6.367   6.008  63.782  1.00  0.00    -0.029 C  
HETATM   12  C   UNL     1      -9.283   9.017  65.075  1.00  0.00    -0.116 A  
HETATM   13  O   UNL     1      -6.348   3.764  65.453  1.00  0.00    -0.030 OA 
HETATM   14  N   UNL     1      -8.369   4.272  66.416  1.00  0.00    -0.105 N  
HETATM   15  O   UNL     1      -9.401   5.211  68.245  1.00  0.00    -0.113 OA 
HETATM   16  C   UNL     1      -8.902   5.323  67.130  1.00  0.00    -0.109 C  
BRANCH  14  17
HETATM   17  C   UNL     1      -8.704   2.914  66.781  1.00  0.00    -0.128 C  
BRANCH  17  18
HETATM   18  C   UNL     1      -8.229   2.425  68.150  1.00  0.00    -0.072 C  
BRANCH  18  19
HETATM   19  C   UNL     1      -8.751   3.313  69.268  1.00  0.00    -0.135 A  
HETATM   20  C   UNL     1      -8.308   4.637  69.435  1.00  0.00    -0.080 A  
HETATM   21  C   UNL     1      -8.752   5.415  70.503  1.00  0.00    -0.130 A  
HETATM   22  C   UNL     1      -9.675   4.884  71.397  1.00  0.00    -0.175 A  
HETATM   23  C   UNL     1      -9.701   2.806  70.165  1.00  0.00    -0.009 A  
HETATM   24  C   UNL     1     -10.153   3.583  71.235  1.00  0.00     0.006 A  
BRANCH  22  25
HETATM   25  S   UNL     1     -10.195   5.867  72.778  1.00  0.00    -0.192 S  
HETATM   26  O   UNL     1     -11.289   6.725  72.373  1.00  0.00    -0.257 OA 
HETATM   27  O   UNL     1     -10.344   4.976  73.911  1.00  0.00    -0.200 OA 
BRANCH  25  28
HETATM   28  N   UNL     1      -8.856   6.785  73.120  1.00  0.00    -0.123 N  
HETATM   29  H   UNL     1      -8.898   7.784  72.915  1.00  0.00     0.000 HD 
BRANCH  28  30
HETATM   30  C   UNL     1      -7.687   6.289  73.664  1.00  0.00    -0.093 C  
HETATM   31  O   UNL     1      -7.007   6.887  74.482  1.00  0.00    -0.094 OA 
BRANCH  30  32
HETATM   32  N   UNL     1      -7.378   5.057  73.176  1.00  0.00    -0.086 N  
HETATM   33  H   UNL     1      -7.637   4.821  72.218  1.00  0.00     0.000 HD 
BRANCH  32  34
HETATM   34  C   UNL     1      -6.684   4.066  73.991  1.00  0.00    -0.057 C  
HETATM   35  C   UNL     1      -7.481   2.759  74.082  1.00  0.00    -0.043 C  
HETATM   36  C   UNL     1      -7.565   2.052  72.731  1.00  0.00    -0.040 C  
HETATM   37  C   UNL     1      -6.187   1.826  72.114  1.00  0.00    -0.013 C  
HETATM   38  C   UNL     1      -5.329   3.090  72.079  1.00  0.00     0.000 C  
HETATM   39  C   UNL     1      -5.284   3.794  73.435  1.00  0.00     0.000 C  
ENDBRANCH  32  34
ENDBRANCH  30  32
ENDBRANCH  28  30
ENDBRANCH  25  28
ENDBRANCH  22  25
ENDBRANCH  18  19
ENDBRANCH  17  18
ENDBRANCH  14  17
ENDBRANCH   2   3
TORSDOF 9
ENDMDL
MODEL      302
REMARK 921   NORMALIZED FREE ENERGY PREDICTED BY IDOCK:    3.89 KCAL/MOL
REMARK 922        TOTAL FREE ENERGY PREDICTED BY IDOCK:    3.79 KCAL/MOL
REMARK 923 INTER-LIGAND FREE ENERGY PREDICTED BY IDOCK:    3.80 KCAL/MOL
REMARK 924 INTRA-LIGAND FREE ENERGY PREDICTED BY IDOCK:   -0.01 KCAL/MOL
REMARK 927      BINDING AFFINITY PREDICTED BY RF-SCORE:    0.00 PKD
ROOT
HETATM    1  C   UNL     1      -6.193  17.370  72.317  1.00  0.00     3.386 C  
HETATM    2  O   UNL     1      -5.149  16.444  72.025  1.00  0.00    -0.236 OA 
ENDROOT
BRANCH   2   3
HETATM    3  C   UNL     1      -5.555  15.254  71.490  1.00  0.00     0.213 A  
HETATM    4  C   UNL     1      -6.154  15.106  70.244  1.00  0.00    -0.127 A  
HETATM    5  C   UNL     1      -6.489  13.828  69.776  1.00  0.00    -0.079 A  
HETATM    6  C   UNL     1      -6.282  12.684  70.564  1.00  0.00     0.211 A  
HETATM    7  C   UNL     1      -5.641  12.847  71.801  1.00  0.00     0.260 A  
HETATM    8  C   UNL     1      -6.691  11.312  70.042  1.00  0.00    -0.013 C  
HETATM    9  C   UNL     1      -7.565  11.428  68.784  1.00  0.00    -0.132 C  
HETATM   10  C   UNL     1      -5.434  10.536  69.589  1.00  0.00    -0.038 C  
HETATM   11  C   UNL     1      -7.441  10.486  71.103  1.00  0.00     2.217 C  
HETATM   12  C   UNL     1      -5.269  14.119  72.249  1.00  0.00    -0.223 A  
HETATM   13  O   UNL     1      -8.465  10.639  68.504  1.00  0.00    -0.121 OA 
HETATM   14  N   UNL     1      -7.129  12.412  67.916  1.00  0.00    -0.097 N  
HETATM   15  O   UNL     1      -7.038  14.695  67.656  1.00  0.00    -0.156 OA 
HETATM   16  C   UNL     1      -6.921  13.699  68.361  1.00  0.00    -0.104 C  
BRANCH  14  17
HETATM   17  C   UNL     1      -7.134  12.136  66.497  1.00  0.00     0.404 C  
BRANCH  17  18
HETATM   18  C   UNL     1      -6.291  10.956  66.015  1.00  0.00    -0.102 C  
BRANCH  18  19
HETATM   19  C   UNL     1      -6.912   9.628  66.419  1.00  0.00    -0.088 A  
HETATM   20  C   UNL     1      -6.251   8.727  67.271  1.00  0.00    -0.056 A  
HETATM   21  C   UNL     1      -6.810   7.488  67.581  1.00  0.00    -0.071 A  
HETATM   22  C   UNL     1      -8.058   7.153  67.066  1.00  0.00    -0.117 A  
HETATM   23  C   UNL     1      -8.181   9.283  65.932  1.00  0.00    -0.116 A  
HETATM   24  C   UNL     1      -8.747   8.044  66.243  1.00  0.00    -0.174 A  
BRANCH  22  25
HETATM   25  S   UNL     1      -8.736   5.556  67.429  1.00  0.00    -0.105 S  
HETATM   26  O   UNL     1      -9.156   5.515  68.814  1.00  0.00    -0.116 OA 
HETATM   27  O   UNL     1      -9.670   5.233  66.370  1.00  0.00    -0.148 OA 
BRANCH  25  28
HETATM   28  N   UNL     1      -7.449   4.533  67.200  1.00  0.00    -0.080 N  
HETATM   29  H   UNL     1      -6.797   4.750  66.446  1.00  0.00     0.000 HD 
BRANCH  28  30
HETATM   30  C   UNL     1      -7.200   3.408  67.961  1.00  0.00    -0.051 C  
HETATM   31  O   UNL     1      -6.894   2.323  67.496  1.00  0.00    -0.039 OA 
BRANCH  30  32
HETATM   32  N   UNL     1      -7.341   3.650  69.293  1.00  0.00    -0.049 N  
HETATM   33  H   UNL     1      -8.276   3.778  69.680  1.00  0.00     0.000 HD 
BRANCH  32  34
HETATM   34  C   UNL     1      -6.186   3.729  70.181  1.00  0.00    -0.027 C  
HETATM   35  C   UNL     1      -5.483   5.088  70.065  1.00  0.00    -0.011 C  
HETATM   36  C   UNL     1      -6.360   6.224  70.587  1.00  0.00    -0.040 C  
HETATM   37  C   UNL     1      -6.849   5.965  72.010  1.00  0.00    -0.076 C  
HETATM   38  C   UNL     1      -7.484   4.586  72.187  1.00  0.00    -0.080 C  
HETATM   39  C   UNL     1      -6.600   3.470  71.631  1.00  0.00    -0.019 C  
ENDBRANCH  32  34
ENDBRANCH  30  32
ENDBRANCH  28  30
ENDBRANCH  25  28
ENDBRANCH  22  25
ENDBRANCH  18  19
ENDBRANCH  17  18
ENDBRANCH  14  17
ENDBRANCH   2   3
TORSDOF 9
ENDMDL
MODEL      303
REMARK 921   NORMALIZED FREE ENERGY PREDICTED BY IDOCK:    4.13 KCAL/MOL
REMARK 922        TOTAL FREE ENERGY PREDICTED BY IDOCK:    4.15 KCAL/MOL
REMARK 923 INTER-LIGAND FREE ENERGY PREDICTED BY IDOCK:    0.83 KCAL/MOL
REMARK 924 INTRA-LIGAND FREE ENERGY PREDICTED BY IDOCK:    3.31 KCAL/MOL
REMARK 927      BINDING AFFINITY PREDICTED BY RF-SCORE:    0.00 PKD
ROOT
HETATM    1  C   UNL     1     -13.169  12.112  66.135  1.00  0.00     4.197 C  
HETATM    2  O   UNL     1     -11.758  12.194  65.951  1.00  0.00    -0.411 OA 
ENDROOT
BRANCH   2   3
HETATM    3  C   UNL     1     -11.211  13.429  66.167  1.00  0.00    -0.295 A  
HETATM    4  C   UNL     1     -10.854  13.934  67.411  1.00  0.00    -0.291 A  
HETATM    5  C   UNL     1     -10.258  15.198  67.510  1.00  0.00    -0.238 A  
HETATM    6  C   UNL     1     -10.058  16.001  66.375  1.00  0.00    -0.314 A  
HETATM    7  C   UNL     1     -10.387  15.460  65.122  1.00  0.00    -0.405 A  
HETATM    8  C   UNL     1      -9.441  17.387  66.518  1.00  0.00    -0.288 C  
HETATM    9  C   UNL     1      -9.385  17.827  67.989  1.00  0.00    -0.276 C  
HETATM   10  C   UNL     1      -7.967  17.347  66.054  1.00  0.00    -0.200 C  
HETATM   11  C   UNL     1     -10.201  18.449  65.703  1.00  0.00     0.058 C  
HETATM   12  C   UNL     1     -10.943  14.181  65.023  1.00  0.00    -0.391 A  
HETATM   13  O   UNL     1      -9.503  18.993  68.357  1.00  0.00    -0.326 OA 
HETATM   14  N   UNL     1      -9.022  16.801  68.842  1.00  0.00    -0.250 N  
HETATM   15  O   UNL     1      -9.817  14.867  69.799  1.00  0.00    -0.075 OA 
HETATM   16  C   UNL     1      -9.697  15.601  68.824  1.00  0.00    -0.212 C  
BRANCH  14  17
HETATM   17  C   UNL     1      -8.098  17.087  69.916  1.00  0.00     1.389 C  
BRANCH  17  18
HETATM   18  C   UNL     1      -6.669  16.568  69.761  1.00  0.00    -0.024 C  
BRANCH  18  19
HETATM   19  C   UNL     1      -6.639  15.233  69.035  1.00  0.00    -0.118 A  
HETATM   20  C   UNL     1      -7.219  14.075  69.582  1.00  0.00     0.169 A  
HETATM   21  C   UNL     1      -7.128  12.847  68.929  1.00  0.00    -0.063 A  
HETATM   22  C   UNL     1      -6.484  12.774  67.699  1.00  0.00    -0.152 A  
HETATM   23  C   UNL     1      -6.018  15.143  67.782  1.00  0.00    -0.150 A  
HETATM   24  C   UNL     1      -5.927  13.915  67.120  1.00  0.00     0.777 A  
BRANCH  22  25
HETATM   25  S   UNL     1      -6.333  11.198  66.901  1.00  0.00    -0.128 S  
HETATM   26  O   UNL     1      -7.652  10.643  66.678  1.00  0.00    -0.116 OA 
HETATM   27  O   UNL     1      -5.410  11.359  65.796  1.00  0.00    -0.267 OA 
BRANCH  25  28
HETATM   28  N   UNL     1      -5.517  10.280  68.018  1.00  0.00    -0.038 N  
HETATM   29  H   UNL     1      -4.498  10.328  68.020  1.00  0.00     0.000 HD 
BRANCH  28  30
HETATM   30  C   UNL     1      -6.124   9.456  68.945  1.00  0.00    -0.043 C  
HETATM   31  O   UNL     1      -6.132   9.669  70.147  1.00  0.00    -0.043 OA 
BRANCH  30  32
HETATM   32  N   UNL     1      -6.708   8.373  68.363  1.00  0.00    -0.063 N  
HETATM   33  H   UNL     1      -6.343   8.027  67.476  1.00  0.00     0.000 HD 
BRANCH  32  34
HETATM   34  C   UNL     1      -7.843   7.695  68.980  1.00  0.00    -0.119 C  
HETATM   35  C   UNL     1      -7.427   6.351  69.591  1.00  0.00    -0.085 C  
HETATM   36  C   UNL     1      -6.487   6.537  70.780  1.00  0.00    -0.052 C  
HETATM   37  C   UNL     1      -7.072   7.475  71.834  1.00  0.00    -0.063 C  
HETATM   38  C   UNL     1      -7.573   8.795  71.252  1.00  0.00    -0.134 C  
HETATM   39  C   UNL     1      -8.489   8.584  70.046  1.00  0.00    -0.125 C  
ENDBRANCH  32  34
ENDBRANCH  30  32
ENDBRANCH  28  30
ENDBRANCH  25  28
ENDBRANCH  22  25
ENDBRANCH  18  19
ENDBRANCH  17  18
ENDBRANCH  14  17
ENDBRANCH   2   3
TORSDOF 9
ENDMDL
MODEL      304
REMARK 921   NORMALIZED FREE ENERGY PREDICTED BY IDOCK:    4.53 KCAL/MOL
REMARK 922        TOTAL FREE ENERGY PREDICTED BY IDOCK:    4.76 KCAL/MOL
REMARK 923 INTER-LIGAND FREE ENERGY PREDICTED BY IDOCK:    1.44 KCAL/MOL
REMARK 924 INTRA-LIGAND FREE ENERGY PREDICTED BY IDOCK:    3.32 KCAL/MOL
REMARK 927      BINDING AFFINITY PREDICTED BY RF-SCORE:    0.00 PKD
ROOT
HETATM    1  C   UNL     1      -6.330  17.430  72.404  1.00  0.00     4.167 C  
HETATM    2  O   UNL     1      -5.378  16.440  72.025  1.00  0.00     0.041 OA 
ENDROOT
BRANCH   2   3
HETATM    3  C   UNL     1      -5.882  15.384  71.318  1.00  0.00     0.354 A  
HETATM    4  C   UNL     1      -7.028  15.427  70.534  1.00  0.00     0.497 A  
HETATM    5  C   UNL     1      -7.428  14.293  69.815  1.00  0.00     0.253 A  
HETATM    6  C   UNL     1      -6.722  13.083  69.909  1.00  0.00     0.233 A  
HETATM    7  C   UNL     1      -5.545  13.067  70.673  1.00  0.00    -0.178 A  
HETATM    8  C   UNL     1      -7.203  11.855  69.143  1.00  0.00    -0.020 C  
HETATM    9  C   UNL     1      -8.615  12.066  68.577  1.00  0.00    -0.093 C  
HETATM   10  C   UNL     1      -6.302  11.632  67.907  1.00  0.00    -0.054 C  
HETATM   11  C   UNL     1      -7.193  10.586  70.014  1.00  0.00    -0.105 C  
HETATM   12  C   UNL     1      -5.125  14.213  71.356  1.00  0.00    -0.147 A  
HETATM   13  O   UNL     1      -9.442  11.165  68.454  1.00  0.00    -0.175 OA 
HETATM   14  N   UNL     1      -8.805  13.336  68.064  1.00  0.00    -0.183 N  
HETATM   15  O   UNL     1      -9.096  15.527  68.701  1.00  0.00    -0.183 OA 
HETATM   16  C   UNL     1      -8.525  14.449  68.826  1.00  0.00    -0.120 C  
BRANCH  14  17
HETATM   17  C   UNL     1      -9.529  13.481  66.822  1.00  0.00    -0.269 C  
BRANCH  17  18
HETATM   18  C   UNL     1      -9.049  12.646  65.635  1.00  0.00     0.358 C  
BRANCH  18  19
HETATM   19  C   UNL     1      -9.158  11.157  65.924  1.00  0.00    -0.218 A  
HETATM   20  C   UNL     1      -8.114  10.264  65.628  1.00  0.00    -0.155 A  
HETATM   21  C   UNL     1      -8.256   8.894  65.844  1.00  0.00    -0.119 A  
HETATM   22  C   UNL     1      -9.437   8.408  66.394  1.00  0.00    -0.227 A  
HETATM   23  C   UNL     1     -10.330  10.651  66.503  1.00  0.00    -0.299 A  
HETATM   24  C   UNL     1     -10.476   9.279  66.725  1.00  0.00    -0.263 A  
BRANCH  22  25
HETATM   25  S   UNL     1      -9.624   6.660  66.619  1.00  0.00    -0.143 S  
HETATM   26  O   UNL     1      -8.757   6.217  67.691  1.00  0.00    -0.114 OA 
HETATM   27  O   UNL     1     -11.044   6.379  66.662  1.00  0.00    -0.292 OA 
BRANCH  25  28
HETATM   28  N   UNL     1      -9.101   6.030  65.175  1.00  0.00    -0.363 N  
HETATM   29  H   UNL     1      -9.274   6.573  64.328  1.00  0.00     0.000 HD 
BRANCH  28  30
HETATM   30  C   UNL     1      -8.446   4.822  65.040  1.00  0.00    -0.137 C  
HETATM   31  O   UNL     1      -8.660   4.025  64.142  1.00  0.00    -0.099 OA 
BRANCH  30  32
HETATM   32  N   UNL     1      -7.536   4.620  66.032  1.00  0.00    -0.081 N  
HETATM   33  H   UNL     1      -7.226   5.414  66.594  1.00  0.00     0.000 HD 
BRANCH  32  34
HETATM   34  C   UNL     1      -6.994   3.295  66.312  1.00  0.00    -0.057 C  
HETATM   35  C   UNL     1      -5.994   3.333  67.474  1.00  0.00    -0.027 C  
HETATM   36  C   UNL     1      -6.676   3.680  68.796  1.00  0.00    -0.045 C  
HETATM   37  C   UNL     1      -7.850   2.753  69.098  1.00  0.00    -0.052 C  
HETATM   38  C   UNL     1      -8.829   2.624  67.932  1.00  0.00    -0.161 C  
HETATM   39  C   UNL     1      -8.121   2.304  66.616  1.00  0.00    -0.082 C  
ENDBRANCH  32  34
ENDBRANCH  30  32
ENDBRANCH  28  30
ENDBRANCH  25  28
ENDBRANCH  22  25
ENDBRANCH  18  19
ENDBRANCH  17  18
ENDBRANCH  14  17
ENDBRANCH   2   3
TORSDOF 9
ENDMDL
MODEL      305
REMARK 921   NORMALIZED FREE ENERGY PREDICTED BY IDOCK:    6.42 KCAL/MOL
REMARK 922        TOTAL FREE ENERGY PREDICTED BY IDOCK:    7.65 KCAL/MOL
REMARK 923 INTER-LIGAND FREE ENERGY PREDICTED BY IDOCK:    7.96 KCAL/MOL
REMARK 924 INTRA-LIGAND FREE ENERGY PREDICTED BY IDOCK:   -0.30 KCAL/MOL
REMARK 927      BINDING AFFINITY PREDICTED BY RF-SCORE:    0.00 PKD
ROOT
HETATM    1  C   UNL     1      -8.635  14.825  71.737  1.00  0.00     5.303 C  
HETATM    2  O   UNL     1      -9.853  14.435  71.109  1.00  0.00     2.270 OA 
ENDROOT
BRANCH   2   3
HETATM    3  C   UNL     1     -10.046  14.928  69.849  1.00  0.00     0.057 A  
HETATM    4  C   UNL     1     -10.621  14.222  68.799  1.00  0.00    -0.255 A  
HETATM    5  C   UNL     1     -10.812  14.845  67.558  1.00  0.00    -0.292 A  
HETATM    6  C   UNL     1     -10.382  16.162  67.328  1.00  0.00    -0.287 A  
HETATM    7  C   UNL     1      -9.840  16.873  68.410  1.00  0.00    -0.266 A  
HETATM    8  C   UNL     1     -10.570  16.800  65.956  1.00  0.00    -0.232 C  
HETATM    9  C   UNL     1     -10.968  15.755  64.903  1.00  0.00    -0.427 C  
HETATM   10  C   UNL     1     -11.753  17.793  66.006  1.00  0.00     2.606 C  
HETATM   11  C   UNL     1      -9.306  17.538  65.481  1.00  0.00     0.697 C  
HETATM   12  C   UNL     1      -9.690  16.263  69.659  1.00  0.00    -0.039 A  
HETATM   13  O   UNL     1     -10.635  15.817  63.721  1.00  0.00     0.994 OA 
HETATM   14  N   UNL     1     -11.877  14.829  65.381  1.00  0.00    -0.296 N  
HETATM   15  O   UNL     1     -12.051  13.004  66.770  1.00  0.00    -0.380 OA 
HETATM   16  C   UNL     1     -11.623  14.130  66.540  1.00  0.00    -0.375 C  
BRANCH  14  17
HETATM   17  C   UNL     1     -12.971  14.426  64.526  1.00  0.00     0.420 C  
BRANCH  17  18
HETATM   18  C   UNL     1     -12.651  13.433  63.409  1.00  0.00    -0.069 C  
BRANCH  18  19
HETATM   19  C   UNL     1     -11.606  12.420  63.849  1.00  0.00    -0.518 A  
HETATM   20  C   UNL     1     -11.954  11.240  64.528  1.00  0.00     0.462 A  
HETATM   21  C   UNL     1     -10.977  10.353  64.978  1.00  0.00     0.609 A  
HETATM   22  C   UNL     1      -9.637  10.624  64.720  1.00  0.00    -0.280 A  
HETATM   23  C   UNL     1     -10.252  12.661  63.575  1.00  0.00    -0.072 A  
HETATM   24  C   UNL     1      -9.269  11.774  64.020  1.00  0.00     0.216 A  
BRANCH  22  25
HETATM   25  S   UNL     1      -8.402   9.513  65.338  1.00  0.00    -0.147 S  
HETATM   26  O   UNL     1      -9.008   8.595  66.279  1.00  0.00    -0.151 OA 
HETATM   27  O   UNL     1      -7.662   9.013  64.197  1.00  0.00    -0.113 OA 
BRANCH  25  28
HETATM   28  N   UNL     1      -7.347  10.519  66.131  1.00  0.00    -0.131 N  
HETATM   29  H   UNL     1      -7.068  11.382  65.663  1.00  0.00     0.000 HD 
BRANCH  28  30
HETATM   30  C   UNL     1      -6.821  10.269  67.384  1.00  0.00    -0.077 C  
HETATM   31  O   UNL     1      -5.702  10.606  67.735  1.00  0.00    -0.043 OA 
BRANCH  30  32
HETATM   32  N   UNL     1      -7.694   9.594  68.180  1.00  0.00    -0.086 N  
HETATM   33  H   UNL     1      -7.974   8.647  67.924  1.00  0.00     0.000 HD 
BRANCH  32  34
HETATM   34  C   UNL     1      -8.240  10.194  69.393  1.00  0.00    -0.166 C  
HETATM   35  C   UNL     1      -9.760  10.373  69.294  1.00  0.00    -0.231 C  
HETATM   36  C   UNL     1     -10.485   9.029  69.254  1.00  0.00    -0.238 C  
HETATM   37  C   UNL     1     -10.101   8.133  70.429  1.00  0.00    -0.196 C  
HETATM   38  C   UNL     1      -8.590   7.995  70.611  1.00  0.00    -0.130 C  
HETATM   39  C   UNL     1      -7.884   9.351  70.620  1.00  0.00    -0.178 C  
ENDBRANCH  32  34
ENDBRANCH  30  32
ENDBRANCH  28  30
ENDBRANCH  25  28
ENDBRANCH  22  25
ENDBRANCH  18  19
ENDBRANCH  17  18
ENDBRANCH  14  17
ENDBRANCH   2   3
TORSDOF 9
ENDMDL
MODEL      306
REMARK 921   NORMALIZED FREE ENERGY PREDICTED BY IDOCK:    6.76 KCAL/MOL
REMARK 922        TOTAL FREE ENERGY PREDICTED BY IDOCK:    8.17 KCAL/MOL
REMARK 923 INTER-LIGAND FREE ENERGY PREDICTED BY IDOCK:   -2.80 KCAL/MOL
REMARK 924 INTRA-LIGAND FREE ENERGY PREDICTED BY IDOCK:   10.97 KCAL/MOL
REMARK 927      BINDING AFFINITY PREDICTED BY RF-SCORE:    0.00 PKD
ROOT
HETATM    1  C   UNL     1     -13.206  15.574  63.846  1.00  0.00     2.129 C  
HETATM    2  O   UNL     1     -13.457  15.073  65.156  1.00  0.00     0.267 OA 
ENDROOT
BRANCH   2   3
HETATM    3  C   UNL     1     -12.604  14.093  65.581  1.00  0.00    -0.470 A  
HETATM    4  C   UNL     1     -11.870  13.261  64.744  1.00  0.00    -0.411 A  
HETATM    5  C   UNL     1     -10.989  12.318  65.291  1.00  0.00    -0.347 A  
HETATM    6  C   UNL     1     -10.868  12.152  66.680  1.00  0.00    -0.307 A  
HETATM    7  C   UNL     1     -11.587  13.025  67.510  1.00  0.00    -0.405 A  
HETATM    8  C   UNL     1      -9.930  11.092  67.245  1.00  0.00    -0.210 C  
HETATM    9  C   UNL     1      -9.444  10.132  66.148  1.00  0.00    -0.188 C  
HETATM   10  C   UNL     1      -8.650  11.769  67.782  1.00  0.00    -0.151 C  
HETATM   11  C   UNL     1     -10.585  10.277  68.374  1.00  0.00    -0.247 C  
HETATM   12  C   UNL     1     -12.433  13.994  66.961  1.00  0.00    -0.126 A  
HETATM   13  O   UNL     1      -9.202   8.942  66.341  1.00  0.00    -0.161 OA 
HETATM   14  N   UNL     1      -9.147  10.777  64.962  1.00  0.00    -0.199 N  
HETATM   15  O   UNL     1     -10.134  11.806  63.157  1.00  0.00    -0.418 OA 
HETATM   16  C   UNL     1     -10.069  11.609  64.366  1.00  0.00    -0.279 C  
BRANCH  14  17
HETATM   17  C   UNL     1      -7.965  10.378  64.232  1.00  0.00    -0.080 C  
BRANCH  17  18
HETATM   18  C   UNL     1      -7.785   8.884  63.964  1.00  0.00    -0.128 C  
BRANCH  18  19
HETATM   19  C   UNL     1      -7.621   8.103  65.258  1.00  0.00    -0.095 A  
HETATM   20  C   UNL     1      -8.444   7.008  65.575  1.00  0.00    -0.120 A  
HETATM   21  C   UNL     1      -8.319   6.343  66.794  1.00  0.00    -0.111 A  
HETATM   22  C   UNL     1      -7.341   6.749  67.696  1.00  0.00    -0.096 A  
HETATM   23  C   UNL     1      -6.624   8.479  66.169  1.00  0.00    -0.057 A  
HETATM   24  C   UNL     1      -6.492   7.813  67.391  1.00  0.00    -0.056 A  
BRANCH  22  25
HETATM   25  S   UNL     1      -7.224   5.926  69.262  1.00  0.00    -0.076 S  
HETATM   26  O   UNL     1      -8.005   4.708  69.226  1.00  0.00    -0.069 OA 
HETATM   27  O   UNL     1      -5.822   5.886  69.625  1.00  0.00    -0.018 OA 
BRANCH  25  28
HETATM   28  N   UNL     1      -7.914   7.008  70.315  1.00  0.00    -0.115 N  
HETATM   29  H   UNL     1      -7.302   7.686  70.769  1.00  0.00     0.000 HD 
BRANCH  28  30
HETATM   30  C   UNL     1      -9.260   7.052  70.618  1.00  0.00    -0.158 C  
HETATM   31  O   UNL     1      -9.716   6.862  71.734  1.00  0.00    -0.161 OA 
BRANCH  30  32
HETATM   32  N   UNL     1     -10.022   7.327  69.524  1.00  0.00    -0.167 N  
HETATM   33  H   UNL     1      -9.570   7.653  68.670  1.00  0.00     0.000 HD 
BRANCH  32  34
HETATM   34  C   UNL     1     -11.472   7.166  69.545  1.00  0.00     0.056 C  
HETATM   35  C   UNL     1     -11.910   6.182  70.638  1.00  0.00    -0.038 C  
HETATM   36  C   UNL     1     -11.634   6.732  72.036  1.00  0.00    -0.327 C  
HETATM   37  C   UNL     1     -12.252   8.112  72.243  1.00  0.00    -0.397 C  
HETATM   38  C   UNL     1     -11.905   9.100  71.131  1.00  0.00    -0.374 C  
HETATM   39  C   UNL     1     -12.164   8.517  69.741  1.00  0.00     1.311 C  
ENDBRANCH  32  34
ENDBRANCH  30  32
ENDBRANCH  28  30
ENDBRANCH  25  28
ENDBRANCH  22  25
ENDBRANCH  18  19
ENDBRANCH  17  18
ENDBRANCH  14  17
ENDBRANCH   2   3
TORSDOF 9
ENDMDL
MODEL      307
REMARK 921   NORMALIZED FREE ENERGY PREDICTED BY IDOCK:    8.10 KCAL/MOL
REMARK 922        TOTAL FREE ENERGY PREDICTED BY IDOCK:   10.21 KCAL/MOL
REMARK 923 INTER-LIGAND FREE ENERGY PREDICTED BY IDOCK:   10.20 KCAL/MOL
REMARK 924 INTRA-LIGAND FREE ENERGY PREDICTED BY IDOCK:    0.01 KCAL/MOL
REMARK 927      BINDING AFFINITY PREDICTED BY RF-SCORE:    0.00 PKD
ROOT
HETATM    1  C   UNL     1      -5.935   7.205  70.029  1.00  0.00    -0.024 C  
HETATM    2  O   UNL     1      -6.934   7.447  69.042  1.00  0.00    -0.072 OA 
ENDROOT
BRANCH   2   3
HETATM    3  C   UNL     1      -8.220   7.466  69.504  1.00  0.00    -0.131 A  
HETATM    4  C   UNL     1      -8.644   8.131  70.648  1.00  0.00    -0.130 A  
HETATM    5  C   UNL     1      -9.999   8.121  71.003  1.00  0.00    -0.220 A  
HETATM    6  C   UNL     1     -10.945   7.403  70.253  1.00  0.00    -0.272 A  
HETATM    7  C   UNL     1     -10.508   6.770  69.080  1.00  0.00    -0.229 A  
HETATM    8  C   UNL     1     -12.406   7.380  70.686  1.00  0.00    -0.081 C  
HETATM    9  C   UNL     1     -12.581   7.947  72.103  1.00  0.00    -0.249 C  
HETATM   10  C   UNL     1     -13.229   8.317  69.773  1.00  0.00     3.384 C  
HETATM   11  C   UNL     1     -13.006   5.964  70.632  1.00  0.00     2.962 C  
HETATM   12  C   UNL     1      -9.161   6.817  68.705  1.00  0.00    -0.132 A  
HETATM   13  O   UNL     1     -13.433   7.553  72.895  1.00  0.00     0.749 OA 
HETATM   14  N   UNL     1     -11.793   9.059  72.337  1.00  0.00    -0.240 N  
HETATM   15  O   UNL     1      -9.614   9.696  72.712  1.00  0.00     1.852 OA 
HETATM   16  C   UNL     1     -10.436   9.020  72.101  1.00  0.00    -0.128 C  
BRANCH  14  17
HETATM   17  C   UNL     1     -12.362  10.172  73.062  1.00  0.00     3.227 C  
BRANCH  17  18
HETATM   18  C   UNL     1     -13.285  11.110  72.283  1.00  0.00    -0.097 C  
BRANCH  18  19
HETATM   19  C   UNL     1     -12.500  11.990  71.324  1.00  0.00    -0.303 A  
HETATM   20  C   UNL     1     -12.847  13.333  71.094  1.00  0.00    -0.363 A  
HETATM   21  C   UNL     1     -12.153  14.107  70.165  1.00  0.00    -0.411 A  
HETATM   22  C   UNL     1     -11.078  13.550  69.480  1.00  0.00    -0.053 A  
HETATM   23  C   UNL     1     -11.397  11.457  70.643  1.00  0.00     0.380 A  
HETATM   24  C   UNL     1     -10.695  12.229  69.713  1.00  0.00     0.542 A  
BRANCH  22  25
HETATM   25  S   UNL     1     -10.234  14.529  68.267  1.00  0.00    -0.240 S  
HETATM   26  O   UNL     1      -9.814  13.682  67.171  1.00  0.00    -0.232 OA 
HETATM   27  O   UNL     1     -11.047  15.702  68.016  1.00  0.00    -0.313 OA 
BRANCH  25  28
HETATM   28  N   UNL     1      -8.904  15.091  69.087  1.00  0.00    -0.287 N  
HETATM   29  H   UNL     1      -8.232  14.404  69.431  1.00  0.00     0.000 HD 
BRANCH  28  30
HETATM   30  C   UNL     1      -8.645  16.424  69.335  1.00  0.00     0.018 C  
HETATM   31  O   UNL     1      -8.906  16.987  70.386  1.00  0.00     2.354 OA 
BRANCH  30  32
HETATM   32  N   UNL     1      -8.069  17.041  68.266  1.00  0.00    -0.219 N  
HETATM   33  H   UNL     1      -8.643  17.270  67.455  1.00  0.00     0.000 HD 
BRANCH  32  34
HETATM   34  C   UNL     1      -6.651  17.382  68.256  1.00  0.00    -0.174 C  
HETATM   35  C   UNL     1      -6.378  18.612  67.382  1.00  0.00    -0.192 C  
HETATM   36  C   UNL     1      -7.001  19.875  67.973  1.00  0.00    -0.316 C  
HETATM   37  C   UNL     1      -6.568  20.107  69.419  1.00  0.00    -0.300 C  
HETATM   38  C   UNL     1      -6.749  18.876  70.305  1.00  0.00     0.386 C  
HETATM   39  C   UNL     1      -6.142  17.621  69.680  1.00  0.00    -0.245 C  
ENDBRANCH  32  34
ENDBRANCH  30  32
ENDBRANCH  28  30
ENDBRANCH  25  28
ENDBRANCH  22  25
ENDBRANCH  18  19
ENDBRANCH  17  18
ENDBRANCH  14  17
ENDBRANCH   2   3
TORSDOF 9
ENDMDL
MODEL      308
REMARK 921   NORMALIZED FREE ENERGY PREDICTED BY IDOCK:    8.74 KCAL/MOL
REMARK 922        TOTAL FREE ENERGY PREDICTED BY IDOCK:   11.19 KCAL/MOL
REMARK 923 INTER-LIGAND FREE ENERGY PREDICTED BY IDOCK:    7.60 KCAL/MOL
REMARK 924 INTRA-LIGAND FREE ENERGY PREDICTED BY IDOCK:    3.59 KCAL/MOL
REMARK 927      BINDING AFFINITY PREDICTED BY RF-SCORE:    0.00 PKD
ROOT
HETATM    1  C   UNL     1      -9.229  16.447  63.953  1.00  0.00     9.863 C  
HETATM    2  O   UNL     1      -9.746  16.541  65.278  1.00  0.00    -0.440 OA 
ENDROOT
BRANCH   2   3
HETATM    3  C   UNL     1      -8.980  15.953  66.247  1.00  0.00    -0.346 A  
HETATM    4  C   UNL     1      -9.342  14.821  66.967  1.00  0.00    -0.245 A  
HETATM    5  C   UNL     1      -8.456  14.277  67.908  1.00  0.00    -0.168 A  
HETATM    6  C   UNL     1      -7.220  14.885  68.183  1.00  0.00    -0.124 A  
HETATM    7  C   UNL     1      -6.854  16.003  67.419  1.00  0.00    -0.222 A  
HETATM    8  C   UNL     1      -6.294  14.291  69.238  1.00  0.00    -0.110 C  
HETATM    9  C   UNL     1      -7.013  13.223  70.078  1.00  0.00     0.586 C  
HETATM   10  C   UNL     1      -5.134  13.543  68.544  1.00  0.00    -0.081 C  
HETATM   11  C   UNL     1      -5.717  15.365  70.176  1.00  0.00    -0.144 C  
HETATM   12  C   UNL     1      -7.722  16.519  66.451  1.00  0.00    -0.294 A  
HETATM   13  O   UNL     1      -6.774  13.015  71.265  1.00  0.00     1.221 OA 
HETATM   14  N   UNL     1      -7.835  12.409  69.321  1.00  0.00     0.363 N  
HETATM   15  O   UNL     1      -9.841  12.395  68.196  1.00  0.00    -0.203 OA 
HETATM   16  C   UNL     1      -8.789  12.953  68.490  1.00  0.00    -0.044 C  
BRANCH  14  17
HETATM   17  C   UNL     1      -7.850  10.990  69.598  1.00  0.00     0.217 C  
BRANCH  17  18
HETATM   18  C   UNL     1      -9.059  10.197  69.100  1.00  0.00    -0.189 C  
BRANCH  18  19
HETATM   19  C   UNL     1      -8.735   9.434  67.826  1.00  0.00    -0.116 A  
HETATM   20  C   UNL     1      -9.009   9.963  66.552  1.00  0.00    -0.166 A  
HETATM   21  C   UNL     1      -8.762   9.223  65.397  1.00  0.00    -0.208 A  
HETATM   22  C   UNL     1      -8.203   7.954  65.506  1.00  0.00    -0.140 A  
HETATM   23  C   UNL     1      -8.147   8.165  67.912  1.00  0.00    -0.128 A  
HETATM   24  C   UNL     1      -7.893   7.420  66.757  1.00  0.00    -0.110 A  
BRANCH  22  25
HETATM   25  S   UNL     1      -7.937   7.004  64.033  1.00  0.00    -0.024 S  
HETATM   26  O   UNL     1      -8.459   7.728  62.893  1.00  0.00    -0.024 OA 
HETATM   27  O   UNL     1      -6.559   6.558  64.049  1.00  0.00    -0.036 OA 
BRANCH  25  28
HETATM   28  N   UNL     1      -8.839   5.636  64.293  1.00  0.00    -0.345 N  
HETATM   29  H   UNL     1      -9.000   5.014  63.500  1.00  0.00     0.000 HD 
BRANCH  28  30
HETATM   30  C   UNL     1      -9.386   5.280  65.510  1.00  0.00    -0.079 C  
HETATM   31  O   UNL     1     -10.070   6.024  66.194  1.00  0.00    -0.060 OA 
BRANCH  30  32
HETATM   32  N   UNL     1      -9.067   4.005  65.861  1.00  0.00    -0.135 N  
HETATM   33  H   UNL     1      -8.714   3.820  66.800  1.00  0.00     0.000 HD 
BRANCH  32  34
HETATM   34  C   UNL     1      -9.220   2.895  64.926  1.00  0.00    -0.148 C  
HETATM   35  C   UNL     1      -8.519   3.187  63.593  1.00  0.00    -0.090 C  
HETATM   36  C   UNL     1      -7.002   3.257  63.755  1.00  0.00    -0.048 C  
HETATM   37  C   UNL     1      -6.438   2.005  64.423  1.00  0.00    -0.019 C  
HETATM   38  C   UNL     1      -7.164   1.633  65.715  1.00  0.00    -0.055 C  
HETATM   39  C   UNL     1      -8.681   1.598  65.534  1.00  0.00    -0.114 C  
ENDBRANCH  32  34
ENDBRANCH  30  32
ENDBRANCH  28  30
ENDBRANCH  25  28
ENDBRANCH  22  25
ENDBRANCH  18  19
ENDBRANCH  17  18
ENDBRANCH  14  17
ENDBRANCH   2   3
TORSDOF 9
ENDMDL
MODEL      309
REMARK 921   NORMALIZED FREE ENERGY PREDICTED BY IDOCK:   10.11 KCAL/MOL
REMARK 922        TOTAL FREE ENERGY PREDICTED BY IDOCK:   13.29 KCAL/MOL
REMARK 923 INTER-LIGAND FREE ENERGY PREDICTED BY IDOCK:    3.02 KCAL/MOL
REMARK 924 INTRA-LIGAND FREE ENERGY PREDICTED BY IDOCK:   10.27 KCAL/MOL
REMARK 927      BINDING AFFINITY PREDICTED BY RF-SCORE:    0.00 PKD
ROOT
HETATM    1  C   UNL     1     -13.267  15.573  63.867  1.00  0.00     2.129 C  
HETATM    2  O   UNL     1     -13.752  15.268  65.172  1.00  0.00     0.915 OA 
ENDROOT
BRANCH   2   3
HETATM    3  C   UNL     1     -13.173  14.186  65.773  1.00  0.00     0.239 A  
HETATM    4  C   UNL     1     -12.606  13.111  65.099  1.00  0.00    -0.525 A  
HETATM    5  C   UNL     1     -11.997  12.075  65.820  1.00  0.00    -0.140 A  
HETATM    6  C   UNL     1     -11.993  12.067  67.224  1.00  0.00    -0.111 A  
HETATM    7  C   UNL     1     -12.535  13.178  67.888  1.00  0.00     0.378 A  
HETATM    8  C   UNL     1     -11.356  10.907  67.981  1.00  0.00    -0.382 C  
HETATM    9  C   UNL     1     -11.046   9.730  67.044  1.00  0.00     0.173 C  
HETATM   10  C   UNL     1      -9.985  11.347  68.541  1.00  0.00    -0.203 C  
HETATM   11  C   UNL     1     -12.242  10.411  69.138  1.00  0.00     0.173 C  
HETATM   12  C   UNL     1     -13.104  14.232  67.165  1.00  0.00     2.035 A  
HETATM   13  O   UNL     1     -11.095   8.551  67.390  1.00  0.00     0.027 OA 
HETATM   14  N   UNL     1     -10.545  10.134  65.821  1.00  0.00    -0.045 N  
HETATM   15  O   UNL     1     -11.169  11.114  63.836  1.00  0.00    -0.279 OA 
HETATM   16  C   UNL     1     -11.217  11.066  65.060  1.00  0.00     0.169 C  
BRANCH  14  17
HETATM   17  C   UNL     1      -9.449   9.392  65.241  1.00  0.00    -0.227 C  
BRANCH  17  18
HETATM   18  C   UNL     1      -9.573   7.868  65.222  1.00  0.00     0.962 C  
BRANCH  18  19
HETATM   19  C   UNL     1      -9.604   7.297  66.631  1.00  0.00    -0.236 A  
HETATM   20  C   UNL     1     -10.678   6.517  67.094  1.00  0.00    -0.438 A  
HETATM   21  C   UNL     1     -10.717   6.054  68.408  1.00  0.00    -0.351 A  
HETATM   22  C   UNL     1      -9.659   6.339  69.265  1.00  0.00    -0.133 A  
HETATM   23  C   UNL     1      -8.535   7.551  67.502  1.00  0.00    -0.119 A  
HETATM   24  C   UNL     1      -8.567   7.085  68.819  1.00  0.00    -0.125 A  
BRANCH  22  25
HETATM   25  S   UNL     1      -9.742   5.784  70.946  1.00  0.00    -0.179 S  
HETATM   26  O   UNL     1      -8.819   6.554  71.753  1.00  0.00    -0.138 OA 
HETATM   27  O   UNL     1     -11.143   5.708  71.307  1.00  0.00    -0.229 OA 
BRANCH  25  28
HETATM   28  N   UNL     1      -9.231   4.208  70.854  1.00  0.00    -0.121 N  
HETATM   29  H   UNL     1      -9.937   3.487  70.700  1.00  0.00     0.000 HD 
BRANCH  28  30
HETATM   30  C   UNL     1      -7.916   3.805  70.972  1.00  0.00    -0.062 C  
HETATM   31  O   UNL     1      -7.500   3.081  71.863  1.00  0.00    -0.045 OA 
BRANCH  30  32
HETATM   32  N   UNL     1      -7.134   4.314  69.982  1.00  0.00    -0.042 N  
HETATM   33  H   UNL     1      -7.575   4.769  69.182  1.00  0.00     0.000 HD 
BRANCH  32  34
HETATM   34  C   UNL     1      -5.678   4.226  70.038  1.00  0.00    -0.016 C  
HETATM   35  C   UNL     1      -5.183   4.064  71.480  1.00  0.00     0.000 C  
HETATM   36  C   UNL     1      -5.603   2.721  72.075  1.00  0.00    -0.008 C  
HETATM   37  C   UNL     1      -5.175   1.546  71.199  1.00  0.00    -0.004 C  
HETATM   38  C   UNL     1      -5.580   1.708  69.735  1.00  0.00    -0.017 C  
HETATM   39  C   UNL     1      -5.174   3.069  69.171  1.00  0.00    -0.012 C  
ENDBRANCH  32  34
ENDBRANCH  30  32
ENDBRANCH  28  30
ENDBRANCH  25  28
ENDBRANCH  22  25
ENDBRANCH  18  19
ENDBRANCH  17  18
ENDBRANCH  14  17
ENDBRANCH   2   3
TORSDOF 9
ENDMDL
MODEL      310
REMARK 921   NORMALIZED FREE ENERGY PREDICTED BY IDOCK:   10.29 KCAL/MOL
REMARK 922        TOTAL FREE ENERGY PREDICTED BY IDOCK:   13.56 KCAL/MOL
REMARK 923 INTER-LIGAND FREE ENERGY PREDICTED BY IDOCK:    8.00 KCAL/MOL
REMARK 924 INTRA-LIGAND FREE ENERGY PREDICTED BY IDOCK:    5.55 KCAL/MOL
REMARK 927      BINDING AFFINITY PREDICTED BY RF-SCORE:    0.00 PKD
ROOT
HETATM    1  C   UNL     1     -10.844  16.347  63.999  1.00  0.00     1.552 C  
HETATM    2  O   UNL     1     -11.584  15.937  65.146  1.00  0.00    -0.053 OA 
ENDROOT
BRANCH   2   3
HETATM    3  C   UNL     1     -10.835  15.647  66.252  1.00  0.00    -0.262 A  
HETATM    4  C   UNL     1      -9.719  14.818  66.261  1.00  0.00    -0.326 A  
HETATM    5  C   UNL     1      -8.998  14.627  67.448  1.00  0.00    -0.202 A  
HETATM    6  C   UNL     1      -9.410  15.217  68.655  1.00  0.00    -0.199 A  
HETATM    7  C   UNL     1     -10.514  16.082  68.620  1.00  0.00    -0.251 A  
HETATM    8  C   UNL     1      -8.626  14.961  69.937  1.00  0.00     0.346 C  
HETATM    9  C   UNL     1      -7.616  13.817  69.758  1.00  0.00     0.715 C  
HETATM   10  C   UNL     1      -7.771  16.202  70.276  1.00  0.00     1.414 C  
HETATM   11  C   UNL     1      -9.547  14.638  71.126  1.00  0.00     2.912 C  
HETATM   12  C   UNL     1     -11.207  16.303  67.425  1.00  0.00    -0.000 A  
HETATM   13  O   UNL     1      -7.300  13.039  70.655  1.00  0.00     1.848 OA 
HETATM   14  N   UNL     1      -6.974  13.854  68.534  1.00  0.00    -0.093 N  
HETATM   15  O   UNL     1      -7.311  13.460  66.293  1.00  0.00     1.384 OA 
HETATM   16  C   UNL     1      -7.697  13.916  67.363  1.00  0.00    -0.148 C  
BRANCH  14  17
HETATM   17  C   UNL     1      -5.556  13.576  68.486  1.00  0.00    -0.089 C  
BRANCH  17  18
HETATM   18  C   UNL     1      -5.138  12.112  68.354  1.00  0.00    -0.052 C  
BRANCH  18  19
HETATM   19  C   UNL     1      -6.241  11.176  68.821  1.00  0.00    -0.045 A  
HETATM   20  C   UNL     1      -5.965   9.884  69.303  1.00  0.00    -0.037 A  
HETATM   21  C   UNL     1      -6.995   9.018  69.670  1.00  0.00    -0.054 A  
HETATM   22  C   UNL     1      -8.314   9.452  69.589  1.00  0.00    -0.147 A  
HETATM   23  C   UNL     1      -7.575  11.603  68.773  1.00  0.00    -0.119 A  
HETATM   24  C   UNL     1      -8.611  10.740  69.143  1.00  0.00    -0.097 A  
BRANCH  22  25
HETATM   25  S   UNL     1      -9.615   8.325  70.012  1.00  0.00    -0.168 S  
HETATM   26  O   UNL     1      -9.043   7.058  70.415  1.00  0.00    -0.155 OA 
HETATM   27  O   UNL     1     -10.528   9.030  70.890  1.00  0.00    -0.215 OA 
BRANCH  25  28
HETATM   28  N   UNL     1     -10.441   8.142  68.584  1.00  0.00    -0.300 N  
HETATM   29  H   UNL     1     -10.879   8.969  68.178  1.00  0.00     0.000 HD 
BRANCH  28  30
HETATM   30  C   UNL     1     -10.577   6.946  67.908  1.00  0.00    -0.231 C  
HETATM   31  O   UNL     1     -10.882   6.858  66.730  1.00  0.00    -0.321 OA 
BRANCH  30  32
HETATM   32  N   UNL     1     -10.337   5.874  68.711  1.00  0.00    -0.196 N  
HETATM   33  H   UNL     1     -10.344   5.998  69.724  1.00  0.00     0.000 HD 
BRANCH  32  34
HETATM   34  C   UNL     1     -10.069   4.551  68.158  1.00  0.00     0.039 C  
HETATM   35  C   UNL     1      -8.592   4.392  67.776  1.00  0.00    -0.109 C  
HETATM   36  C   UNL     1      -7.686   4.408  69.005  1.00  0.00    -0.058 C  
HETATM   37  C   UNL     1      -8.110   3.374  70.046  1.00  0.00    -0.057 C  
HETATM   38  C   UNL     1      -9.596   3.447  70.394  1.00  0.00    -0.227 C  
HETATM   39  C   UNL     1     -10.481   3.457  69.147  1.00  0.00     2.002 C  
ENDBRANCH  32  34
ENDBRANCH  30  32
ENDBRANCH  28  30
ENDBRANCH  25  28
ENDBRANCH  22  25
ENDBRANCH  18  19
ENDBRANCH  17  18
ENDBRANCH  14  17
ENDBRANCH   2   3
TORSDOF 9
ENDMDL
MODEL      311
REMARK 921   NORMALIZED FREE ENERGY PREDICTED BY IDOCK:   10.56 KCAL/MOL
REMARK 922        TOTAL FREE ENERGY PREDICTED BY IDOCK:   13.97 KCAL/MOL
REMARK 923 INTER-LIGAND FREE ENERGY PREDICTED BY IDOCK:   11.19 KCAL/MOL
REMARK 924 INTRA-LIGAND FREE ENERGY PREDICTED BY IDOCK:    2.78 KCAL/MOL
REMARK 927      BINDING AFFINITY PREDICTED BY RF-SCORE:    0.00 PKD
ROOT
HETATM    1  C   UNL     1     -12.616   7.492  66.319  1.00  0.00    10.824 C  
HETATM    2  O   UNL     1     -11.831   7.797  67.469  1.00  0.00     1.710 OA 
ENDROOT
BRANCH   2   3
HETATM    3  C   UNL     1     -10.599   8.331  67.212  1.00  0.00    -0.265 A  
HETATM    4  C   UNL     1     -10.114   9.511  67.762  1.00  0.00    -0.244 A  
HETATM    5  C   UNL     1      -8.815   9.942  67.461  1.00  0.00    -0.131 A  
HETATM    6  C   UNL     1      -7.999   9.231  66.566  1.00  0.00    -0.104 A  
HETATM    7  C   UNL     1      -8.489   8.022  66.050  1.00  0.00    -0.144 A  
HETATM    8  C   UNL     1      -6.603   9.745  66.230  1.00  0.00    -0.073 C  
HETATM    9  C   UNL     1      -6.398  11.182  66.735  1.00  0.00    -0.125 C  
HETATM   10  C   UNL     1      -5.549   8.901  66.979  1.00  0.00    -0.041 C  
HETATM   11  C   UNL     1      -6.314   9.696  64.720  1.00  0.00    -0.089 C  
HETATM   12  C   UNL     1      -9.770   7.573  66.385  1.00  0.00    -0.180 A  
HETATM   13  O   UNL     1      -5.697  12.012  66.161  1.00  0.00    -0.018 OA 
HETATM   14  N   UNL     1      -6.947  11.395  67.986  1.00  0.00    -0.067 N  
HETATM   15  O   UNL     1      -8.960  11.659  69.066  1.00  0.00     0.021 OA 
HETATM   16  C   UNL     1      -8.264  11.082  68.238  1.00  0.00    -0.130 C  
BRANCH  14  17
HETATM   17  C   UNL     1      -6.199  12.174  68.947  1.00  0.00    -0.077 C  
BRANCH  17  18
HETATM   18  C   UNL     1      -5.191  13.181  68.393  1.00  0.00    -0.074 C  
BRANCH  18  19
HETATM   19  C   UNL     1      -5.869  14.480  67.990  1.00  0.00    -0.149 A  
HETATM   20  C   UNL     1      -5.409  15.256  66.912  1.00  0.00     1.165 A  
HETATM   21  C   UNL     1      -6.006  16.476  66.596  1.00  0.00     0.141 A  
HETATM   22  C   UNL     1      -7.098  16.914  67.338  1.00  0.00    -0.158 A  
HETATM   23  C   UNL     1      -6.987  14.927  68.708  1.00  0.00    -0.109 A  
HETATM   24  C   UNL     1      -7.592  16.147  68.393  1.00  0.00    -0.158 A  
BRANCH  22  25
HETATM   25  S   UNL     1      -7.818  18.488  66.957  1.00  0.00    -0.232 S  
HETATM   26  O   UNL     1      -7.467  19.441  67.989  1.00  0.00    -0.264 OA 
HETATM   27  O   UNL     1      -7.525  18.772  65.567  1.00  0.00    -0.493 OA 
BRANCH  25  28
HETATM   28  N   UNL     1      -9.449  18.183  67.002  1.00  0.00    -0.267 N  
HETATM   29  H   UNL     1      -9.989  18.591  67.766  1.00  0.00     0.000 HD 
BRANCH  28  30
HETATM   30  C   UNL     1     -10.126  17.414  66.076  1.00  0.00    -0.262 C  
HETATM   31  O   UNL     1     -11.224  17.697  65.625  1.00  0.00     0.249 OA 
BRANCH  30  32
HETATM   32  N   UNL     1      -9.428  16.299  65.729  1.00  0.00    -0.267 N  
HETATM   33  H   UNL     1      -8.579  16.395  65.172  1.00  0.00     0.000 HD 
BRANCH  32  34
HETATM   34  C   UNL     1      -9.866  14.968  66.135  1.00  0.00    -0.301 C  
HETATM   35  C   UNL     1     -10.516  14.992  67.524  1.00  0.00    -0.256 C  
HETATM   36  C   UNL     1     -11.831  15.769  67.519  1.00  0.00     0.306 C  
HETATM   37  C   UNL     1     -12.799  15.255  66.456  1.00  0.00     1.828 C  
HETATM   38  C   UNL     1     -12.165  15.138  65.071  1.00  0.00     0.025 C  
HETATM   39  C   UNL     1     -10.837  14.381  65.107  1.00  0.00    -0.397 C  
ENDBRANCH  32  34
ENDBRANCH  30  32
ENDBRANCH  28  30
ENDBRANCH  25  28
ENDBRANCH  22  25
ENDBRANCH  18  19
ENDBRANCH  17  18
ENDBRANCH  14  17
ENDBRANCH   2   3
TORSDOF 9
ENDMDL
MODEL      312
REMARK 921   NORMALIZED FREE ENERGY PREDICTED BY IDOCK:   11.65 KCAL/MOL
REMARK 922        TOTAL FREE ENERGY PREDICTED BY IDOCK:   15.64 KCAL/MOL
REMARK 923 INTER-LIGAND FREE ENERGY PREDICTED BY IDOCK:   14.72 KCAL/MOL
REMARK 924 INTRA-LIGAND FREE ENERGY PREDICTED BY IDOCK:    0.92 KCAL/MOL
REMARK 927      BINDING AFFINITY PREDICTED BY RF-SCORE:    0.00 PKD
ROOT
HETATM    1  C   UNL     1      -7.842  21.134  64.501  1.00  0.00     1.706 C  
HETATM    2  O   UNL     1      -8.759  20.064  64.289  1.00  0.00     2.638 OA 
ENDROOT
BRANCH   2   3
HETATM    3  C   UNL     1      -8.630  19.006  65.145  1.00  0.00     2.111 A  
HETATM    4  C   UNL     1      -9.244  18.909  66.388  1.00  0.00    -0.324 A  
HETATM    5  C   UNL     1      -9.078  17.754  67.164  1.00  0.00    -0.247 A  
HETATM    6  C   UNL     1      -8.254  16.700  66.736  1.00  0.00    -0.274 A  
HETATM    7  C   UNL     1      -7.674  16.796  65.462  1.00  0.00     1.496 A  
HETATM    8  C   UNL     1      -8.063  15.472  67.619  1.00  0.00    -0.162 C  
HETATM    9  C   UNL     1      -8.608  15.710  69.035  1.00  0.00    -0.232 C  
HETATM   10  C   UNL     1      -8.896  14.299  67.058  1.00  0.00    -0.243 C  
HETATM   11  C   UNL     1      -6.587  15.047  67.712  1.00  0.00    -0.189 C  
HETATM   12  C   UNL     1      -7.875  17.933  64.672  1.00  0.00     5.106 A  
HETATM   13  O   UNL     1      -8.119  15.212  70.047  1.00  0.00    -0.013 OA 
HETATM   14  N   UNL     1      -9.804  16.404  69.041  1.00  0.00    -0.256 N  
HETATM   15  O   UNL     1     -10.689  18.501  68.710  1.00  0.00     0.018 OA 
HETATM   16  C   UNL     1      -9.922  17.605  68.376  1.00  0.00    -0.356 C  
BRANCH  14  17
HETATM   17  C   UNL     1     -10.845  15.984  69.951  1.00  0.00    -0.351 C  
BRANCH  17  18
HETATM   18  C   UNL     1     -10.517  14.831  70.899  1.00  0.00     0.622 C  
BRANCH  18  19
HETATM   19  C   UNL     1     -10.473  13.502  70.163  1.00  0.00     1.424 A  
HETATM   20  C   UNL     1      -9.334  12.677  70.182  1.00  0.00     4.047 A  
HETATM   21  C   UNL     1      -9.292  11.491  69.450  1.00  0.00     0.577 A  
HETATM   22  C   UNL     1     -10.407  11.101  68.717  1.00  0.00    -0.205 A  
HETATM   23  C   UNL     1     -11.596  13.076  69.439  1.00  0.00    -0.360 A  
HETATM   24  C   UNL     1     -11.560  11.886  68.707  1.00  0.00    -0.366 A  
BRANCH  22  25
HETATM   25  S   UNL     1     -10.323   9.615  67.753  1.00  0.00    -0.251 S  
HETATM   26  O   UNL     1     -10.679   8.483  68.582  1.00  0.00    -0.159 OA 
HETATM   27  O   UNL     1     -11.028   9.866  66.512  1.00  0.00     0.015 OA 
BRANCH  25  28
HETATM   28  N   UNL     1      -8.720   9.524  67.331  1.00  0.00    -0.125 N  
HETATM   29  H   UNL     1      -8.323  10.298  66.799  1.00  0.00     0.000 HD 
BRANCH  28  30
HETATM   30  C   UNL     1      -7.887   8.470  67.651  1.00  0.00    -0.103 C  
HETATM   31  O   UNL     1      -6.669   8.536  67.647  1.00  0.00    -0.064 OA 
BRANCH  30  32
HETATM   32  N   UNL     1      -8.584   7.344  67.966  1.00  0.00    -0.122 N  
HETATM   33  H   UNL     1      -9.505   7.432  68.396  1.00  0.00     0.000 HD 
BRANCH  32  34
HETATM   34  C   UNL     1      -8.045   6.014  67.703  1.00  0.00    -0.106 C  
HETATM   35  C   UNL     1      -9.032   4.917  68.120  1.00  0.00    -0.123 C  
HETATM   36  C   UNL     1     -10.287   4.926  67.249  1.00  0.00    -0.154 C  
HETATM   37  C   UNL     1      -9.955   4.846  65.761  1.00  0.00    -0.191 C  
HETATM   38  C   UNL     1      -8.912   5.872  65.322  1.00  0.00     0.031 C  
HETATM   39  C   UNL     1      -7.678   5.863  66.224  1.00  0.00    -0.102 C  
ENDBRANCH  32  34
ENDBRANCH  30  32
ENDBRANCH  28  30
ENDBRANCH  25  28
ENDBRANCH  22  25
ENDBRANCH  18  19
ENDBRANCH  17  18
ENDBRANCH  14  17
ENDBRANCH   2   3
TORSDOF 9
ENDMDL
MODEL      313
REMARK 921   NORMALIZED FREE ENERGY PREDICTED BY IDOCK:   13.64 KCAL/MOL
REMARK 922        TOTAL FREE ENERGY PREDICTED BY IDOCK:   18.67 KCAL/MOL
REMARK 923 INTER-LIGAND FREE ENERGY PREDICTED BY IDOCK:   18.16 KCAL/MOL
REMARK 924 INTRA-LIGAND FREE ENERGY PREDICTED BY IDOCK:    0.50 KCAL/MOL
REMARK 927      BINDING AFFINITY PREDICTED BY RF-SCORE:    0.00 PKD
ROOT
HETATM    1  C   UNL     1      -8.001  11.442  64.494  1.00  0.00     1.097 C  
HETATM    2  O   UNL     1      -6.965  11.119  65.419  1.00  0.00     0.198 OA 
ENDROOT
BRANCH   2   3
HETATM    3  C   UNL     1      -7.366  10.966  66.716  1.00  0.00    -0.134 A  
HETATM    4  C   UNL     1      -8.565  10.386  67.115  1.00  0.00    -0.130 A  
HETATM    5  C   UNL     1      -8.853  10.241  68.479  1.00  0.00    -0.127 A  
HETATM    6  C   UNL     1      -7.975  10.719  69.466  1.00  0.00    -0.022 A  
HETATM    7  C   UNL     1      -6.752  11.266  69.047  1.00  0.00    -0.089 A  
HETATM    8  C   UNL     1      -8.333  10.579  70.941  1.00  0.00     2.556 C  
HETATM    9  C   UNL     1      -9.801  10.164  71.124  1.00  0.00     1.331 C  
HETATM   10  C   UNL     1      -7.509   9.431  71.565  1.00  0.00     0.300 C  
HETATM   11  C   UNL     1      -8.074  11.876  71.727  1.00  0.00    13.417 C  
HETATM   12  C   UNL     1      -6.449  11.372  67.686  1.00  0.00    -0.063 A  
HETATM   13  O   UNL     1     -10.497  10.521  72.072  1.00  0.00     2.892 OA 
HETATM   14  N   UNL     1     -10.210   9.215  70.206  1.00  0.00    -0.200 N  
HETATM   15  O   UNL     1     -10.762   8.952  67.989  1.00  0.00    -0.200 OA 
HETATM   16  C   UNL     1     -10.034   9.424  68.856  1.00  0.00    -0.179 C  
BRANCH  14  17
HETATM   17  C   UNL     1     -11.042   8.124  70.660  1.00  0.00    -0.254 C  
BRANCH  17  18
HETATM   18  C   UNL     1     -10.357   7.008  71.449  1.00  0.00    -0.211 C  
BRANCH  18  19
HETATM   19  C   UNL     1      -9.867   5.900  70.531  1.00  0.00    -0.231 A  
HETATM   20  C   UNL     1      -9.934   4.545  70.899  1.00  0.00    -0.263 A  
HETATM   21  C   UNL     1      -9.424   3.548  70.070  1.00  0.00    -0.253 A  
HETATM   22  C   UNL     1      -8.871   3.897  68.842  1.00  0.00    -0.107 A  
HETATM   23  C   UNL     1      -9.330   6.228  69.278  1.00  0.00    -0.139 A  
HETATM   24  C   UNL     1      -8.821   5.232  68.441  1.00  0.00    -0.105 A  
BRANCH  22  25
HETATM   25  S   UNL     1      -8.183   2.624  67.818  1.00  0.00    -0.073 S  
HETATM   26  O   UNL     1      -6.787   2.436  68.155  1.00  0.00    -0.042 OA 
HETATM   27  O   UNL     1      -9.101   1.504  67.846  1.00  0.00    -0.117 OA 
BRANCH  25  28
HETATM   28  N   UNL     1      -8.313   3.253  66.288  1.00  0.00    -0.097 N  
HETATM   29  H   UNL     1      -9.002   2.839  65.660  1.00  0.00     0.000 HD 
BRANCH  28  30
HETATM   30  C   UNL     1      -7.552   4.300  65.806  1.00  0.00    -0.086 C  
HETATM   31  O   UNL     1      -6.389   4.499  66.117  1.00  0.00    -0.034 OA 
BRANCH  30  32
HETATM   32  N   UNL     1      -8.253   5.090  64.947  1.00  0.00    -0.125 N  
HETATM   33  H   UNL     1      -8.814   5.856  65.319  1.00  0.00     0.000 HD 
BRANCH  32  34
HETATM   34  C   UNL     1      -8.219   4.865  63.506  1.00  0.00    -0.111 C  
HETATM   35  C   UNL     1      -7.487   3.563  63.159  1.00  0.00    -0.054 C  
HETATM   36  C   UNL     1      -8.253   2.336  63.651  1.00  0.00    -0.081 C  
HETATM   37  C   UNL     1      -9.695   2.319  63.150  1.00  0.00    -0.095 C  
HETATM   38  C   UNL     1     -10.435   3.632  63.404  1.00  0.00    -0.250 C  
HETATM   39  C   UNL     1      -9.637   4.845  62.929  1.00  0.00     0.243 C  
ENDBRANCH  32  34
ENDBRANCH  30  32
ENDBRANCH  28  30
ENDBRANCH  25  28
ENDBRANCH  22  25
ENDBRANCH  18  19
ENDBRANCH  17  18
ENDBRANCH  14  17
ENDBRANCH   2   3
TORSDOF 9
ENDMDL
MODEL      314
REMARK 921   NORMALIZED FREE ENERGY PREDICTED BY IDOCK:   14.36 KCAL/MOL
REMARK 922        TOTAL FREE ENERGY PREDICTED BY IDOCK:   19.77 KCAL/MOL
REMARK 923 INTER-LIGAND FREE ENERGY PREDICTED BY IDOCK:   18.91 KCAL/MOL
REMARK 924 INTRA-LIGAND FREE ENERGY PREDICTED BY IDOCK:    0.87 KCAL/MOL
REMARK 927      BINDING AFFINITY PREDICTED BY RF-SCORE:    0.00 PKD
ROOT
HETATM    1  C   UNL     1      -7.104  12.313  63.551  1.00  0.00     6.018 C  
HETATM    2  O   UNL     1      -6.060  12.003  64.471  1.00  0.00     3.042 OA 
ENDROOT
BRANCH   2   3
HETATM    3  C   UNL     1      -6.454  11.846  65.771  1.00  0.00     1.654 A  
HETATM    4  C   UNL     1      -7.643  11.252  66.175  1.00  0.00     0.032 A  
HETATM    5  C   UNL     1      -7.923  11.103  67.540  1.00  0.00    -0.118 A  
HETATM    6  C   UNL     1      -7.047  11.593  68.523  1.00  0.00    -0.089 A  
HETATM    7  C   UNL     1      -5.833  12.155  68.098  1.00  0.00    -0.056 A  
HETATM    8  C   UNL     1      -7.397  11.450  70.000  1.00  0.00     0.717 C  
HETATM    9  C   UNL     1      -8.858  11.017  70.190  1.00  0.00     1.741 C  
HETATM   10  C   UNL     1      -6.556  10.312  70.621  1.00  0.00    -0.042 C  
HETATM   11  C   UNL     1      -7.150  12.750  70.784  1.00  0.00     2.987 C  
HETATM   12  C   UNL     1      -5.537  12.264  66.736  1.00  0.00     0.227 A  
HETATM   13  O   UNL     1      -9.555  11.366  71.141  1.00  0.00     5.095 OA 
HETATM   14  N   UNL     1      -9.260  10.062  69.274  1.00  0.00    -0.191 N  
HETATM   15  O   UNL     1      -9.818   9.791  67.059  1.00  0.00    -0.174 OA 
HETATM   16  C   UNL     1      -9.092  10.272  67.922  1.00  0.00    -0.131 C  
BRANCH  14  17
HETATM   17  C   UNL     1     -10.076   8.961  69.732  1.00  0.00    -0.199 C  
BRANCH  17  18
HETATM   18  C   UNL     1      -9.374   7.854  70.518  1.00  0.00    -0.162 C  
BRANCH  18  19
HETATM   19  C   UNL     1      -8.874   6.752  69.599  1.00  0.00    -0.144 A  
HETATM   20  C   UNL     1      -9.017   5.391  69.923  1.00  0.00    -0.147 A  
HETATM   21  C   UNL     1      -8.498   4.396  69.096  1.00  0.00    -0.094 A  
HETATM   22  C   UNL     1      -7.859   4.755  67.914  1.00  0.00    -0.082 A  
HETATM   23  C   UNL     1      -8.251   7.091  68.389  1.00  0.00    -0.124 A  
HETATM   24  C   UNL     1      -7.733   6.097  67.555  1.00  0.00    -0.097 A  
BRANCH  22  25
HETATM   25  S   UNL     1      -7.162   3.483  66.895  1.00  0.00    -0.064 S  
HETATM   26  O   UNL     1      -5.790   3.246  67.291  1.00  0.00    -0.022 OA 
HETATM   27  O   UNL     1      -8.112   2.390  66.857  1.00  0.00    -0.077 OA 
BRANCH  25  28
HETATM   28  N   UNL     1      -7.203   4.146  65.374  1.00  0.00    -0.070 N  
HETATM   29  H   UNL     1      -7.842   3.736  64.693  1.00  0.00     0.000 HD 
BRANCH  28  30
HETATM   30  C   UNL     1      -6.430   5.216  64.967  1.00  0.00    -0.035 C  
HETATM   31  O   UNL     1      -5.557   5.727  65.650  1.00  0.00    -0.013 OA 
BRANCH  30  32
HETATM   32  N   UNL     1      -6.761   5.641  63.717  1.00  0.00    -0.036 N  
HETATM   33  H   UNL     1      -6.508   5.068  62.913  1.00  0.00     0.000 HD 
BRANCH  32  34
HETATM   34  C   UNL     1      -7.472   6.897  63.502  1.00  0.00    -0.088 C  
HETATM   35  C   UNL     1      -7.590   7.703  64.801  1.00  0.00    -0.105 C  
HETATM   36  C   UNL     1      -6.228   8.191  65.290  1.00  0.00    -0.045 C  
HETATM   37  C   UNL     1      -5.477   8.971  64.214  1.00  0.00    -0.056 C  
HETATM   38  C   UNL     1      -5.407   8.235  62.876  1.00  0.00    -0.068 C  
HETATM   39  C   UNL     1      -6.777   7.732  62.423  1.00  0.00    -0.080 C  
ENDBRANCH  32  34
ENDBRANCH  30  32
ENDBRANCH  28  30
ENDBRANCH  25  28
ENDBRANCH  22  25
ENDBRANCH  18  19
ENDBRANCH  17  18
ENDBRANCH  14  17
ENDBRANCH   2   3
TORSDOF 9
ENDMDL
MODEL      315
REMARK 921   NORMALIZED FREE ENERGY PREDICTED BY IDOCK:   16.75 KCAL/MOL
REMARK 922        TOTAL FREE ENERGY PREDICTED BY IDOCK:   23.42 KCAL/MOL
REMARK 923 INTER-LIGAND FREE ENERGY PREDICTED BY IDOCK:   24.94 KCAL/MOL
REMARK 924 INTRA-LIGAND FREE ENERGY PREDICTED BY IDOCK:   -1.52 KCAL/MOL
REMARK 927      BINDING AFFINITY PREDICTED BY RF-SCORE:    0.00 PKD
ROOT
HETATM    1  C   UNL     1      -5.439   9.111  66.476  1.00  0.00    -0.042 C  
HETATM    2  O   UNL     1      -5.280   8.286  67.627  1.00  0.00    -0.032 OA 
ENDROOT
BRANCH   2   3
HETATM    3  C   UNL     1      -6.439   7.943  68.265  1.00  0.00    -0.054 A  
HETATM    4  C   UNL     1      -7.127   8.757  69.157  1.00  0.00    -0.063 A  
HETATM    5  C   UNL     1      -8.334   8.318  69.719  1.00  0.00    -0.123 A  
HETATM    6  C   UNL     1      -8.845   7.039  69.443  1.00  0.00    -0.136 A  
HETATM    7  C   UNL     1      -8.160   6.246  68.510  1.00  0.00    -0.109 A  
HETATM    8  C   UNL     1     -10.141   6.576  70.098  1.00  0.00    -0.204 C  
HETATM    9  C   UNL     1     -10.564   7.521  71.233  1.00  0.00    -0.215 C  
HETATM   10  C   UNL     1     -11.292   6.641  69.069  1.00  0.00    -0.235 C  
HETATM   11  C   UNL     1     -10.033   5.143  70.649  1.00  0.00    -0.296 C  
HETATM   12  C   UNL     1      -6.977   6.704  67.919  1.00  0.00    -0.083 A  
HETATM   13  O   UNL     1     -11.151   7.149  72.247  1.00  0.00    -0.236 OA 
HETATM   14  N   UNL     1     -10.368   8.854  70.923  1.00  0.00    -0.221 N  
HETATM   15  O   UNL     1      -8.718  10.437  70.672  1.00  0.00     0.552 OA 
HETATM   16  C   UNL     1      -9.139   9.300  70.488  1.00  0.00    -0.259 C  
BRANCH  14  17
HETATM   17  C   UNL     1     -11.386   9.810  71.296  1.00  0.00    -0.375 C  
BRANCH  17  18
HETATM   18  C   UNL     1     -12.674   9.811  70.472  1.00  0.00    -0.059 C  
BRANCH  18  19
HETATM   19  C   UNL     1     -12.530  10.660  69.219  1.00  0.00     0.187 A  
HETATM   20  C   UNL     1     -11.936  10.161  68.046  1.00  0.00     1.331 A  
HETATM   21  C   UNL     1     -11.758  10.974  66.928  1.00  0.00     0.456 A  
HETATM   22  C   UNL     1     -12.206  12.290  66.961  1.00  0.00     0.311 A  
HETATM   23  C   UNL     1     -12.999  11.981  69.223  1.00  0.00     1.537 A  
HETATM   24  C   UNL     1     -12.827  12.799  68.103  1.00  0.00     2.005 A  
BRANCH  22  25
HETATM   25  S   UNL     1     -11.931  13.327  65.550  1.00  0.00    -0.433 S  
HETATM   26  O   UNL     1     -12.380  12.644  64.356  1.00  0.00    -0.416 OA 
HETATM   27  O   UNL     1     -12.440  14.644  65.876  1.00  0.00    -0.225 OA 
BRANCH  25  28
HETATM   28  N   UNL     1     -10.280  13.496  65.517  1.00  0.00    -0.308 N  
HETATM   29  H   UNL     1      -9.883  14.363  65.881  1.00  0.00     0.000 HD 
BRANCH  28  30
HETATM   30  C   UNL     1      -9.407  12.544  65.029  1.00  0.00     0.405 C  
HETATM   31  O   UNL     1      -9.753  11.453  64.605  1.00  0.00    -0.240 OA 
BRANCH  30  32
HETATM   32  N   UNL     1      -8.113  12.961  65.083  1.00  0.00     2.866 N  
HETATM   33  H   UNL     1      -7.891  13.929  64.850  1.00  0.00     0.000 HD 
BRANCH  32  34
HETATM   34  C   UNL     1      -7.035  12.055  65.467  1.00  0.00     2.487 C  
HETATM   35  C   UNL     1      -5.687  12.518  64.900  1.00  0.00     6.924 C  
HETATM   36  C   UNL     1      -5.231  13.833  65.529  1.00  0.00     9.444 C  
HETATM   37  C   UNL     1      -5.205  13.763  67.054  1.00  0.00     1.083 C  
HETATM   38  C   UNL     1      -6.504  13.228  67.654  1.00  0.00    -0.167 C  
HETATM   39  C   UNL     1      -6.954  11.927  66.990  1.00  0.00    -0.116 C  
ENDBRANCH  32  34
ENDBRANCH  30  32
ENDBRANCH  28  30
ENDBRANCH  25  28
ENDBRANCH  22  25
ENDBRANCH  18  19
ENDBRANCH  17  18
ENDBRANCH  14  17
ENDBRANCH   2   3
TORSDOF 9
ENDMDL
MODEL      316
REMARK 921   NORMALIZED FREE ENERGY PREDICTED BY IDOCK:   17.68 KCAL/MOL
REMARK 922        TOTAL FREE ENERGY PREDICTED BY IDOCK:   24.84 KCAL/MOL
REMARK 923 INTER-LIGAND FREE ENERGY PREDICTED BY IDOCK:   23.51 KCAL/MOL
REMARK 924 INTRA-LIGAND FREE ENERGY PREDICTED BY IDOCK:    1.33 KCAL/MOL
REMARK 927      BINDING AFFINITY PREDICTED BY RF-SCORE:    0.00 PKD
ROOT
HETATM    1  C   UNL     1      -6.943  21.232  64.517  1.00  0.00     0.505 C  
HETATM    2  O   UNL     1      -7.867  20.156  64.378  1.00  0.00     0.659 OA 
ENDROOT
BRANCH   2   3
HETATM    3  C   UNL     1      -7.564  19.030  65.091  1.00  0.00     0.952 A  
HETATM    4  C   UNL     1      -7.714  18.895  66.466  1.00  0.00    -0.274 A  
HETATM    5  C   UNL     1      -7.414  17.675  67.087  1.00  0.00    -0.217 A  
HETATM    6  C   UNL     1      -6.910  16.588  66.355  1.00  0.00     0.125 A  
HETATM    7  C   UNL     1      -6.802  16.727  64.964  1.00  0.00     4.604 A  
HETATM    8  C   UNL     1      -6.558  15.286  67.065  1.00  0.00     0.378 C  
HETATM    9  C   UNL     1      -6.548  15.464  68.591  1.00  0.00    -0.098 C  
HETATM   10  C   UNL     1      -7.657  14.235  66.790  1.00  0.00     0.681 C  
HETATM   11  C   UNL     1      -5.197  14.727  66.614  1.00  0.00     2.442 C  
HETATM   12  C   UNL     1      -7.142  17.932  64.340  1.00  0.00     4.684 A  
HETATM   13  O   UNL     1      -5.794  14.852  69.345  1.00  0.00    -0.097 OA 
HETATM   14  N   UNL     1      -7.584  16.258  69.046  1.00  0.00    -0.210 N  
HETATM   15  O   UNL     1      -8.297  18.444  69.131  1.00  0.00    -0.108 OA 
HETATM   16  C   UNL     1      -7.795  17.511  68.513  1.00  0.00    -0.274 C  
BRANCH  14  17
HETATM   17  C   UNL     1      -8.283  15.864  70.249  1.00  0.00     1.286 C  
BRANCH  17  18
HETATM   18  C   UNL     1      -7.712  14.680  71.029  1.00  0.00     2.258 C  
BRANCH  18  19
HETATM   19  C   UNL     1      -8.033  13.360  70.346  1.00  0.00     3.385 A  
HETATM   20  C   UNL     1      -7.389  12.162  70.704  1.00  0.00     3.453 A  
HETATM   21  C   UNL     1      -7.652  10.974  70.025  1.00  0.00     0.582 A  
HETATM   22  C   UNL     1      -8.593  10.966  69.000  1.00  0.00    -0.103 A  
HETATM   23  C   UNL     1      -8.997  13.325  69.329  1.00  0.00     0.855 A  
HETATM   24  C   UNL     1      -9.268  12.135  68.648  1.00  0.00    -0.021 A  
BRANCH  22  25
HETATM   25  S   UNL     1      -8.884   9.459  68.113  1.00  0.00    -0.124 S  
HETATM   26  O   UNL     1     -10.308   9.277  67.927  1.00  0.00    -0.202 OA 
HETATM   27  O   UNL     1      -7.989   9.448  66.974  1.00  0.00    -0.101 OA 
BRANCH  25  28
HETATM   28  N   UNL     1      -8.295   8.293  69.138  1.00  0.00    -0.122 N  
HETATM   29  H   UNL     1      -7.298   8.080  69.094  1.00  0.00     0.000 HD 
BRANCH  28  30
HETATM   30  C   UNL     1      -9.063   7.592  70.047  1.00  0.00    -0.148 C  
HETATM   31  O   UNL     1      -9.881   8.107  70.791  1.00  0.00    -0.178 OA 
BRANCH  30  32
HETATM   32  N   UNL     1      -8.797   6.257  70.020  1.00  0.00    -0.141 N  
HETATM   33  H   UNL     1      -9.141   5.696  69.241  1.00  0.00     0.000 HD 
BRANCH  32  34
HETATM   34  C   UNL     1      -8.029   5.612  71.079  1.00  0.00    -0.111 C  
HETATM   35  C   UNL     1      -8.805   5.595  72.402  1.00  0.00    -0.135 C  
HETATM   36  C   UNL     1     -10.042   4.702  72.321  1.00  0.00    -0.250 C  
HETATM   37  C   UNL     1      -9.701   3.290  71.853  1.00  0.00    -0.233 C  
HETATM   38  C   UNL     1      -8.858   3.265  70.579  1.00  0.00    -0.147 C  
HETATM   39  C   UNL     1      -7.642   4.187  70.675  1.00  0.00    -0.048 C  
ENDBRANCH  32  34
ENDBRANCH  30  32
ENDBRANCH  28  30
ENDBRANCH  25  28
ENDBRANCH  22  25
ENDBRANCH  18  19
ENDBRANCH  17  18
ENDBRANCH  14  17
ENDBRANCH   2   3
TORSDOF 9
ENDMDL
MODEL      317
REMARK 921   NORMALIZED FREE ENERGY PREDICTED BY IDOCK:   18.00 KCAL/MOL
REMARK 922        TOTAL FREE ENERGY PREDICTED BY IDOCK:   25.33 KCAL/MOL
REMARK 923 INTER-LIGAND FREE ENERGY PREDICTED BY IDOCK:   23.86 KCAL/MOL
REMARK 924 INTRA-LIGAND FREE ENERGY PREDICTED BY IDOCK:    1.47 KCAL/MOL
REMARK 927      BINDING AFFINITY PREDICTED BY RF-SCORE:    0.00 PKD
ROOT
HETATM    1  C   UNL     1      -6.941  21.233  64.516  1.00  0.00     0.505 C  
HETATM    2  O   UNL     1      -7.856  20.152  64.356  1.00  0.00     0.659 OA 
ENDROOT
BRANCH   2   3
HETATM    3  C   UNL     1      -7.547  19.016  65.050  1.00  0.00     1.292 A  
HETATM    4  C   UNL     1      -7.710  18.852  66.420  1.00  0.00    -0.291 A  
HETATM    5  C   UNL     1      -7.401  17.624  67.021  1.00  0.00    -0.219 A  
HETATM    6  C   UNL     1      -6.874  16.558  66.274  1.00  0.00     0.332 A  
HETATM    7  C   UNL     1      -6.753  16.726  64.886  1.00  0.00     5.344 A  
HETATM    8  C   UNL     1      -6.513  15.247  66.962  1.00  0.00     0.451 C  
HETATM    9  C   UNL     1      -6.523  15.395  68.491  1.00  0.00    -0.099 C  
HETATM   10  C   UNL     1      -7.595  14.188  66.654  1.00  0.00     1.031 C  
HETATM   11  C   UNL     1      -5.140  14.715  66.516  1.00  0.00     3.012 C  
HETATM   12  C   UNL     1      -7.102  17.939  64.283  1.00  0.00     5.436 A  
HETATM   13  O   UNL     1      -5.769  14.778  69.241  1.00  0.00    -0.095 OA 
HETATM   14  N   UNL     1      -7.574  16.167  68.950  1.00  0.00    -0.188 N  
HETATM   15  O   UNL     1      -8.316  18.341  69.069  1.00  0.00    -0.193 OA 
HETATM   16  C   UNL     1      -7.796  17.427  68.439  1.00  0.00    -0.257 C  
BRANCH  14  17
HETATM   17  C   UNL     1      -8.281  15.740  70.136  1.00  0.00     0.836 C  
BRANCH  17  18
HETATM   18  C   UNL     1      -7.706  14.546  70.897  1.00  0.00     2.120 C  
BRANCH  18  19
HETATM   19  C   UNL     1      -7.996  13.238  70.178  1.00  0.00     2.637 A  
HETATM   20  C   UNL     1      -7.342  12.041  70.518  1.00  0.00     2.855 A  
HETATM   21  C   UNL     1      -7.577  10.865  69.807  1.00  0.00     0.103 A  
HETATM   22  C   UNL     1      -8.500  10.869  68.767  1.00  0.00    -0.150 A  
HETATM   23  C   UNL     1      -8.943  13.214  69.145  1.00  0.00     0.670 A  
HETATM   24  C   UNL     1      -9.185  12.037  68.431  1.00  0.00    -0.160 A  
BRANCH  22  25
HETATM   25  S   UNL     1      -8.755   9.380  67.840  1.00  0.00    -0.119 S  
HETATM   26  O   UNL     1     -10.172   9.184  67.623  1.00  0.00    -0.205 OA 
HETATM   27  O   UNL     1      -7.839   9.407  66.718  1.00  0.00    -0.103 OA 
BRANCH  25  28
HETATM   28  N   UNL     1      -8.170   8.198  68.848  1.00  0.00    -0.123 N  
HETATM   29  H   UNL     1      -7.170   8.000  68.820  1.00  0.00     0.000 HD 
BRANCH  28  30
HETATM   30  C   UNL     1      -8.946   7.463  69.723  1.00  0.00    -0.141 C  
HETATM   31  O   UNL     1      -8.922   6.245  69.799  1.00  0.00    -0.138 OA 
BRANCH  30  32
HETATM   32  N   UNL     1      -9.747   8.255  70.486  1.00  0.00    -0.170 N  
HETATM   33  H   UNL     1      -9.335   8.793  71.249  1.00  0.00     0.000 HD 
BRANCH  32  34
HETATM   34  C   UNL     1     -11.181   8.354  70.239  1.00  0.00    -0.173 C  
HETATM   35  C   UNL     1     -11.897   7.037  70.566  1.00  0.00    -0.337 C  
HETATM   36  C   UNL     1     -11.856   6.728  72.061  1.00  0.00    -0.351 C  
HETATM   37  C   UNL     1     -12.394   7.882  72.902  1.00  0.00     0.161 C  
HETATM   38  C   UNL     1     -11.763   9.228  72.550  1.00  0.00     0.335 C  
HETATM   39  C   UNL     1     -11.791   9.503  71.046  1.00  0.00    -0.408 C  
ENDBRANCH  32  34
ENDBRANCH  30  32
ENDBRANCH  28  30
ENDBRANCH  25  28
ENDBRANCH  22  25
ENDBRANCH  18  19
ENDBRANCH  17  18
ENDBRANCH  14  17
ENDBRANCH   2   3
TORSDOF 9
ENDMDL
MODEL      318
REMARK 921   NORMALIZED FREE ENERGY PREDICTED BY IDOCK:   23.27 KCAL/MOL
REMARK 922        TOTAL FREE ENERGY PREDICTED BY IDOCK:   33.36 KCAL/MOL
REMARK 923 INTER-LIGAND FREE ENERGY PREDICTED BY IDOCK:   34.60 KCAL/MOL
REMARK 924 INTRA-LIGAND FREE ENERGY PREDICTED BY IDOCK:   -1.24 KCAL/MOL
REMARK 927      BINDING AFFINITY PREDICTED BY RF-SCORE:    0.00 PKD
ROOT
HETATM    1  C   UNL     1      -8.221  10.934  65.010  1.00  0.00     0.081 C  
HETATM    2  O   UNL     1      -7.194  10.610  65.944  1.00  0.00    -0.137 OA 
ENDROOT
BRANCH   2   3
HETATM    3  C   UNL     1      -7.592  10.539  67.250  1.00  0.00    -0.096 A  
HETATM    4  C   UNL     1      -8.883  10.246  67.672  1.00  0.00    -0.121 A  
HETATM    5  C   UNL     1      -9.169  10.155  69.041  1.00  0.00    -0.188 A  
HETATM    6  C   UNL     1      -8.184  10.409  70.010  1.00  0.00     0.174 A  
HETATM    7  C   UNL     1      -6.878  10.665  69.568  1.00  0.00    -0.109 A  
HETATM    8  C   UNL     1      -8.534  10.339  71.493  1.00  0.00     3.698 C  
HETATM    9  C   UNL     1     -10.054  10.270  71.707  1.00  0.00     3.447 C  
HETATM   10  C   UNL     1      -7.983   9.025  72.091  1.00  0.00     0.293 C  
HETATM   11  C   UNL     1      -7.968  11.533  72.280  1.00  0.00    14.379 C  
HETATM   12  C   UNL     1      -6.587  10.713  68.200  1.00  0.00    -0.063 A  
HETATM   13  O   UNL     1     -10.630  10.767  72.672  1.00  0.00     6.553 OA 
HETATM   14  N   UNL     1     -10.689   9.450  70.792  1.00  0.00    -0.279 N  
HETATM   15  O   UNL     1     -11.333   9.344  68.587  1.00  0.00     0.088 OA 
HETATM   16  C   UNL     1     -10.498   9.627  69.440  1.00  0.00    -0.220 C  
BRANCH  14  17
HETATM   17  C   UNL     1     -11.740   8.574  71.259  1.00  0.00    -0.284 C  
BRANCH  17  18
HETATM   18  C   UNL     1     -11.312   7.313  72.011  1.00  0.00    -0.295 C  
BRANCH  18  19
HETATM   19  C   UNL     1     -10.871   6.218  71.053  1.00  0.00    -0.326 A  
HETATM   20  C   UNL     1     -11.768   5.250  70.568  1.00  0.00     1.986 A  
HETATM   21  C   UNL     1     -11.331   4.217  69.739  1.00  0.00     5.061 A  
HETATM   22  C   UNL     1      -9.995   4.165  69.358  1.00  0.00     0.034 A  
HETATM   23  C   UNL     1      -9.534   6.163  70.636  1.00  0.00    -0.185 A  
HETATM   24  C   UNL     1      -9.093   5.133  69.802  1.00  0.00    -0.154 A  
BRANCH  22  25
HETATM   25  S   UNL     1      -9.444   2.821  68.342  1.00  0.00    -0.061 S  
HETATM   26  O   UNL     1      -8.916   1.767  69.183  1.00  0.00    -0.073 OA 
HETATM   27  O   UNL     1     -10.498   2.539  67.389  1.00  0.00     2.117 OA 
BRANCH  25  28
HETATM   28  N   UNL     1      -8.219   3.495  67.448  1.00  0.00    -0.089 N  
HETATM   29  H   UNL     1      -7.745   4.314  67.830  1.00  0.00     0.000 HD 
BRANCH  28  30
HETATM   30  C   UNL     1      -7.797   3.023  66.221  1.00  0.00    -0.078 C  
HETATM   31  O   UNL     1      -8.431   2.237  65.536  1.00  0.00    -0.092 OA 
BRANCH  30  32
HETATM   32  N   UNL     1      -6.585   3.531  65.866  1.00  0.00    -0.039 N  
HETATM   33  H   UNL     1      -5.762   3.290  66.418  1.00  0.00     0.000 HD 
BRANCH  32  34
HETATM   34  C   UNL     1      -6.436   4.414  64.714  1.00  0.00    -0.039 C  
HETATM   35  C   UNL     1      -7.797   4.910  64.209  1.00  0.00    -0.088 C  
HETATM   36  C   UNL     1      -8.476   5.828  65.224  1.00  0.00    -0.148 C  
HETATM   37  C   UNL     1      -7.577   6.988  65.641  1.00  0.00    -0.093 C  
HETATM   38  C   UNL     1      -6.181   6.542  66.074  1.00  0.00    -0.038 C  
HETATM   39  C   UNL     1      -5.534   5.603  65.056  1.00  0.00    -0.016 C  
ENDBRANCH  32  34
ENDBRANCH  30  32
ENDBRANCH  28  30
ENDBRANCH  25  28
ENDBRANCH  22  25
ENDBRANCH  18  19
ENDBRANCH  17  18
ENDBRANCH  14  17
ENDBRANCH   2   3
TORSDOF 9
ENDMDL
MODEL      319
REMARK 921   NORMALIZED FREE ENERGY PREDICTED BY IDOCK:   24.72 KCAL/MOL
REMARK 922        TOTAL FREE ENERGY PREDICTED BY IDOCK:   35.57 KCAL/MOL
REMARK 923 INTER-LIGAND FREE ENERGY PREDICTED BY IDOCK:   13.58 KCAL/MOL
REMARK 924 INTRA-LIGAND FREE ENERGY PREDICTED BY IDOCK:   22.00 KCAL/MOL
REMARK 927      BINDING AFFINITY PREDICTED BY RF-SCORE:    0.00 PKD
ROOT
HETATM    1  C   UNL     1      -9.785  11.471  65.299  1.00  0.00    -0.238 C  
HETATM    2  O   UNL     1     -10.029  10.590  66.393  1.00  0.00    -0.202 OA 
ENDROOT
BRANCH   2   3
HETATM    3  C   UNL     1      -9.951   9.257  66.098  1.00  0.00    -0.277 A  
HETATM    4  C   UNL     1      -9.770   8.246  67.034  1.00  0.00    -0.274 A  
HETATM    5  C   UNL     1      -9.751   6.906  66.623  1.00  0.00    -0.221 A  
HETATM    6  C   UNL     1      -9.858   6.558  65.266  1.00  0.00     1.364 A  
HETATM    7  C   UNL     1     -10.080   7.587  64.340  1.00  0.00     5.359 A  
HETATM    8  C   UNL     1      -9.796   5.093  64.846  1.00  0.00     0.374 C  
HETATM    9  C   UNL     1      -9.325   4.198  66.002  1.00  0.00    -0.164 C  
HETATM   10  C   UNL     1     -11.218   4.595  64.504  1.00  0.00     0.593 C  
HETATM   11  C   UNL     1      -8.876   4.875  63.632  1.00  0.00    -0.070 C  
HETATM   12  C   UNL     1     -10.140   8.921  64.758  1.00  0.00     1.973 A  
HETATM   13  O   UNL     1      -8.655   3.179  65.846  1.00  0.00    -0.108 OA 
HETATM   14  N   UNL     1      -9.871   4.560  67.219  1.00  0.00    -0.190 N  
HETATM   15  O   UNL     1      -9.749   6.168  68.859  1.00  0.00    -0.127 OA 
HETATM   16  C   UNL     1      -9.776   5.857  67.673  1.00  0.00    -0.115 C  
BRANCH  14  17
HETATM   17  C   UNL     1     -10.320   3.518  68.115  1.00  0.00     1.452 C  
BRANCH  17  18
HETATM   18  C   UNL     1      -9.897   3.631  69.580  1.00  0.00     0.040 C  
BRANCH  18  19
HETATM   19  C   UNL     1     -10.179   5.018  70.134  1.00  0.00    -0.329 A  
HETATM   20  C   UNL     1      -9.760   6.184  69.469  1.00  0.00    -0.175 A  
HETATM   21  C   UNL     1      -9.974   7.445  70.024  1.00  0.00    -0.185 A  
HETATM   22  C   UNL     1     -10.645   7.552  71.238  1.00  0.00    -0.215 A  
HETATM   23  C   UNL     1     -10.877   5.150  71.343  1.00  0.00    -0.083 A  
HETATM   24  C   UNL     1     -11.098   6.412  71.901  1.00  0.00    -0.311 A  
BRANCH  22  25
HETATM   25  S   UNL     1     -10.869   9.158  71.955  1.00  0.00    -0.149 S  
HETATM   26  O   UNL     1     -12.135   9.707  71.519  1.00  0.00    -0.351 OA 
HETATM   27  O   UNL     1     -10.566   9.046  73.367  1.00  0.00     1.856 OA 
BRANCH  25  28
HETATM   28  N   UNL     1      -9.620  10.042  71.312  1.00  0.00     0.505 N  
HETATM   29  H   UNL     1      -9.855  10.841  70.725  1.00  0.00     0.000 HD 
BRANCH  28  30
HETATM   30  C   UNL     1      -8.282   9.768  71.519  1.00  0.00     1.504 C  
HETATM   31  O   UNL     1      -7.436  10.620  71.736  1.00  0.00     2.832 OA 
BRANCH  30  32
HETATM   32  N   UNL     1      -8.015   8.435  71.446  1.00  0.00    -0.114 N  
HETATM   33  H   UNL     1      -8.535   7.858  70.786  1.00  0.00     0.000 HD 
BRANCH  32  34
HETATM   34  C   UNL     1      -7.000   7.814  72.290  1.00  0.00    -0.070 C  
HETATM   35  C   UNL     1      -7.587   6.659  73.112  1.00  0.00    -0.088 C  
HETATM   36  C   UNL     1      -8.015   5.493  72.223  1.00  0.00    -0.107 C  
HETATM   37  C   UNL     1      -6.884   5.017  71.315  1.00  0.00    -0.040 C  
HETATM   38  C   UNL     1      -6.218   6.151  70.539  1.00  0.00    -0.035 C  
HETATM   39  C   UNL     1      -5.824   7.317  71.445  1.00  0.00    -0.036 C  
ENDBRANCH  32  34
ENDBRANCH  30  32
ENDBRANCH  28  30
ENDBRANCH  25  28
ENDBRANCH  22  25
ENDBRANCH  18  19
ENDBRANCH  17  18
ENDBRANCH  14  17
ENDBRANCH   2   3
TORSDOF 9
ENDMDL
