MODEL        1
REMARK 921   NORMALIZED FREE ENERGY PREDICTED BY IDOCK:   -5.59 KCAL/MOL
REMARK 922        TOTAL FREE ENERGY PREDICTED BY IDOCK:   -6.15 KCAL/MOL
REMARK 923 INTER-LIGAND FREE ENERGY PREDICTED BY IDOCK:   -5.92 KCAL/MOL
REMARK 924 INTRA-LIGAND FREE ENERGY PREDICTED BY IDOCK:   -0.23 KCAL/MOL
REMARK 927      BINDING AFFINITY PREDICTED BY RF-SCORE:    0.00 PKD
ROOT
HETATM    1  O   UNL     1     -11.533  16.349  63.918  1.00  0.00    -1.569 OA 
HETATM    2  C   UNL     1     -10.844  16.166  65.155  1.00  0.00    -0.361 C  
HETATM    3  H   UNL     1     -11.945  17.204  63.871  1.00  0.00     0.000 HD 
ENDROOT
BRANCH   2   4
HETATM    4  C   UNL     1     -10.179  14.786  65.231  1.00  0.00    -0.384 C  
HETATM    5  O   UNL     1      -9.954  14.475  66.625  1.00  0.00    -0.255 OA 
HETATM    6  C   UNL     1     -10.942  13.932  67.371  1.00  0.00    -0.288 C  
HETATM    7  C   UNL     1     -11.793  12.853  66.717  1.00  0.00    -0.385 C  
HETATM    8  O   UNL     1     -11.017  14.157  68.578  1.00  0.00    -0.238 OA 
HETATM    9  O   UNL     1     -11.126  11.589  66.829  1.00  0.00    -0.286 OA 
HETATM   10  C   UNL     1     -12.118  13.126  65.250  1.00  0.00    -0.429 C  
HETATM   11  C   UNL     1     -10.910  13.667  64.478  1.00  0.00    -0.406 C  
HETATM   12  H   UNL     1     -11.657  10.915  66.421  1.00  0.00     0.000 HD 
HETATM   13  O   UNL     1     -13.266  13.967  65.109  1.00  0.00    -0.768 OA 
HETATM   14  H   UNL     1     -13.469  14.137  64.197  1.00  0.00     0.000 HD 
HETATM   15  O   UNL     1      -9.948  12.628  64.233  1.00  0.00    -0.551 OA 
HETATM   16  H   UNL     1     -10.401  11.935  63.766  1.00  0.00     0.000 HD 
ENDBRANCH   2   4
TORSDOF 1
ENDMDL
MODEL        2
REMARK 921   NORMALIZED FREE ENERGY PREDICTED BY IDOCK:   -5.53 KCAL/MOL
REMARK 922        TOTAL FREE ENERGY PREDICTED BY IDOCK:   -6.08 KCAL/MOL
REMARK 923 INTER-LIGAND FREE ENERGY PREDICTED BY IDOCK:   -6.05 KCAL/MOL
REMARK 924 INTRA-LIGAND FREE ENERGY PREDICTED BY IDOCK:   -0.03 KCAL/MOL
REMARK 927      BINDING AFFINITY PREDICTED BY RF-SCORE:    0.00 PKD
ROOT
HETATM    1  O   UNL     1     -11.647  16.514  63.827  1.00  0.00    -1.617 OA 
HETATM    2  C   UNL     1     -11.011  15.687  64.801  1.00  0.00    -0.400 C  
HETATM    3  H   UNL     1     -11.386  17.423  63.918  1.00  0.00     0.000 HD 
ENDROOT
BRANCH   2   4
HETATM    4  C   UNL     1     -11.433  14.218  64.655  1.00  0.00    -0.385 C  
HETATM    5  O   UNL     1     -10.287  13.392  64.963  1.00  0.00    -0.331 OA 
HETATM    6  C   UNL     1      -9.997  13.080  66.246  1.00  0.00    -0.283 C  
HETATM    7  C   UNL     1     -11.165  12.730  67.157  1.00  0.00    -0.292 C  
HETATM    8  O   UNL     1      -8.834  12.894  66.602  1.00  0.00    -0.188 OA 
HETATM    9  O   UNL     1     -11.505  11.348  66.984  1.00  0.00    -0.452 OA 
HETATM   10  C   UNL     1     -12.406  13.590  66.929  1.00  0.00    -0.238 C  
HETATM   11  C   UNL     1     -12.689  13.820  65.441  1.00  0.00    -0.472 C  
HETATM   12  H   UNL     1     -12.234  11.130  67.553  1.00  0.00     0.000 HD 
HETATM   13  O   UNL     1     -12.342  14.817  67.660  1.00  0.00    -0.551 OA 
HETATM   14  H   UNL     1     -13.115  15.353  67.519  1.00  0.00     0.000 HD 
HETATM   15  O   UNL     1     -13.209  12.631  64.825  1.00  0.00    -0.846 OA 
HETATM   16  H   UNL     1     -13.987  12.384  65.312  1.00  0.00     0.000 HD 
ENDBRANCH   2   4
TORSDOF 1
ENDMDL
MODEL        3
REMARK 921   NORMALIZED FREE ENERGY PREDICTED BY IDOCK:   -5.38 KCAL/MOL
REMARK 922        TOTAL FREE ENERGY PREDICTED BY IDOCK:   -5.92 KCAL/MOL
REMARK 923 INTER-LIGAND FREE ENERGY PREDICTED BY IDOCK:   -5.88 KCAL/MOL
REMARK 924 INTRA-LIGAND FREE ENERGY PREDICTED BY IDOCK:   -0.04 KCAL/MOL
REMARK 927      BINDING AFFINITY PREDICTED BY RF-SCORE:    0.00 PKD
ROOT
HETATM    1  O   UNL     1     -11.712  16.446  63.788  1.00  0.00    -1.553 OA 
HETATM    2  C   UNL     1     -10.920  15.488  64.490  1.00  0.00    -0.206 C  
HETATM    3  H   UNL     1     -11.292  16.722  62.982  1.00  0.00     0.000 HD 
ENDROOT
BRANCH   2   4
HETATM    4  C   UNL     1     -11.598  15.044  65.794  1.00  0.00    -0.171 C  
HETATM    5  O   UNL     1     -12.713  14.191  65.449  1.00  0.00    -0.545 OA 
HETATM    6  C   UNL     1     -12.518  12.874  65.216  1.00  0.00    -0.493 C  
HETATM    7  C   UNL     1     -11.554  12.141  66.138  1.00  0.00    -0.354 C  
HETATM    8  O   UNL     1     -13.236  12.261  64.428  1.00  0.00    -0.806 OA 
HETATM    9  O   UNL     1     -12.246  11.744  67.329  1.00  0.00    -0.471 OA 
HETATM   10  C   UNL     1     -10.319  12.956  66.516  1.00  0.00    -0.264 C  
HETATM   11  C   UNL     1     -10.661  14.415  66.834  1.00  0.00    -0.292 C  
HETATM   12  H   UNL     1     -11.644  11.286  67.904  1.00  0.00     0.000 HD 
HETATM   13  O   UNL     1      -9.290  12.848  65.529  1.00  0.00    -0.456 OA 
HETATM   14  H   UNL     1      -8.522  13.355  65.764  1.00  0.00     0.000 HD 
HETATM   15  O   UNL     1     -11.316  14.525  68.108  1.00  0.00    -0.271 OA 
HETATM   16  H   UNL     1     -10.736  14.136  68.753  1.00  0.00     0.000 HD 
ENDBRANCH   2   4
TORSDOF 1
ENDMDL
MODEL        4
REMARK 921   NORMALIZED FREE ENERGY PREDICTED BY IDOCK:   -5.30 KCAL/MOL
REMARK 922        TOTAL FREE ENERGY PREDICTED BY IDOCK:   -5.84 KCAL/MOL
REMARK 923 INTER-LIGAND FREE ENERGY PREDICTED BY IDOCK:   -5.59 KCAL/MOL
REMARK 924 INTRA-LIGAND FREE ENERGY PREDICTED BY IDOCK:   -0.25 KCAL/MOL
REMARK 927      BINDING AFFINITY PREDICTED BY RF-SCORE:    0.00 PKD
ROOT
HETATM    1  O   UNL     1      -9.467  12.189  63.154  1.00  0.00    -0.647 OA 
HETATM    2  C   UNL     1     -10.523  11.553  63.874  1.00  0.00    -0.385 C  
HETATM    3  H   UNL     1      -8.758  11.585  62.968  1.00  0.00     0.000 HD 
ENDROOT
BRANCH   2   4
HETATM    4  C   UNL     1     -11.669  12.530  64.174  1.00  0.00    -0.399 C  
HETATM    5  O   UNL     1     -12.366  12.053  65.347  1.00  0.00    -0.457 OA 
HETATM    6  C   UNL     1     -11.910  12.359  66.582  1.00  0.00    -0.325 C  
HETATM    7  C   UNL     1     -11.405  13.777  66.805  1.00  0.00    -0.330 C  
HETATM    8  O   UNL     1     -12.084  11.589  67.527  1.00  0.00    -0.614 OA 
HETATM    9  O   UNL     1     -12.517  14.637  67.090  1.00  0.00    -0.507 OA 
HETATM   10  C   UNL     1     -10.615  14.344  65.628  1.00  0.00    -0.329 C  
HETATM   11  C   UNL     1     -11.257  14.004  64.279  1.00  0.00    -0.220 C  
HETATM   12  H   UNL     1     -12.201  15.523  67.229  1.00  0.00     0.000 HD 
HETATM   13  O   UNL     1      -9.239  13.960  65.680  1.00  0.00    -0.468 OA 
HETATM   14  H   UNL     1      -8.746  14.313  64.947  1.00  0.00     0.000 HD 
HETATM   15  O   UNL     1     -12.443  14.786  64.061  1.00  0.00    -0.910 OA 
HETATM   16  H   UNL     1     -12.189  15.700  64.126  1.00  0.00     0.000 HD 
ENDBRANCH   2   4
TORSDOF 1
ENDMDL
MODEL        5
REMARK 921   NORMALIZED FREE ENERGY PREDICTED BY IDOCK:   -5.28 KCAL/MOL
REMARK 922        TOTAL FREE ENERGY PREDICTED BY IDOCK:   -5.82 KCAL/MOL
REMARK 923 INTER-LIGAND FREE ENERGY PREDICTED BY IDOCK:   -5.58 KCAL/MOL
REMARK 924 INTRA-LIGAND FREE ENERGY PREDICTED BY IDOCK:   -0.24 KCAL/MOL
REMARK 927      BINDING AFFINITY PREDICTED BY RF-SCORE:    0.00 PKD
ROOT
HETATM    1  O   UNL     1      -8.540  13.975  66.478  1.00  0.00    -0.440 OA 
HETATM    2  C   UNL     1      -9.741  14.737  66.354  1.00  0.00    -0.291 C  
HETATM    3  H   UNL     1      -7.769  14.524  66.402  1.00  0.00     0.000 HD 
ENDROOT
BRANCH   2   4
HETATM    4  C   UNL     1     -10.987  13.850  66.476  1.00  0.00    -0.300 C  
HETATM    5  O   UNL     1     -12.084  14.528  65.822  1.00  0.00    -0.350 OA 
HETATM    6  C   UNL     1     -12.254  14.416  64.486  1.00  0.00    -0.463 C  
HETATM    7  C   UNL     1     -12.036  13.042  63.870  1.00  0.00    -0.471 C  
HETATM    8  O   UNL     1     -12.755  15.333  63.836  1.00  0.00    -0.732 OA 
HETATM    9  O   UNL     1     -13.234  12.266  64.005  1.00  0.00    -0.757 OA 
HETATM   10  C   UNL     1     -10.863  12.273  64.473  1.00  0.00    -0.315 C  
HETATM   11  C   UNL     1     -10.806  12.403  65.999  1.00  0.00    -0.273 C  
HETATM   12  H   UNL     1     -13.098  11.407  63.621  1.00  0.00     0.000 HD 
HETATM   13  O   UNL     1      -9.623  12.627  63.856  1.00  0.00    -0.653 OA 
HETATM   14  H   UNL     1      -8.893  12.149  64.232  1.00  0.00     0.000 HD 
HETATM   15  O   UNL     1     -11.839  11.623  66.622  1.00  0.00    -0.533 OA 
HETATM   16  H   UNL     1     -11.728  10.727  66.327  1.00  0.00     0.000 HD 
ENDBRANCH   2   4
TORSDOF 1
ENDMDL
MODEL        6
REMARK 921   NORMALIZED FREE ENERGY PREDICTED BY IDOCK:   -5.18 KCAL/MOL
REMARK 922        TOTAL FREE ENERGY PREDICTED BY IDOCK:   -5.72 KCAL/MOL
REMARK 923 INTER-LIGAND FREE ENERGY PREDICTED BY IDOCK:   -5.69 KCAL/MOL
REMARK 924 INTRA-LIGAND FREE ENERGY PREDICTED BY IDOCK:   -0.03 KCAL/MOL
REMARK 927      BINDING AFFINITY PREDICTED BY RF-SCORE:    0.00 PKD
ROOT
HETATM    1  O   UNL     1     -10.454  13.749  69.170  1.00  0.00    -0.398 OA 
HETATM    2  C   UNL     1     -10.353  13.716  67.747  1.00  0.00    -0.241 C  
HETATM    3  H   UNL     1      -9.727  13.297  69.582  1.00  0.00     0.000 HD 
ENDROOT
BRANCH   2   4
HETATM    4  C   UNL     1     -11.528  14.446  67.082  1.00  0.00    -0.362 C  
HETATM    5  O   UNL     1     -11.145  15.828  66.893  1.00  0.00    -0.260 OA 
HETATM    6  C   UNL     1     -10.429  16.195  65.807  1.00  0.00    -0.367 C  
HETATM    7  C   UNL     1     -10.812  15.563  64.477  1.00  0.00    -0.106 C  
HETATM    8  O   UNL     1      -9.642  17.139  65.861  1.00  0.00    -0.497 OA 
HETATM    9  O   UNL     1     -11.904  16.293  63.902  1.00  0.00    -1.400 OA 
HETATM   10  C   UNL     1     -11.187  14.087  64.578  1.00  0.00    -0.350 C  
HETATM   11  C   UNL     1     -12.061  13.792  65.801  1.00  0.00    -0.429 C  
HETATM   12  H   UNL     1     -12.143  15.899  63.071  1.00  0.00     0.000 HD 
HETATM   13  O   UNL     1     -10.034  13.242  64.525  1.00  0.00    -0.616 OA 
HETATM   14  H   UNL     1     -10.268  12.323  64.588  1.00  0.00     0.000 HD 
HETATM   15  O   UNL     1     -13.400  14.279  65.608  1.00  0.00    -0.659 OA 
HETATM   16  H   UNL     1     -13.731  13.873  64.814  1.00  0.00     0.000 HD 
ENDBRANCH   2   4
TORSDOF 1
ENDMDL
MODEL        7
REMARK 921   NORMALIZED FREE ENERGY PREDICTED BY IDOCK:   -5.14 KCAL/MOL
REMARK 922        TOTAL FREE ENERGY PREDICTED BY IDOCK:   -5.67 KCAL/MOL
REMARK 923 INTER-LIGAND FREE ENERGY PREDICTED BY IDOCK:   -5.42 KCAL/MOL
REMARK 924 INTRA-LIGAND FREE ENERGY PREDICTED BY IDOCK:   -0.25 KCAL/MOL
REMARK 927      BINDING AFFINITY PREDICTED BY RF-SCORE:    0.00 PKD
ROOT
HETATM    1  O   UNL     1     -10.361  14.607  67.181  1.00  0.00    -0.261 OA 
HETATM    2  C   UNL     1      -9.600  14.158  66.059  1.00  0.00    -0.225 C  
HETATM    3  H   UNL     1      -9.856  14.564  67.985  1.00  0.00     0.000 HD 
ENDROOT
BRANCH   2   4
HETATM    4  C   UNL     1     -10.416  14.227  64.761  1.00  0.00    -0.395 C  
HETATM    5  O   UNL     1      -9.919  13.207  63.866  1.00  0.00    -0.270 OA 
HETATM    6  C   UNL     1     -10.368  11.935  63.966  1.00  0.00    -0.364 C  
HETATM    7  C   UNL     1     -11.856  11.742  64.218  1.00  0.00    -0.217 C  
HETATM    8  O   UNL     1      -9.644  10.986  63.667  1.00  0.00    -0.237 OA 
HETATM    9  O   UNL     1     -12.561  11.806  62.971  1.00  0.00    -0.900 OA 
HETATM   10  C   UNL     1     -12.455  12.753  65.192  1.00  0.00    -0.501 C  
HETATM   11  C   UNL     1     -11.938  14.175  64.945  1.00  0.00    -0.417 C  
HETATM   12  H   UNL     1     -13.490  11.685  63.129  1.00  0.00     0.000 HD 
HETATM   13  O   UNL     1     -12.281  12.347  66.552  1.00  0.00    -0.586 OA 
HETATM   14  H   UNL     1     -12.654  12.977  67.159  1.00  0.00     0.000 HD 
HETATM   15  O   UNL     1     -12.523  14.737  63.758  1.00  0.00    -1.045 OA 
HETATM   16  H   UNL     1     -13.466  14.704  63.872  1.00  0.00     0.000 HD 
ENDBRANCH   2   4
TORSDOF 1
ENDMDL
MODEL        8
REMARK 921   NORMALIZED FREE ENERGY PREDICTED BY IDOCK:   -5.07 KCAL/MOL
REMARK 922        TOTAL FREE ENERGY PREDICTED BY IDOCK:   -5.60 KCAL/MOL
REMARK 923 INTER-LIGAND FREE ENERGY PREDICTED BY IDOCK:   -5.55 KCAL/MOL
REMARK 924 INTRA-LIGAND FREE ENERGY PREDICTED BY IDOCK:   -0.05 KCAL/MOL
REMARK 927      BINDING AFFINITY PREDICTED BY RF-SCORE:    0.00 PKD
ROOT
HETATM    1  O   UNL     1     -13.211  12.756  64.920  1.00  0.00    -0.808 OA 
HETATM    2  C   UNL     1     -12.528  13.356  66.020  1.00  0.00    -0.369 C  
HETATM    3  H   UNL     1     -14.128  12.604  65.119  1.00  0.00     0.000 HD 
ENDROOT
BRANCH   2   4
HETATM    4  C   UNL     1     -11.047  13.601  65.699  1.00  0.00    -0.294 C  
HETATM    5  O   UNL     1     -10.979  14.527  64.591  1.00  0.00    -0.382 OA 
HETATM    6  C   UNL     1     -11.051  15.859  64.810  1.00  0.00    -0.384 C  
HETATM    7  C   UNL     1     -10.291  16.408  66.009  1.00  0.00    -0.352 C  
HETATM    8  O   UNL     1     -11.540  16.611  63.968  1.00  0.00    -1.197 OA 
HETATM    9  O   UNL     1      -8.922  16.625  65.644  1.00  0.00    -0.463 OA 
HETATM   10  C   UNL     1     -10.351  15.510  67.243  1.00  0.00    -0.267 C  
HETATM   11  C   UNL     1     -10.183  14.028  66.892  1.00  0.00    -0.260 C  
HETATM   12  H   UNL     1      -8.448  16.968  66.393  1.00  0.00     0.000 HD 
HETATM   13  O   UNL     1     -11.530  15.749  68.016  1.00  0.00    -0.338 OA 
HETATM   14  H   UNL     1     -11.567  15.191  68.784  1.00  0.00     0.000 HD 
HETATM   15  O   UNL     1      -8.819  13.731  66.550  1.00  0.00    -0.435 OA 
HETATM   16  H   UNL     1      -8.284  13.995  67.289  1.00  0.00     0.000 HD 
ENDBRANCH   2   4
TORSDOF 1
ENDMDL
MODEL        9
REMARK 921   NORMALIZED FREE ENERGY PREDICTED BY IDOCK:   -5.03 KCAL/MOL
REMARK 922        TOTAL FREE ENERGY PREDICTED BY IDOCK:   -5.56 KCAL/MOL
REMARK 923 INTER-LIGAND FREE ENERGY PREDICTED BY IDOCK:   -5.52 KCAL/MOL
REMARK 924 INTRA-LIGAND FREE ENERGY PREDICTED BY IDOCK:   -0.04 KCAL/MOL
REMARK 927      BINDING AFFINITY PREDICTED BY RF-SCORE:    0.00 PKD
ROOT
HETATM    1  O   UNL     1     -11.771  16.363  63.646  1.00  0.00    -1.520 OA 
HETATM    2  C   UNL     1     -11.714  15.190  64.458  1.00  0.00    -0.328 C  
HETATM    3  H   UNL     1     -12.613  16.449  63.215  1.00  0.00     0.000 HD 
ENDROOT
BRANCH   2   4
HETATM    4  C   UNL     1     -10.353  15.053  65.155  1.00  0.00    -0.392 C  
HETATM    5  O   UNL     1      -9.935  16.370  65.580  1.00  0.00    -0.518 OA 
HETATM    6  C   UNL     1     -10.375  16.881  66.752  1.00  0.00    -0.298 C  
HETATM    7  C   UNL     1     -10.438  15.934  67.942  1.00  0.00    -0.288 C  
HETATM    8  O   UNL     1     -10.524  18.094  66.894  1.00  0.00    -0.368 OA 
HETATM    9  O   UNL     1      -9.145  15.856  68.555  1.00  0.00    -0.186 OA 
HETATM   10  C   UNL     1     -10.918  14.528  67.589  1.00  0.00    -0.288 C  
HETATM   11  C   UNL     1     -10.301  14.015  66.283  1.00  0.00    -0.293 C  
HETATM   12  H   UNL     1      -9.185  15.265  69.298  1.00  0.00     0.000 HD 
HETATM   13  O   UNL     1     -12.345  14.441  67.580  1.00  0.00    -0.621 OA 
HETATM   14  H   UNL     1     -12.643  13.566  67.360  1.00  0.00     0.000 HD 
HETATM   15  O   UNL     1      -8.919  13.666  66.468  1.00  0.00    -0.419 OA 
HETATM   16  H   UNL     1      -8.886  13.022  67.167  1.00  0.00     0.000 HD 
ENDBRANCH   2   4
TORSDOF 1
ENDMDL
MODEL       10
REMARK 921   NORMALIZED FREE ENERGY PREDICTED BY IDOCK:   -5.03 KCAL/MOL
REMARK 922        TOTAL FREE ENERGY PREDICTED BY IDOCK:   -5.56 KCAL/MOL
REMARK 923 INTER-LIGAND FREE ENERGY PREDICTED BY IDOCK:   -5.35 KCAL/MOL
REMARK 924 INTRA-LIGAND FREE ENERGY PREDICTED BY IDOCK:   -0.20 KCAL/MOL
REMARK 927      BINDING AFFINITY PREDICTED BY RF-SCORE:    0.00 PKD
ROOT
HETATM    1  O   UNL     1     -10.538  12.058  68.501  1.00  0.00    -0.218 OA 
HETATM    2  C   UNL     1     -10.966  11.538  67.242  1.00  0.00    -0.271 C  
HETATM    3  H   UNL     1     -10.853  11.528  69.223  1.00  0.00     0.000 HD 
ENDROOT
BRANCH   2   4
HETATM    4  C   UNL     1     -10.456  12.394  66.075  1.00  0.00    -0.254 C  
HETATM    5  O   UNL     1     -11.249  12.077  64.909  1.00  0.00    -0.314 OA 
HETATM    6  C   UNL     1     -12.439  12.686  64.708  1.00  0.00    -0.484 C  
HETATM    7  C   UNL     1     -12.519  14.174  65.017  1.00  0.00    -0.419 C  
HETATM    8  O   UNL     1     -13.350  12.108  64.117  1.00  0.00    -0.750 OA 
HETATM    9  O   UNL     1     -12.040  14.919  63.889  1.00  0.00    -0.878 OA 
HETATM   10  C   UNL     1     -11.744  14.589  66.265  1.00  0.00    -0.358 C  
HETATM   11  C   UNL     1     -10.378  13.900  66.357  1.00  0.00    -0.289 C  
HETATM   12  H   UNL     1     -12.090  15.848  64.081  1.00  0.00     0.000 HD 
HETATM   13  O   UNL     1     -12.518  14.410  67.454  1.00  0.00    -0.603 OA 
HETATM   14  H   UNL     1     -12.035  14.669  68.231  1.00  0.00     0.000 HD 
HETATM   15  O   UNL     1      -9.454  14.457  65.408  1.00  0.00    -0.517 OA 
HETATM   16  H   UNL     1      -9.406  15.390  65.582  1.00  0.00     0.000 HD 
ENDBRANCH   2   4
TORSDOF 1
ENDMDL
MODEL       11
REMARK 921   NORMALIZED FREE ENERGY PREDICTED BY IDOCK:   -5.01 KCAL/MOL
REMARK 922        TOTAL FREE ENERGY PREDICTED BY IDOCK:   -5.54 KCAL/MOL
REMARK 923 INTER-LIGAND FREE ENERGY PREDICTED BY IDOCK:   -5.51 KCAL/MOL
REMARK 924 INTRA-LIGAND FREE ENERGY PREDICTED BY IDOCK:   -0.02 KCAL/MOL
REMARK 927      BINDING AFFINITY PREDICTED BY RF-SCORE:    0.00 PKD
ROOT
HETATM    1  O   UNL     1     -11.713  10.575  67.849  1.00  0.00    -0.714 OA 
HETATM    2  C   UNL     1     -11.124  11.709  67.212  1.00  0.00    -0.290 C  
HETATM    3  H   UNL     1     -11.094  10.133  68.418  1.00  0.00     0.000 HD 
ENDROOT
BRANCH   2   4
HETATM    4  C   UNL     1     -12.124  12.423  66.293  1.00  0.00    -0.180 C  
HETATM    5  O   UNL     1     -12.166  13.816  66.675  1.00  0.00    -0.426 OA 
HETATM    6  C   UNL     1     -11.250  14.684  66.190  1.00  0.00    -0.341 C  
HETATM    7  C   UNL     1     -10.871  14.547  64.723  1.00  0.00    -0.393 C  
HETATM    8  O   UNL     1     -10.893  15.659  66.851  1.00  0.00    -0.315 OA 
HETATM    9  O   UNL     1     -11.834  15.241  63.917  1.00  0.00    -0.876 OA 
HETATM   10  C   UNL     1     -10.758  13.101  64.246  1.00  0.00    -0.409 C  
HETATM   11  C   UNL     1     -11.887  12.220  64.791  1.00  0.00    -0.364 C  
HETATM   12  H   UNL     1     -11.597  15.155  63.001  1.00  0.00     0.000 HD 
HETATM   13  O   UNL     1      -9.467  12.551  64.519  1.00  0.00    -0.454 OA 
HETATM   14  H   UNL     1      -9.397  11.652  64.222  1.00  0.00     0.000 HD 
HETATM   15  O   UNL     1     -13.130  12.505  64.128  1.00  0.00    -0.751 OA 
HETATM   16  H   UNL     1     -12.984  12.379  63.197  1.00  0.00     0.000 HD 
ENDBRANCH   2   4
TORSDOF 1
ENDMDL
MODEL       12
REMARK 921   NORMALIZED FREE ENERGY PREDICTED BY IDOCK:   -4.97 KCAL/MOL
REMARK 922        TOTAL FREE ENERGY PREDICTED BY IDOCK:   -5.50 KCAL/MOL
REMARK 923 INTER-LIGAND FREE ENERGY PREDICTED BY IDOCK:   -5.25 KCAL/MOL
REMARK 924 INTRA-LIGAND FREE ENERGY PREDICTED BY IDOCK:   -0.25 KCAL/MOL
REMARK 927      BINDING AFFINITY PREDICTED BY RF-SCORE:    0.00 PKD
ROOT
HETATM    1  O   UNL     1     -12.425  14.024  63.115  1.00  0.00    -1.137 OA 
HETATM    2  C   UNL     1     -12.335  12.751  63.755  1.00  0.00    -0.446 C  
HETATM    3  H   UNL     1     -12.370  13.944  62.170  1.00  0.00     0.000 HD 
ENDROOT
BRANCH   2   4
HETATM    4  C   UNL     1     -12.425  12.881  65.282  1.00  0.00    -0.493 C  
HETATM    5  O   UNL     1     -11.775  11.729  65.866  1.00  0.00    -0.397 OA 
HETATM    6  C   UNL     1     -10.435  11.719  66.043  1.00  0.00    -0.246 C  
HETATM    7  C   UNL     1      -9.791  13.004  66.544  1.00  0.00    -0.263 C  
HETATM    8  O   UNL     1      -9.800  10.667  65.993  1.00  0.00    -0.208 OA 
HETATM    9  O   UNL     1      -9.897  13.062  67.973  1.00  0.00    -0.211 OA 
HETATM   10  C   UNL     1     -10.389  14.272  65.940  1.00  0.00    -0.314 C  
HETATM   11  C   UNL     1     -11.918  14.210  65.854  1.00  0.00    -0.409 C  
HETATM   12  H   UNL     1      -9.495  13.864  68.286  1.00  0.00     0.000 HD 
HETATM   13  O   UNL     1      -9.792  14.591  64.680  1.00  0.00    -0.534 OA 
HETATM   14  H   UNL     1     -10.164  15.381  64.304  1.00  0.00     0.000 HD 
HETATM   15  O   UNL     1     -12.513  14.362  67.153  1.00  0.00    -0.590 OA 
HETATM   16  H   UNL     1     -12.199  15.186  67.508  1.00  0.00     0.000 HD 
ENDBRANCH   2   4
TORSDOF 1
ENDMDL
MODEL       13
REMARK 921   NORMALIZED FREE ENERGY PREDICTED BY IDOCK:   -4.96 KCAL/MOL
REMARK 922        TOTAL FREE ENERGY PREDICTED BY IDOCK:   -5.48 KCAL/MOL
REMARK 923 INTER-LIGAND FREE ENERGY PREDICTED BY IDOCK:   -5.23 KCAL/MOL
REMARK 924 INTRA-LIGAND FREE ENERGY PREDICTED BY IDOCK:   -0.25 KCAL/MOL
REMARK 927      BINDING AFFINITY PREDICTED BY RF-SCORE:    0.00 PKD
ROOT
HETATM    1  O   UNL     1     -11.496  12.259  63.249  1.00  0.00    -0.639 OA 
HETATM    2  C   UNL     1     -12.427  12.533  64.295  1.00  0.00    -0.432 C  
HETATM    3  H   UNL     1     -11.431  11.328  63.074  1.00  0.00     0.000 HD 
ENDROOT
BRANCH   2   4
HETATM    4  C   UNL     1     -12.532  14.038  64.577  1.00  0.00    -0.308 C  
HETATM    5  O   UNL     1     -12.936  14.207  65.955  1.00  0.00    -0.357 OA 
HETATM    6  C   UNL     1     -12.013  14.184  66.944  1.00  0.00    -0.449 C  
HETATM    7  C   UNL     1     -10.698  14.904  66.683  1.00  0.00    -0.312 C  
HETATM    8  O   UNL     1     -12.303  13.774  68.067  1.00  0.00    -0.241 OA 
HETATM    9  O   UNL     1     -10.856  16.300  66.974  1.00  0.00    -0.283 OA 
HETATM   10  C   UNL     1     -10.174  14.739  65.259  1.00  0.00    -0.384 C  
HETATM   11  C   UNL     1     -11.287  14.857  64.213  1.00  0.00    -0.072 C  
HETATM   12  H   UNL     1     -10.035  16.750  66.812  1.00  0.00     0.000 HD 
HETATM   13  O   UNL     1      -9.420  13.534  65.108  1.00  0.00    -0.453 OA 
HETATM   14  H   UNL     1      -9.093  13.431  64.222  1.00  0.00     0.000 HD 
HETATM   15  O   UNL     1     -11.713  16.222  64.064  1.00  0.00    -1.298 OA 
HETATM   16  H   UNL     1     -10.942  16.730  63.838  1.00  0.00     0.000 HD 
ENDBRANCH   2   4
TORSDOF 1
ENDMDL
MODEL       14
REMARK 921   NORMALIZED FREE ENERGY PREDICTED BY IDOCK:   -4.87 KCAL/MOL
REMARK 922        TOTAL FREE ENERGY PREDICTED BY IDOCK:   -5.38 KCAL/MOL
REMARK 923 INTER-LIGAND FREE ENERGY PREDICTED BY IDOCK:   -5.13 KCAL/MOL
REMARK 924 INTRA-LIGAND FREE ENERGY PREDICTED BY IDOCK:   -0.25 KCAL/MOL
REMARK 927      BINDING AFFINITY PREDICTED BY RF-SCORE:    0.00 PKD
ROOT
HETATM    1  O   UNL     1     -12.515  14.006  62.974  1.00  0.00    -1.101 OA 
HETATM    2  C   UNL     1     -12.133  12.761  63.559  1.00  0.00    -0.559 C  
HETATM    3  H   UNL     1     -12.452  13.981  62.027  1.00  0.00     0.000 HD 
ENDROOT
BRANCH   2   4
HETATM    4  C   UNL     1     -12.235  12.802  65.090  1.00  0.00    -0.477 C  
HETATM    5  O   UNL     1     -11.236  11.907  65.628  1.00  0.00    -0.320 OA 
HETATM    6  C   UNL     1      -9.963  12.329  65.799  1.00  0.00    -0.254 C  
HETATM    7  C   UNL     1      -9.765  13.736  66.344  1.00  0.00    -0.294 C  
HETATM    8  O   UNL     1      -9.021  11.543  65.707  1.00  0.00    -0.195 OA 
HETATM    9  O   UNL     1      -9.861  13.708  67.775  1.00  0.00    -0.221 OA 
HETATM   10  C   UNL     1     -10.753  14.759  65.790  1.00  0.00    -0.326 C  
HETATM   11  C   UNL     1     -12.180  14.205  65.709  1.00  0.00    -0.442 C  
HETATM   12  H   UNL     1      -9.737  14.586  68.116  1.00  0.00     0.000 HD 
HETATM   13  O   UNL     1     -10.314  15.298  64.541  1.00  0.00    -0.463 OA 
HETATM   14  H   UNL     1     -10.929  15.935  64.195  1.00  0.00     0.000 HD 
HETATM   15  O   UNL     1     -12.771  14.110  67.015  1.00  0.00    -0.482 OA 
HETATM   16  H   UNL     1     -12.737  14.979  67.399  1.00  0.00     0.000 HD 
ENDBRANCH   2   4
TORSDOF 1
ENDMDL
MODEL       15
REMARK 921   NORMALIZED FREE ENERGY PREDICTED BY IDOCK:   -4.85 KCAL/MOL
REMARK 922        TOTAL FREE ENERGY PREDICTED BY IDOCK:   -5.37 KCAL/MOL
REMARK 923 INTER-LIGAND FREE ENERGY PREDICTED BY IDOCK:   -5.12 KCAL/MOL
REMARK 924 INTRA-LIGAND FREE ENERGY PREDICTED BY IDOCK:   -0.25 KCAL/MOL
REMARK 927      BINDING AFFINITY PREDICTED BY RF-SCORE:    0.00 PKD
ROOT
HETATM    1  O   UNL     1      -9.124  11.454  63.644  1.00  0.00    -0.418 OA 
HETATM    2  C   UNL     1      -9.759  11.097  64.872  1.00  0.00    -0.251 C  
HETATM    3  H   UNL     1      -8.184  11.326  63.686  1.00  0.00     0.000 HD 
ENDROOT
BRANCH   2   4
HETATM    4  C   UNL     1     -11.278  11.303  64.802  1.00  0.00    -0.058 C  
HETATM    5  O   UNL     1     -11.764  11.502  66.149  1.00  0.00    -0.346 OA 
HETATM    6  C   UNL     1     -11.721  12.729  66.715  1.00  0.00    -0.392 C  
HETATM    7  C   UNL     1     -12.095  13.913  65.836  1.00  0.00    -0.433 C  
HETATM    8  O   UNL     1     -11.582  12.857  67.931  1.00  0.00    -0.301 OA 
HETATM    9  O   UNL     1     -13.521  14.060  65.819  1.00  0.00    -0.669 OA 
HETATM   10  C   UNL     1     -11.579  13.806  64.402  1.00  0.00    -0.395 C  
HETATM   11  C   UNL     1     -11.744  12.394  63.830  1.00  0.00    -0.483 C  
HETATM   12  H   UNL     1     -13.754  14.800  65.270  1.00  0.00     0.000 HD 
HETATM   13  O   UNL     1     -10.236  14.280  64.285  1.00  0.00    -0.587 OA 
HETATM   14  H   UNL     1      -9.915  14.214  63.393  1.00  0.00     0.000 HD 
HETATM   15  O   UNL     1     -13.120  12.120  63.520  1.00  0.00    -0.785 OA 
HETATM   16  H   UNL     1     -13.409  12.796  62.918  1.00  0.00     0.000 HD 
ENDBRANCH   2   4
TORSDOF 1
ENDMDL
MODEL       16
REMARK 921   NORMALIZED FREE ENERGY PREDICTED BY IDOCK:   -4.79 KCAL/MOL
REMARK 922        TOTAL FREE ENERGY PREDICTED BY IDOCK:   -5.30 KCAL/MOL
REMARK 923 INTER-LIGAND FREE ENERGY PREDICTED BY IDOCK:   -5.08 KCAL/MOL
REMARK 924 INTRA-LIGAND FREE ENERGY PREDICTED BY IDOCK:   -0.22 KCAL/MOL
REMARK 927      BINDING AFFINITY PREDICTED BY RF-SCORE:    0.00 PKD
ROOT
HETATM    1  O   UNL     1     -11.460  14.623  68.817  1.00  0.00    -0.267 OA 
HETATM    2  C   UNL     1     -11.956  13.388  68.301  1.00  0.00    -0.317 C  
HETATM    3  H   UNL     1     -12.090  15.038  69.395  1.00  0.00     0.000 HD 
ENDROOT
BRANCH   2   4
HETATM    4  C   UNL     1     -10.939  12.718  67.368  1.00  0.00    -0.253 C  
HETATM    5  O   UNL     1     -11.670  12.073  66.300  1.00  0.00    -0.504 OA 
HETATM    6  C   UNL     1     -12.055  12.780  65.214  1.00  0.00    -0.457 C  
HETATM    7  C   UNL     1     -11.058  13.780  64.647  1.00  0.00    -0.388 C  
HETATM    8  O   UNL     1     -13.079  12.483  64.599  1.00  0.00    -0.845 OA 
HETATM    9  O   UNL     1     -10.144  13.098  63.777  1.00  0.00    -0.731 OA 
HETATM   10  C   UNL     1     -10.273  14.542  65.711  1.00  0.00    -0.335 C  
HETATM   11  C   UNL     1      -9.819  13.634  66.859  1.00  0.00    -0.261 C  
HETATM   12  H   UNL     1      -9.522  13.723  63.423  1.00  0.00     0.000 HD 
HETATM   13  O   UNL     1     -10.990  15.686  66.182  1.00  0.00    -0.298 OA 
HETATM   14  H   UNL     1     -10.501  16.160  66.844  1.00  0.00     0.000 HD 
HETATM   15  O   UNL     1      -8.736  12.784  66.447  1.00  0.00    -0.421 OA 
HETATM   16  H   UNL     1      -8.042  13.351  66.132  1.00  0.00     0.000 HD 
ENDBRANCH   2   4
TORSDOF 1
ENDMDL
MODEL       17
REMARK 921   NORMALIZED FREE ENERGY PREDICTED BY IDOCK:   -4.75 KCAL/MOL
REMARK 922        TOTAL FREE ENERGY PREDICTED BY IDOCK:   -5.26 KCAL/MOL
REMARK 923 INTER-LIGAND FREE ENERGY PREDICTED BY IDOCK:   -5.23 KCAL/MOL
REMARK 924 INTRA-LIGAND FREE ENERGY PREDICTED BY IDOCK:   -0.03 KCAL/MOL
REMARK 927      BINDING AFFINITY PREDICTED BY RF-SCORE:    0.00 PKD
ROOT
HETATM    1  O   UNL     1     -12.525  13.999  62.962  1.00  0.00    -1.101 OA 
HETATM    2  C   UNL     1     -12.176  14.152  64.338  1.00  0.00    -0.439 C  
HETATM    3  H   UNL     1     -12.454  14.821  62.491  1.00  0.00     0.000 HD 
ENDROOT
BRANCH   2   4
HETATM    4  C   UNL     1     -12.290  12.824  65.099  1.00  0.00    -0.496 C  
HETATM    5  O   UNL     1     -11.896  11.760  64.203  1.00  0.00    -0.327 OA 
HETATM    6  C   UNL     1     -10.590  11.448  64.049  1.00  0.00    -0.383 C  
HETATM    7  C   UNL     1      -9.726  11.434  65.302  1.00  0.00    -0.241 C  
HETATM    8  O   UNL     1     -10.170  11.003  62.981  1.00  0.00    -0.305 OA 
HETATM    9  O   UNL     1      -9.867  10.168  65.961  1.00  0.00    -0.215 OA 
HETATM   10  C   UNL     1     -10.046  12.557  66.286  1.00  0.00    -0.250 C  
HETATM   11  C   UNL     1     -11.554  12.778  66.444  1.00  0.00    -0.378 C  
HETATM   12  H   UNL     1      -9.328  10.160  66.743  1.00  0.00     0.000 HD 
HETATM   13  O   UNL     1      -9.357  13.765  65.954  1.00  0.00    -0.498 OA 
HETATM   14  H   UNL     1      -9.556  14.464  66.566  1.00  0.00     0.000 HD 
HETATM   15  O   UNL     1     -12.152  11.722  67.214  1.00  0.00    -0.595 OA 
HETATM   16  H   UNL     1     -11.696  11.694  68.047  1.00  0.00     0.000 HD 
ENDBRANCH   2   4
TORSDOF 1
ENDMDL
MODEL       18
REMARK 921   NORMALIZED FREE ENERGY PREDICTED BY IDOCK:   -4.71 KCAL/MOL
REMARK 922        TOTAL FREE ENERGY PREDICTED BY IDOCK:   -5.22 KCAL/MOL
REMARK 923 INTER-LIGAND FREE ENERGY PREDICTED BY IDOCK:   -5.18 KCAL/MOL
REMARK 924 INTRA-LIGAND FREE ENERGY PREDICTED BY IDOCK:   -0.04 KCAL/MOL
REMARK 927      BINDING AFFINITY PREDICTED BY RF-SCORE:    0.00 PKD
ROOT
HETATM    1  O   UNL     1     -11.004  11.121  62.832  1.00  0.00    -0.809 OA 
HETATM    2  C   UNL     1     -10.657  11.029  64.214  1.00  0.00    -0.331 C  
HETATM    3  H   UNL     1     -11.437  10.333  62.527  1.00  0.00     0.000 HD 
ENDROOT
BRANCH   2   4
HETATM    4  C   UNL     1      -9.957  12.303  64.706  1.00  0.00    -0.190 C  
HETATM    5  O   UNL     1     -10.597  13.436  64.076  1.00  0.00    -0.335 OA 
HETATM    6  C   UNL     1     -11.722  13.965  64.606  1.00  0.00    -0.397 C  
HETATM    7  C   UNL     1     -11.779  14.098  66.121  1.00  0.00    -0.393 C  
HETATM    8  O   UNL     1     -12.568  14.496  63.888  1.00  0.00    -0.827 OA 
HETATM    9  O   UNL     1     -11.121  15.308  66.517  1.00  0.00    -0.325 OA 
HETATM   10  C   UNL     1     -11.164  12.917  66.869  1.00  0.00    -0.291 C  
HETATM   11  C   UNL     1      -9.855  12.443  66.230  1.00  0.00    -0.247 C  
HETATM   12  H   UNL     1     -11.157  15.391  67.463  1.00  0.00     0.000 HD 
HETATM   13  O   UNL     1     -12.099  11.848  67.034  1.00  0.00    -0.600 OA 
HETATM   14  H   UNL     1     -11.717  11.114  67.500  1.00  0.00     0.000 HD 
HETATM   15  O   UNL     1      -8.787  13.368  66.495  1.00  0.00    -0.434 OA 
HETATM   16  H   UNL     1      -8.723  13.456  67.439  1.00  0.00     0.000 HD 
ENDBRANCH   2   4
TORSDOF 1
ENDMDL
MODEL       19
REMARK 921   NORMALIZED FREE ENERGY PREDICTED BY IDOCK:   -4.70 KCAL/MOL
REMARK 922        TOTAL FREE ENERGY PREDICTED BY IDOCK:   -5.21 KCAL/MOL
REMARK 923 INTER-LIGAND FREE ENERGY PREDICTED BY IDOCK:   -4.99 KCAL/MOL
REMARK 924 INTRA-LIGAND FREE ENERGY PREDICTED BY IDOCK:   -0.23 KCAL/MOL
REMARK 927      BINDING AFFINITY PREDICTED BY RF-SCORE:    0.00 PKD
ROOT
HETATM    1  O   UNL     1     -10.262  14.986  68.228  1.00  0.00    -0.217 OA 
HETATM    2  C   UNL     1     -11.509  15.219  67.574  1.00  0.00    -0.265 C  
HETATM    3  H   UNL     1      -9.875  15.795  68.542  1.00  0.00     0.000 HD 
ENDROOT
BRANCH   2   4
HETATM    4  C   UNL     1     -12.133  13.912  67.067  1.00  0.00    -0.415 C  
HETATM    5  O   UNL     1     -12.804  14.193  65.818  1.00  0.00    -0.502 OA 
HETATM    6  C   UNL     1     -12.110  14.198  64.657  1.00  0.00    -0.452 C  
HETATM    7  C   UNL     1     -11.067  13.107  64.466  1.00  0.00    -0.356 C  
HETATM    8  O   UNL     1     -12.448  14.927  63.725  1.00  0.00    -0.768 OA 
HETATM    9  O   UNL     1     -11.707  11.918  63.983  1.00  0.00    -0.384 OA 
HETATM   10  C   UNL     1     -10.277  12.779  65.731  1.00  0.00    -0.289 C  
HETATM   11  C   UNL     1     -11.168  12.722  66.976  1.00  0.00    -0.292 C  
HETATM   12  H   UNL     1     -11.056  11.236  63.864  1.00  0.00     0.000 HD 
HETATM   13  O   UNL     1      -9.165  13.661  65.905  1.00  0.00    -0.489 OA 
HETATM   14  H   UNL     1      -8.673  13.457  66.692  1.00  0.00     0.000 HD 
HETATM   15  O   UNL     1     -11.971  11.530  66.981  1.00  0.00    -0.556 OA 
HETATM   16  H   UNL     1     -11.374  10.793  66.924  1.00  0.00     0.000 HD 
ENDBRANCH   2   4
TORSDOF 1
ENDMDL
MODEL       20
REMARK 921   NORMALIZED FREE ENERGY PREDICTED BY IDOCK:   -4.63 KCAL/MOL
REMARK 922        TOTAL FREE ENERGY PREDICTED BY IDOCK:   -5.14 KCAL/MOL
REMARK 923 INTER-LIGAND FREE ENERGY PREDICTED BY IDOCK:   -4.88 KCAL/MOL
REMARK 924 INTRA-LIGAND FREE ENERGY PREDICTED BY IDOCK:   -0.25 KCAL/MOL
REMARK 927      BINDING AFFINITY PREDICTED BY RF-SCORE:    0.00 PKD
ROOT
HETATM    1  O   UNL     1      -9.344  12.775  67.847  1.00  0.00    -0.193 OA 
HETATM    2  C   UNL     1     -10.758  12.601  67.747  1.00  0.00    -0.220 C  
HETATM    3  H   UNL     1      -9.104  13.229  68.646  1.00  0.00     0.000 HD 
ENDROOT
BRANCH   2   4
HETATM    4  C   UNL     1     -11.145  11.867  66.456  1.00  0.00    -0.306 C  
HETATM    5  O   UNL     1     -12.461  12.318  66.063  1.00  0.00    -0.503 OA 
HETATM    6  C   UNL     1     -12.606  13.454  65.345  1.00  0.00    -0.475 C  
HETATM    7  C   UNL     1     -11.603  13.702  64.227  1.00  0.00    -0.382 C  
HETATM    8  O   UNL     1     -13.615  14.149  65.461  1.00  0.00    -0.568 OA 
HETATM    9  O   UNL     1     -12.024  13.001  63.049  1.00  0.00    -0.827 OA 
HETATM   10  C   UNL     1     -10.174  13.295  64.577  1.00  0.00    -0.310 C  
HETATM   11  C   UNL     1     -10.116  11.957  65.321  1.00  0.00    -0.257 C  
HETATM   12  H   UNL     1     -11.398  13.156  62.351  1.00  0.00     0.000 HD 
HETATM   13  O   UNL     1      -9.484  14.332  65.279  1.00  0.00    -0.504 OA 
HETATM   14  H   UNL     1      -8.594  14.079  65.497  1.00  0.00     0.000 HD 
HETATM   15  O   UNL     1     -10.377  10.860  64.431  1.00  0.00    -0.337 OA 
HETATM   16  H   UNL     1      -9.740  10.915  63.728  1.00  0.00     0.000 HD 
ENDBRANCH   2   4
TORSDOF 1
ENDMDL
MODEL       21
REMARK 921   NORMALIZED FREE ENERGY PREDICTED BY IDOCK:   -4.58 KCAL/MOL
REMARK 922        TOTAL FREE ENERGY PREDICTED BY IDOCK:   -5.09 KCAL/MOL
REMARK 923 INTER-LIGAND FREE ENERGY PREDICTED BY IDOCK:   -4.84 KCAL/MOL
REMARK 924 INTRA-LIGAND FREE ENERGY PREDICTED BY IDOCK:   -0.25 KCAL/MOL
REMARK 927      BINDING AFFINITY PREDICTED BY RF-SCORE:    0.00 PKD
ROOT
HETATM    1  O   UNL     1     -13.078  12.548  64.855  1.00  0.00    -0.833 OA 
HETATM    2  C   UNL     1     -12.780  13.860  65.331  1.00  0.00    -0.490 C  
HETATM    3  H   UNL     1     -14.000  12.454  64.644  1.00  0.00     0.000 HD 
ENDROOT
BRANCH   2   4
HETATM    4  C   UNL     1     -11.291  14.012  65.670  1.00  0.00    -0.313 C  
HETATM    5  O   UNL     1     -11.161  15.074  66.642  1.00  0.00    -0.327 OA 
HETATM    6  C   UNL     1     -11.336  14.819  67.958  1.00  0.00    -0.316 C  
HETATM    7  C   UNL     1     -10.741  13.527  68.501  1.00  0.00    -0.255 C  
HETATM    8  O   UNL     1     -11.777  15.684  68.714  1.00  0.00    -0.363 OA 
HETATM    9  O   UNL     1      -9.356  13.735  68.808  1.00  0.00    -0.369 OA 
HETATM   10  C   UNL     1     -10.878  12.338  67.553  1.00  0.00    -0.234 C  
HETATM   11  C   UNL     1     -10.585  12.718  66.098  1.00  0.00    -0.266 C  
HETATM   12  H   UNL     1      -8.985  12.928  69.147  1.00  0.00     0.000 HD 
HETATM   13  O   UNL     1     -12.144  11.689  67.695  1.00  0.00    -0.615 OA 
HETATM   14  H   UNL     1     -12.229  10.949  67.105  1.00  0.00     0.000 HD 
HETATM   15  O   UNL     1      -9.178  12.921  65.891  1.00  0.00    -0.454 OA 
HETATM   16  H   UNL     1      -8.740  12.120  66.155  1.00  0.00     0.000 HD 
ENDBRANCH   2   4
TORSDOF 1
ENDMDL
MODEL       22
REMARK 921   NORMALIZED FREE ENERGY PREDICTED BY IDOCK:   -4.49 KCAL/MOL
REMARK 922        TOTAL FREE ENERGY PREDICTED BY IDOCK:   -4.98 KCAL/MOL
REMARK 923 INTER-LIGAND FREE ENERGY PREDICTED BY IDOCK:   -4.94 KCAL/MOL
REMARK 924 INTRA-LIGAND FREE ENERGY PREDICTED BY IDOCK:   -0.04 KCAL/MOL
REMARK 927      BINDING AFFINITY PREDICTED BY RF-SCORE:    0.00 PKD
ROOT
HETATM    1  O   UNL     1      -9.030   9.257  69.979  1.00  0.00    -0.163 OA 
HETATM    2  C   UNL     1     -10.116   8.368  70.242  1.00  0.00    -0.189 C  
HETATM    3  H   UNL     1      -8.725   9.179  69.082  1.00  0.00     0.000 HD 
ENDROOT
BRANCH   2   4
HETATM    4  C   UNL     1     -10.608   8.494  71.690  1.00  0.00    -0.283 C  
HETATM    5  O   UNL     1     -11.279   9.768  71.824  1.00  0.00    -0.260 OA 
HETATM    6  C   UNL     1     -12.579   9.894  71.474  1.00  0.00    -0.416 C  
HETATM    7  C   UNL     1     -13.515   8.757  71.857  1.00  0.00    -0.404 C  
HETATM    8  O   UNL     1     -13.015  10.962  71.047  1.00  0.00    -0.353 OA 
HETATM    9  O   UNL     1     -13.948   8.936  73.212  1.00  0.00    -1.203 OA 
HETATM   10  C   UNL     1     -12.899   7.369  71.700  1.00  0.00    -0.367 C  
HETATM   11  C   UNL     1     -11.451   7.316  72.196  1.00  0.00    -0.273 C  
HETATM   12  H   UNL     1     -14.533   8.226  73.452  1.00  0.00     0.000 HD 
HETATM   13  O   UNL     1     -13.028   6.880  70.362  1.00  0.00    -0.464 OA 
HETATM   14  H   UNL     1     -12.645   6.016  70.264  1.00  0.00     0.000 HD 
HETATM   15  O   UNL     1     -11.396   7.348  73.632  1.00  0.00    -0.564 OA 
HETATM   16  H   UNL     1     -11.918   6.619  73.946  1.00  0.00     0.000 HD 
ENDBRANCH   2   4
TORSDOF 1
ENDMDL
MODEL       23
REMARK 921   NORMALIZED FREE ENERGY PREDICTED BY IDOCK:   -4.48 KCAL/MOL
REMARK 922        TOTAL FREE ENERGY PREDICTED BY IDOCK:   -4.97 KCAL/MOL
REMARK 923 INTER-LIGAND FREE ENERGY PREDICTED BY IDOCK:   -5.15 KCAL/MOL
REMARK 924 INTRA-LIGAND FREE ENERGY PREDICTED BY IDOCK:    0.17 KCAL/MOL
REMARK 927      BINDING AFFINITY PREDICTED BY RF-SCORE:    0.00 PKD
ROOT
HETATM    1  O   UNL     1      -9.900  13.408  68.064  1.00  0.00    -0.216 OA 
HETATM    2  C   UNL     1     -11.011  12.526  67.903  1.00  0.00    -0.227 C  
HETATM    3  H   UNL     1      -9.253  13.049  68.660  1.00  0.00     0.000 HD 
ENDROOT
BRANCH   2   4
HETATM    4  C   UNL     1     -12.056  13.107  66.941  1.00  0.00    -0.316 C  
HETATM    5  O   UNL     1     -11.975  14.548  67.011  1.00  0.00    -0.404 OA 
HETATM    6  C   UNL     1     -11.063  15.216  66.269  1.00  0.00    -0.309 C  
HETATM    7  C   UNL     1     -10.848  14.740  64.839  1.00  0.00    -0.416 C  
HETATM    8  O   UNL     1     -10.582  16.277  66.666  1.00  0.00    -0.304 OA 
HETATM    9  O   UNL     1     -11.845  15.323  63.990  1.00  0.00    -0.841 OA 
HETATM   10  C   UNL     1     -10.872  13.222  64.683  1.00  0.00    -0.382 C  
HETATM   11  C   UNL     1     -11.990  12.571  65.505  1.00  0.00    -0.442 C  
HETATM   12  H   UNL     1     -11.711  15.026  63.097  1.00  0.00     0.000 HD 
HETATM   13  O   UNL     1      -9.595  12.640  64.955  1.00  0.00    -0.482 OA 
HETATM   14  H   UNL     1      -9.611  11.695  64.857  1.00  0.00     0.000 HD 
HETATM   15  O   UNL     1     -13.275  12.809  64.909  1.00  0.00    -0.808 OA 
HETATM   16  H   UNL     1     -13.234  12.478  64.019  1.00  0.00     0.000 HD 
ENDBRANCH   2   4
TORSDOF 1
ENDMDL
MODEL       24
REMARK 921   NORMALIZED FREE ENERGY PREDICTED BY IDOCK:   -4.47 KCAL/MOL
REMARK 922        TOTAL FREE ENERGY PREDICTED BY IDOCK:   -4.97 KCAL/MOL
REMARK 923 INTER-LIGAND FREE ENERGY PREDICTED BY IDOCK:   -4.93 KCAL/MOL
REMARK 924 INTRA-LIGAND FREE ENERGY PREDICTED BY IDOCK:   -0.03 KCAL/MOL
REMARK 927      BINDING AFFINITY PREDICTED BY RF-SCORE:    0.00 PKD
ROOT
HETATM    1  O   UNL     1     -10.968  11.082  63.028  1.00  0.00    -0.798 OA 
HETATM    2  C   UNL     1     -10.553  12.262  63.716  1.00  0.00    -0.451 C  
HETATM    3  H   UNL     1     -10.976  11.210  62.087  1.00  0.00     0.000 HD 
ENDROOT
BRANCH   2   4
HETATM    4  C   UNL     1     -10.541  12.054  65.236  1.00  0.00    -0.287 C  
HETATM    5  O   UNL     1      -9.557  12.950  65.801  1.00  0.00    -0.196 OA 
HETATM    6  C   UNL     1      -9.882  14.233  66.077  1.00  0.00    -0.314 C  
HETATM    7  C   UNL     1     -11.249  14.485  66.697  1.00  0.00    -0.346 C  
HETATM    8  O   UNL     1      -9.037  15.125  66.015  1.00  0.00    -0.289 OA 
HETATM    9  O   UNL     1     -11.170  14.286  68.115  1.00  0.00    -0.255 OA 
HETATM   10  C   UNL     1     -12.360  13.610  66.123  1.00  0.00    -0.426 C  
HETATM   11  C   UNL     1     -11.910  12.159  65.920  1.00  0.00    -0.272 C  
HETATM   12  H   UNL     1     -12.023  14.444  68.502  1.00  0.00     0.000 HD 
HETATM   13  O   UNL     1     -12.916  14.172  64.931  1.00  0.00    -0.705 OA 
HETATM   14  H   UNL     1     -13.607  13.627  64.574  1.00  0.00     0.000 HD 
HETATM   15  O   UNL     1     -11.805  11.471  67.177  1.00  0.00    -0.595 OA 
HETATM   16  H   UNL     1     -12.653  11.536  67.601  1.00  0.00     0.000 HD 
ENDBRANCH   2   4
TORSDOF 1
ENDMDL
MODEL       25
REMARK 921   NORMALIZED FREE ENERGY PREDICTED BY IDOCK:   -4.44 KCAL/MOL
REMARK 922        TOTAL FREE ENERGY PREDICTED BY IDOCK:   -4.93 KCAL/MOL
REMARK 923 INTER-LIGAND FREE ENERGY PREDICTED BY IDOCK:   -4.70 KCAL/MOL
REMARK 924 INTRA-LIGAND FREE ENERGY PREDICTED BY IDOCK:   -0.23 KCAL/MOL
REMARK 927      BINDING AFFINITY PREDICTED BY RF-SCORE:    0.00 PKD
ROOT
HETATM    1  O   UNL     1     -12.545  14.223  63.646  1.00  0.00    -0.988 OA 
HETATM    2  C   UNL     1     -12.824  13.986  65.025  1.00  0.00    -0.258 C  
HETATM    3  H   UNL     1     -13.327  14.140  63.112  1.00  0.00     0.000 HD 
ENDROOT
BRANCH   2   4
HETATM    4  C   UNL     1     -11.561  14.121  65.887  1.00  0.00    -0.348 C  
HETATM    5  O   UNL     1     -11.789  13.413  67.127  1.00  0.00    -0.355 OA 
HETATM    6  C   UNL     1     -11.578  12.079  67.199  1.00  0.00    -0.316 C  
HETATM    7  C   UNL     1     -10.346  11.531  66.493  1.00  0.00    -0.232 C  
HETATM    8  O   UNL     1     -12.238  11.377  67.964  1.00  0.00    -0.607 OA 
HETATM    9  O   UNL     1      -9.205  11.675  67.349  1.00  0.00    -0.164 OA 
HETATM   10  C   UNL     1     -10.058  12.194  65.148  1.00  0.00    -0.261 C  
HETATM   11  C   UNL     1     -10.254  13.713  65.195  1.00  0.00    -0.328 C  
HETATM   12  H   UNL     1      -8.436  11.333  66.908  1.00  0.00     0.000 HD 
HETATM   13  O   UNL     1     -10.803  11.589  64.088  1.00  0.00    -0.331 OA 
HETATM   14  H   UNL     1     -10.624  12.002  63.251  1.00  0.00     0.000 HD 
HETATM   15  O   UNL     1      -9.184  14.349  65.914  1.00  0.00    -0.514 OA 
HETATM   16  H   UNL     1      -8.373  14.097  65.485  1.00  0.00     0.000 HD 
ENDBRANCH   2   4
TORSDOF 1
ENDMDL
MODEL       26
REMARK 921   NORMALIZED FREE ENERGY PREDICTED BY IDOCK:   -4.37 KCAL/MOL
REMARK 922        TOTAL FREE ENERGY PREDICTED BY IDOCK:   -4.86 KCAL/MOL
REMARK 923 INTER-LIGAND FREE ENERGY PREDICTED BY IDOCK:   -5.06 KCAL/MOL
REMARK 924 INTRA-LIGAND FREE ENERGY PREDICTED BY IDOCK:    0.21 KCAL/MOL
REMARK 927      BINDING AFFINITY PREDICTED BY RF-SCORE:    0.00 PKD
ROOT
HETATM    1  O   UNL     1     -11.949  11.551  67.622  1.00  0.00    -0.630 OA 
HETATM    2  C   UNL     1     -11.958  12.917  67.206  1.00  0.00    -0.309 C  
HETATM    3  H   UNL     1     -12.631  11.376  68.259  1.00  0.00     0.000 HD 
ENDROOT
BRANCH   2   4
HETATM    4  C   UNL     1     -10.855  13.200  66.177  1.00  0.00    -0.279 C  
HETATM    5  O   UNL     1     -10.074  11.993  66.017  1.00  0.00    -0.219 OA 
HETATM    6  C   UNL     1     -10.483  11.024  65.168  1.00  0.00    -0.262 C  
HETATM    7  C   UNL     1     -11.054  11.470  63.829  1.00  0.00    -0.390 C  
HETATM    8  O   UNL     1     -10.220   9.842  65.386  1.00  0.00    -0.273 OA 
HETATM    9  O   UNL     1      -9.979  11.708  62.910  1.00  0.00    -0.577 OA 
HETATM   10  C   UNL     1     -11.933  12.715  63.915  1.00  0.00    -0.479 C  
HETATM   11  C   UNL     1     -11.341  13.781  64.844  1.00  0.00    -0.347 C  
HETATM   12  H   UNL     1     -10.336  11.985  62.074  1.00  0.00     0.000 HD 
HETATM   13  O   UNL     1     -13.281  12.390  64.261  1.00  0.00    -0.769 OA 
HETATM   14  H   UNL     1     -13.828  13.165  64.314  1.00  0.00     0.000 HD 
HETATM   15  O   UNL     1     -10.213  14.429  64.233  1.00  0.00    -0.530 OA 
HETATM   16  H   UNL     1     -10.514  14.789  63.406  1.00  0.00     0.000 HD 
ENDBRANCH   2   4
TORSDOF 1
ENDMDL
MODEL       27
REMARK 921   NORMALIZED FREE ENERGY PREDICTED BY IDOCK:   -4.34 KCAL/MOL
REMARK 922        TOTAL FREE ENERGY PREDICTED BY IDOCK:   -4.83 KCAL/MOL
REMARK 923 INTER-LIGAND FREE ENERGY PREDICTED BY IDOCK:   -4.63 KCAL/MOL
REMARK 924 INTRA-LIGAND FREE ENERGY PREDICTED BY IDOCK:   -0.20 KCAL/MOL
REMARK 927      BINDING AFFINITY PREDICTED BY RF-SCORE:    0.00 PKD
ROOT
HETATM    1  O   UNL     1      -8.612  12.652  66.880  1.00  0.00    -0.254 OA 
HETATM    2  C   UNL     1      -9.139  13.924  67.257  1.00  0.00    -0.228 C  
HETATM    3  H   UNL     1      -7.675  12.605  67.023  1.00  0.00     0.000 HD 
ENDROOT
BRANCH   2   4
HETATM    4  C   UNL     1     -10.654  13.998  67.025  1.00  0.00    -0.279 C  
HETATM    5  O   UNL     1     -10.967  15.321  66.534  1.00  0.00    -0.315 OA 
HETATM    6  C   UNL     1     -10.849  15.605  65.217  1.00  0.00    -0.406 C  
HETATM    7  C   UNL     1     -11.327  14.546  64.233  1.00  0.00    -0.119 C  
HETATM    8  O   UNL     1     -10.558  16.739  64.840  1.00  0.00    -0.702 OA 
HETATM    9  O   UNL     1     -12.743  14.673  64.051  1.00  0.00    -0.772 OA 
HETATM   10  C   UNL     1     -10.995  13.117  64.654  1.00  0.00    -0.356 C  
HETATM   11  C   UNL     1     -11.235  12.880  66.149  1.00  0.00    -0.292 C  
HETATM   12  H   UNL     1     -13.041  14.012  63.436  1.00  0.00     0.000 HD 
HETATM   13  O   UNL     1      -9.675  12.739  64.255  1.00  0.00    -0.578 OA 
HETATM   14  H   UNL     1      -9.469  11.849  64.516  1.00  0.00     0.000 HD 
HETATM   15  O   UNL     1     -12.640  12.806  66.440  1.00  0.00    -0.326 OA 
HETATM   16  H   UNL     1     -13.000  12.114  65.898  1.00  0.00     0.000 HD 
ENDBRANCH   2   4
TORSDOF 1
ENDMDL
MODEL       28
REMARK 921   NORMALIZED FREE ENERGY PREDICTED BY IDOCK:   -4.29 KCAL/MOL
REMARK 922        TOTAL FREE ENERGY PREDICTED BY IDOCK:   -4.77 KCAL/MOL
REMARK 923 INTER-LIGAND FREE ENERGY PREDICTED BY IDOCK:   -4.75 KCAL/MOL
REMARK 924 INTRA-LIGAND FREE ENERGY PREDICTED BY IDOCK:   -0.02 KCAL/MOL
REMARK 927      BINDING AFFINITY PREDICTED BY RF-SCORE:    0.00 PKD
ROOT
HETATM    1  O   UNL     1     -12.587  12.119  64.896  1.00  0.00    -0.500 OA 
HETATM    2  C   UNL     1     -11.583  12.952  65.475  1.00  0.00    -0.358 C  
HETATM    3  H   UNL     1     -12.359  11.199  64.962  1.00  0.00     0.000 HD 
ENDROOT
BRANCH   2   4
HETATM    4  C   UNL     1     -11.952  14.438  65.368  1.00  0.00    -0.369 C  
HETATM    5  O   UNL     1     -12.383  14.885  66.674  1.00  0.00    -0.038 OA 
HETATM    6  C   UNL     1     -11.474  15.277  67.594  1.00  0.00    -0.280 C  
HETATM    7  C   UNL     1     -10.306  16.120  67.103  1.00  0.00    -0.291 C  
HETATM    8  O   UNL     1     -11.690  15.128  68.797  1.00  0.00    -0.329 OA 
HETATM    9  O   UNL     1     -10.709  17.494  67.035  1.00  0.00    -0.276 OA 
HETATM   10  C   UNL     1      -9.757  15.684  65.746  1.00  0.00    -0.345 C  
HETATM   11  C   UNL     1     -10.871  15.336  64.753  1.00  0.00    -0.358 C  
HETATM   12  H   UNL     1      -9.980  18.021  66.728  1.00  0.00     0.000 HD 
HETATM   13  O   UNL     1      -8.802  14.629  65.875  1.00  0.00    -0.409 OA 
HETATM   14  H   UNL     1      -8.460  14.358  65.031  1.00  0.00     0.000 HD 
HETATM   15  O   UNL     1     -11.530  16.522  64.280  1.00  0.00    -1.197 OA 
HETATM   16  H   UNL     1     -10.861  17.078  63.899  1.00  0.00     0.000 HD 
ENDBRANCH   2   4
TORSDOF 1
ENDMDL
MODEL       29
REMARK 921   NORMALIZED FREE ENERGY PREDICTED BY IDOCK:   -4.28 KCAL/MOL
REMARK 922        TOTAL FREE ENERGY PREDICTED BY IDOCK:   -4.76 KCAL/MOL
REMARK 923 INTER-LIGAND FREE ENERGY PREDICTED BY IDOCK:   -4.51 KCAL/MOL
REMARK 924 INTRA-LIGAND FREE ENERGY PREDICTED BY IDOCK:   -0.25 KCAL/MOL
REMARK 927      BINDING AFFINITY PREDICTED BY RF-SCORE:    0.00 PKD
ROOT
HETATM    1  O   UNL     1      -8.445  16.011  69.012  1.00  0.00    -0.218 OA 
HETATM    2  C   UNL     1      -8.464  16.229  67.601  1.00  0.00    -0.168 C  
HETATM    3  H   UNL     1      -8.696  15.121  69.231  1.00  0.00     0.000 HD 
ENDROOT
BRANCH   2   4
HETATM    4  C   UNL     1      -8.059  17.666  67.247  1.00  0.00    -0.209 C  
HETATM    5  O   UNL     1      -8.764  18.045  66.043  1.00  0.00    -0.498 OA 
HETATM    6  C   UNL     1     -10.027  18.522  66.114  1.00  0.00    -0.322 C  
HETATM    7  C   UNL     1     -10.340  19.495  67.242  1.00  0.00    -0.447 C  
HETATM    8  O   UNL     1     -10.825  18.333  65.196  1.00  0.00    -0.656 OA 
HETATM    9  O   UNL     1      -9.950  20.817  66.848  1.00  0.00    -0.557 OA 
HETATM   10  C   UNL     1      -9.670  19.142  68.567  1.00  0.00    -0.406 C  
HETATM   11  C   UNL     1      -8.219  18.686  68.382  1.00  0.00    -0.334 C  
HETATM   12  H   UNL     1     -10.145  21.425  67.552  1.00  0.00     0.000 HD 
HETATM   13  O   UNL     1     -10.439  18.196  69.315  1.00  0.00    -0.423 OA 
HETATM   14  H   UNL     1     -10.022  17.976  70.140  1.00  0.00     0.000 HD 
HETATM   15  O   UNL     1      -7.365  19.799  68.068  1.00  0.00    -0.274 OA 
HETATM   16  H   UNL     1      -7.463  20.431  68.771  1.00  0.00     0.000 HD 
ENDBRANCH   2   4
TORSDOF 1
ENDMDL
MODEL       30
REMARK 921   NORMALIZED FREE ENERGY PREDICTED BY IDOCK:   -4.26 KCAL/MOL
REMARK 922        TOTAL FREE ENERGY PREDICTED BY IDOCK:   -4.74 KCAL/MOL
REMARK 923 INTER-LIGAND FREE ENERGY PREDICTED BY IDOCK:   -4.72 KCAL/MOL
REMARK 924 INTRA-LIGAND FREE ENERGY PREDICTED BY IDOCK:   -0.02 KCAL/MOL
REMARK 927      BINDING AFFINITY PREDICTED BY RF-SCORE:    0.00 PKD
ROOT
HETATM    1  O   UNL     1     -12.582  15.655  69.106  1.00  0.00    -0.573 OA 
HETATM    2  C   UNL     1     -12.021  14.515  68.454  1.00  0.00    -0.274 C  
HETATM    3  H   UNL     1     -12.715  15.497  70.034  1.00  0.00     0.000 HD 
ENDROOT
BRANCH   2   4
HETATM    4  C   UNL     1     -11.807  14.772  66.957  1.00  0.00    -0.271 C  
HETATM    5  O   UNL     1     -10.383  14.867  66.720  1.00  0.00    -0.262 OA 
HETATM    6  C   UNL     1      -9.647  13.748  66.535  1.00  0.00    -0.285 C  
HETATM    7  C   UNL     1     -10.256  12.649  65.676  1.00  0.00    -0.273 C  
HETATM    8  O   UNL     1      -8.466  13.708  66.877  1.00  0.00    -0.164 OA 
HETATM    9  O   UNL     1     -10.015  12.939  64.293  1.00  0.00    -0.598 OA 
HETATM   10  C   UNL     1     -11.754  12.450  65.898  1.00  0.00    -0.419 C  
HETATM   11  C   UNL     1     -12.506  13.779  66.019  1.00  0.00    -0.445 C  
HETATM   12  H   UNL     1     -10.395  12.253  63.757  1.00  0.00     0.000 HD 
HETATM   13  O   UNL     1     -12.015  11.582  67.004  1.00  0.00    -0.556 OA 
HETATM   14  H   UNL     1     -12.946  11.458  67.143  1.00  0.00     0.000 HD 
HETATM   15  O   UNL     1     -12.623  14.423  64.739  1.00  0.00    -0.598 OA 
HETATM   16  H   UNL     1     -13.056  13.809  64.158  1.00  0.00     0.000 HD 
ENDBRANCH   2   4
TORSDOF 1
ENDMDL
MODEL       31
REMARK 921   NORMALIZED FREE ENERGY PREDICTED BY IDOCK:   -4.24 KCAL/MOL
REMARK 922        TOTAL FREE ENERGY PREDICTED BY IDOCK:   -4.72 KCAL/MOL
REMARK 923 INTER-LIGAND FREE ENERGY PREDICTED BY IDOCK:   -4.52 KCAL/MOL
REMARK 924 INTRA-LIGAND FREE ENERGY PREDICTED BY IDOCK:   -0.20 KCAL/MOL
REMARK 927      BINDING AFFINITY PREDICTED BY RF-SCORE:    0.00 PKD
ROOT
HETATM    1  O   UNL     1      -8.295  15.279  68.399  1.00  0.00    -0.140 OA 
HETATM    2  C   UNL     1      -9.038  16.218  67.621  1.00  0.00    -0.194 C  
HETATM    3  H   UNL     1      -7.369  15.493  68.414  1.00  0.00     0.000 HD 
ENDROOT
BRANCH   2   4
HETATM    4  C   UNL     1     -10.533  15.872  67.597  1.00  0.00    -0.289 C  
HETATM    5  O   UNL     1     -11.136  16.576  66.487  1.00  0.00    -0.006 OA 
HETATM    6  C   UNL     1     -11.093  16.051  65.242  1.00  0.00    -0.213 C  
HETATM    7  C   UNL     1     -11.328  14.553  65.112  1.00  0.00    -0.366 C  
HETATM    8  O   UNL     1     -11.066  16.780  64.252  1.00  0.00    -1.106 OA 
HETATM    9  O   UNL     1     -12.739  14.295  65.084  1.00  0.00    -0.596 OA 
HETATM   10  C   UNL     1     -10.683  13.727  66.221  1.00  0.00    -0.285 C  
HETATM   11  C   UNL     1     -10.854  14.372  67.601  1.00  0.00    -0.273 C  
HETATM   12  H   UNL     1     -12.886  13.360  65.002  1.00  0.00     0.000 HD 
HETATM   13  O   UNL     1      -9.315  13.428  65.933  1.00  0.00    -0.486 OA 
HETATM   14  H   UNL     1      -8.914  12.914  66.624  1.00  0.00     0.000 HD 
HETATM   15  O   UNL     1     -12.206  14.234  68.070  1.00  0.00    -0.562 OA 
HETATM   16  H   UNL     1     -12.406  13.305  68.073  1.00  0.00     0.000 HD 
ENDBRANCH   2   4
TORSDOF 1
ENDMDL
MODEL       32
REMARK 921   NORMALIZED FREE ENERGY PREDICTED BY IDOCK:   -4.20 KCAL/MOL
REMARK 922        TOTAL FREE ENERGY PREDICTED BY IDOCK:   -4.68 KCAL/MOL
REMARK 923 INTER-LIGAND FREE ENERGY PREDICTED BY IDOCK:   -4.43 KCAL/MOL
REMARK 924 INTRA-LIGAND FREE ENERGY PREDICTED BY IDOCK:   -0.25 KCAL/MOL
REMARK 927      BINDING AFFINITY PREDICTED BY RF-SCORE:    0.00 PKD
ROOT
HETATM    1  O   UNL     1      -9.363  13.220  65.826  1.00  0.00    -0.469 OA 
HETATM    2  C   UNL     1     -10.390  13.627  66.731  1.00  0.00    -0.268 C  
HETATM    3  H   UNL     1      -8.915  12.441  66.134  1.00  0.00     0.000 HD 
ENDROOT
BRANCH   2   4
HETATM    4  C   UNL     1     -11.113  14.885  66.234  1.00  0.00    -0.340 C  
HETATM    5  O   UNL     1     -11.636  15.584  67.387  1.00  0.00    -0.222 OA 
HETATM    6  C   UNL     1     -10.849  16.430  68.087  1.00  0.00    -0.346 C  
HETATM    7  C   UNL     1      -9.925  17.340  67.289  1.00  0.00    -0.283 C  
HETATM    8  O   UNL     1     -11.018  16.596  69.294  1.00  0.00    -0.311 OA 
HETATM    9  O   UNL     1     -10.653  18.499  66.863  1.00  0.00    -0.391 OA 
HETATM   10  C   UNL     1      -9.290  16.665  66.075  1.00  0.00    -0.235 C  
HETATM   11  C   UNL     1     -10.287  15.789  65.310  1.00  0.00    -0.357 C  
HETATM   12  H   UNL     1     -10.077  19.067  66.365  1.00  0.00     0.000 HD 
HETATM   13  O   UNL     1      -8.104  15.948  66.427  1.00  0.00    -0.265 OA 
HETATM   14  H   UNL     1      -7.709  15.529  65.672  1.00  0.00     0.000 HD 
HETATM   15  O   UNL     1     -11.219  16.595  64.569  1.00  0.00    -0.940 OA 
HETATM   16  H   UNL     1     -10.708  17.155  63.996  1.00  0.00     0.000 HD 
ENDBRANCH   2   4
TORSDOF 1
ENDMDL
MODEL       33
REMARK 921   NORMALIZED FREE ENERGY PREDICTED BY IDOCK:   -4.20 KCAL/MOL
REMARK 922        TOTAL FREE ENERGY PREDICTED BY IDOCK:   -4.68 KCAL/MOL
REMARK 923 INTER-LIGAND FREE ENERGY PREDICTED BY IDOCK:   -4.89 KCAL/MOL
REMARK 924 INTRA-LIGAND FREE ENERGY PREDICTED BY IDOCK:    0.21 KCAL/MOL
REMARK 927      BINDING AFFINITY PREDICTED BY RF-SCORE:    0.00 PKD
ROOT
HETATM    1  O   UNL     1     -10.189  16.840  65.343  1.00  0.00    -0.599 OA 
HETATM    2  C   UNL     1     -10.607  16.681  66.699  1.00  0.00    -0.203 C  
HETATM    3  H   UNL     1     -10.603  16.203  64.773  1.00  0.00     0.000 HD 
ENDROOT
BRANCH   2   4
HETATM    4  C   UNL     1      -9.937  17.709  67.620  1.00  0.00    -0.323 C  
HETATM    5  O   UNL     1      -8.542  17.796  67.251  1.00  0.00    -0.227 OA 
HETATM    6  C   UNL     1      -8.154  18.598  66.235  1.00  0.00    -0.244 C  
HETATM    7  C   UNL     1      -8.815  19.965  66.138  1.00  0.00    -0.306 C  
HETATM    8  O   UNL     1      -7.174  18.314  65.546  1.00  0.00    -0.536 OA 
HETATM    9  O   UNL     1      -8.140  20.882  67.010  1.00  0.00    -0.565 OA 
HETATM   10  C   UNL     1     -10.306  19.956  66.468  1.00  0.00    -0.488 C  
HETATM   11  C   UNL     1     -10.627  19.077  67.681  1.00  0.00    -0.441 C  
HETATM   12  H   UNL     1      -8.553  21.735  66.950  1.00  0.00     0.000 HD 
HETATM   13  O   UNL     1     -11.099  19.611  65.329  1.00  0.00    -0.409 OA 
HETATM   14  H   UNL     1     -12.026  19.606  65.534  1.00  0.00     0.000 HD 
HETATM   15  O   UNL     1     -10.203  19.707  68.901  1.00  0.00    -0.549 OA 
HETATM   16  H   UNL     1     -10.630  20.555  68.939  1.00  0.00     0.000 HD 
ENDBRANCH   2   4
TORSDOF 1
ENDMDL
MODEL       34
REMARK 921   NORMALIZED FREE ENERGY PREDICTED BY IDOCK:   -4.18 KCAL/MOL
REMARK 922        TOTAL FREE ENERGY PREDICTED BY IDOCK:   -4.66 KCAL/MOL
REMARK 923 INTER-LIGAND FREE ENERGY PREDICTED BY IDOCK:   -4.60 KCAL/MOL
REMARK 924 INTRA-LIGAND FREE ENERGY PREDICTED BY IDOCK:   -0.05 KCAL/MOL
REMARK 927      BINDING AFFINITY PREDICTED BY RF-SCORE:    0.00 PKD
ROOT
HETATM    1  O   UNL     1     -14.007   8.895  73.250  1.00  0.00    -1.203 OA 
HETATM    2  C   UNL     1     -13.455   8.640  71.958  1.00  0.00    -0.403 C  
HETATM    3  H   UNL     1     -14.923   8.648  73.294  1.00  0.00     0.000 HD 
ENDROOT
BRANCH   2   4
HETATM    4  C   UNL     1     -11.975   9.039  71.888  1.00  0.00    -0.375 C  
HETATM    5  O   UNL     1     -11.271   8.327  72.931  1.00  0.00    -0.337 OA 
HETATM    6  C   UNL     1     -10.840   7.063  72.723  1.00  0.00    -0.288 C  
HETATM    7  C   UNL     1     -10.230   6.753  71.363  1.00  0.00    -0.198 C  
HETATM    8  O   UNL     1     -10.761   6.262  73.653  1.00  0.00    -0.267 OA 
HETATM    9  O   UNL     1      -8.849   7.137  71.364  1.00  0.00    -0.131 OA 
HETATM   10  C   UNL     1     -10.944   7.430  70.196  1.00  0.00    -0.255 C  
HETATM   11  C   UNL     1     -11.322   8.882  70.509  1.00  0.00    -0.234 C  
HETATM   12  H   UNL     1      -8.468   6.943  70.515  1.00  0.00     0.000 HD 
HETATM   13  O   UNL     1     -12.067   6.667  69.747  1.00  0.00    -0.638 OA 
HETATM   14  H   UNL     1     -12.512   7.088  69.021  1.00  0.00     0.000 HD 
HETATM   15  O   UNL     1     -10.163   9.731  70.495  1.00  0.00    -0.274 OA 
HETATM   16  H   UNL     1      -9.758   9.633  69.640  1.00  0.00     0.000 HD 
ENDBRANCH   2   4
TORSDOF 1
ENDMDL
MODEL       35
REMARK 921   NORMALIZED FREE ENERGY PREDICTED BY IDOCK:   -4.12 KCAL/MOL
REMARK 922        TOTAL FREE ENERGY PREDICTED BY IDOCK:   -4.59 KCAL/MOL
REMARK 923 INTER-LIGAND FREE ENERGY PREDICTED BY IDOCK:   -4.36 KCAL/MOL
REMARK 924 INTRA-LIGAND FREE ENERGY PREDICTED BY IDOCK:   -0.24 KCAL/MOL
REMARK 927      BINDING AFFINITY PREDICTED BY RF-SCORE:    0.00 PKD
ROOT
HETATM    1  O   UNL     1      -9.771  16.993  65.756  1.00  0.00    -0.522 OA 
HETATM    2  C   UNL     1      -9.464  17.204  67.135  1.00  0.00    -0.248 C  
HETATM    3  H   UNL     1      -9.731  16.072  65.526  1.00  0.00     0.000 HD 
ENDROOT
BRANCH   2   4
HETATM    4  C   UNL     1      -9.530  18.691  67.505  1.00  0.00    -0.291 C  
HETATM    5  O   UNL     1      -8.741  18.888  68.701  1.00  0.00    -0.341 OA 
HETATM    6  C   UNL     1      -7.405  19.069  68.614  1.00  0.00    -0.318 C  
HETATM    7  C   UNL     1      -6.895  19.959  67.489  1.00  0.00    -0.231 C  
HETATM    8  O   UNL     1      -6.658  18.695  69.518  1.00  0.00    -0.256 OA 
HETATM    9  O   UNL     1      -6.971  21.331  67.898  1.00  0.00    -0.287 OA 
HETATM   10  C   UNL     1      -7.646  19.780  66.171  1.00  0.00    -0.320 C  
HETATM   11  C   UNL     1      -9.160  19.661  66.376  1.00  0.00    -0.379 C  
HETATM   12  H   UNL     1      -6.653  21.886  67.196  1.00  0.00     0.000 HD 
HETATM   13  O   UNL     1      -7.120  18.693  65.405  1.00  0.00    -0.517 OA 
HETATM   14  H   UNL     1      -7.587  18.582  64.585  1.00  0.00     0.000 HD 
HETATM   15  O   UNL     1      -9.736  20.935  66.711  1.00  0.00    -0.646 OA 
HETATM   16  H   UNL     1      -9.507  21.536  66.012  1.00  0.00     0.000 HD 
ENDBRANCH   2   4
TORSDOF 1
ENDMDL
MODEL       36
REMARK 921   NORMALIZED FREE ENERGY PREDICTED BY IDOCK:   -4.09 KCAL/MOL
REMARK 922        TOTAL FREE ENERGY PREDICTED BY IDOCK:   -4.56 KCAL/MOL
REMARK 923 INTER-LIGAND FREE ENERGY PREDICTED BY IDOCK:   -4.31 KCAL/MOL
REMARK 924 INTRA-LIGAND FREE ENERGY PREDICTED BY IDOCK:   -0.25 KCAL/MOL
REMARK 927      BINDING AFFINITY PREDICTED BY RF-SCORE:    0.00 PKD
ROOT
HETATM    1  O   UNL     1     -10.416  17.968  68.257  1.00  0.00    -0.375 OA 
HETATM    2  C   UNL     1     -10.950  16.687  68.592  1.00  0.00    -0.328 C  
HETATM    3  H   UNL     1     -10.974  18.672  68.566  1.00  0.00     0.000 HD 
ENDROOT
BRANCH   2   4
HETATM    4  C   UNL     1     -10.047  15.551  68.092  1.00  0.00    -0.218 C  
HETATM    5  O   UNL     1     -10.887  14.413  67.794  1.00  0.00    -0.252 OA 
HETATM    6  C   UNL     1     -11.505  14.318  66.595  1.00  0.00    -0.364 C  
HETATM    7  C   UNL     1     -10.705  14.725  65.366  1.00  0.00    -0.371 C  
HETATM    8  O   UNL     1     -12.587  13.742  66.488  1.00  0.00    -0.362 OA 
HETATM    9  O   UNL     1      -9.892  13.622  64.943  1.00  0.00    -0.597 OA 
HETATM   10  C   UNL     1      -9.823  15.952  65.582  1.00  0.00    -0.302 C  
HETATM   11  C   UNL     1      -9.109  15.925  66.938  1.00  0.00    -0.231 C  
HETATM   12  H   UNL     1      -9.393  13.877  64.175  1.00  0.00     0.000 HD 
HETATM   13  O   UNL     1     -10.548  17.168  65.380  1.00  0.00    -0.618 OA 
HETATM   14  H   UNL     1      -9.999  17.932  65.514  1.00  0.00     0.000 HD 
HETATM   15  O   UNL     1      -8.041  14.963  66.938  1.00  0.00    -0.294 OA 
HETATM   16  H   UNL     1      -7.459  15.194  66.223  1.00  0.00     0.000 HD 
ENDBRANCH   2   4
TORSDOF 1
ENDMDL
MODEL       37
REMARK 921   NORMALIZED FREE ENERGY PREDICTED BY IDOCK:   -4.08 KCAL/MOL
REMARK 922        TOTAL FREE ENERGY PREDICTED BY IDOCK:   -4.55 KCAL/MOL
REMARK 923 INTER-LIGAND FREE ENERGY PREDICTED BY IDOCK:   -4.35 KCAL/MOL
REMARK 924 INTRA-LIGAND FREE ENERGY PREDICTED BY IDOCK:   -0.20 KCAL/MOL
REMARK 927      BINDING AFFINITY PREDICTED BY RF-SCORE:    0.00 PKD
ROOT
HETATM    1  O   UNL     1      -9.201  12.307  65.922  1.00  0.00    -0.401 OA 
HETATM    2  C   UNL     1     -10.195  11.474  66.519  1.00  0.00    -0.218 C  
HETATM    3  H   UNL     1      -8.384  11.840  65.796  1.00  0.00     0.000 HD 
ENDROOT
BRANCH   2   4
HETATM    4  C   UNL     1     -11.516  12.229  66.722  1.00  0.00    -0.361 C  
HETATM    5  O   UNL     1     -12.077  11.814  67.988  1.00  0.00    -0.572 OA 
HETATM    6  C   UNL     1     -11.675  12.404  69.137  1.00  0.00    -0.322 C  
HETATM    7  C   UNL     1     -11.478  13.912  69.112  1.00  0.00    -0.299 C  
HETATM    8  O   UNL     1     -11.666  11.778  70.196  1.00  0.00    -0.316 OA 
HETATM    9  O   UNL     1     -12.741  14.560  69.317  1.00  0.00    -0.545 OA 
HETATM   10  C   UNL     1     -10.845  14.432  67.823  1.00  0.00    -0.258 C  
HETATM   11  C   UNL     1     -11.424  13.753  66.577  1.00  0.00    -0.348 C  
HETATM   12  H   UNL     1     -12.618  15.502  69.301  1.00  0.00     0.000 HD 
HETATM   13  O   UNL     1      -9.418  14.354  67.864  1.00  0.00    -0.204 OA 
HETATM   14  H   UNL     1      -9.024  14.677  67.062  1.00  0.00     0.000 HD 
HETATM   15  O   UNL     1     -12.752  14.229  66.300  1.00  0.00    -0.510 OA 
HETATM   16  H   UNL     1     -12.695  15.173  66.210  1.00  0.00     0.000 HD 
ENDBRANCH   2   4
TORSDOF 1
ENDMDL
MODEL       38
REMARK 921   NORMALIZED FREE ENERGY PREDICTED BY IDOCK:   -4.08 KCAL/MOL
REMARK 922        TOTAL FREE ENERGY PREDICTED BY IDOCK:   -4.55 KCAL/MOL
REMARK 923 INTER-LIGAND FREE ENERGY PREDICTED BY IDOCK:   -4.53 KCAL/MOL
REMARK 924 INTRA-LIGAND FREE ENERGY PREDICTED BY IDOCK:   -0.02 KCAL/MOL
REMARK 927      BINDING AFFINITY PREDICTED BY RF-SCORE:    0.00 PKD
ROOT
HETATM    1  O   UNL     1     -11.428   9.873  68.680  1.00  0.00    -0.499 OA 
HETATM    2  C   UNL     1     -11.531  11.126  68.004  1.00  0.00    -0.293 C  
HETATM    3  H   UNL     1     -11.938   9.865  69.481  1.00  0.00     0.000 HD 
ENDROOT
BRANCH   2   4
HETATM    4  C   UNL     1     -10.707  11.137  66.709  1.00  0.00    -0.276 C  
HETATM    5  O   UNL     1     -11.623  11.259  65.598  1.00  0.00    -0.042 OA 
HETATM    6  C   UNL     1     -12.067  12.476  65.211  1.00  0.00    -0.444 C  
HETATM    7  C   UNL     1     -11.053  13.612  65.192  1.00  0.00    -0.318 C  
HETATM    8  O   UNL     1     -13.183  12.610  64.710  1.00  0.00    -0.846 OA 
HETATM    9  O   UNL     1     -10.325  13.576  63.957  1.00  0.00    -0.647 OA 
HETATM   10  C   UNL     1     -10.072  13.585  66.361  1.00  0.00    -0.294 C  
HETATM   11  C   UNL     1      -9.572  12.169  66.668  1.00  0.00    -0.220 C  
HETATM   12  H   UNL     1      -9.692  14.285  63.945  1.00  0.00     0.000 HD 
HETATM   13  O   UNL     1     -10.610  14.228  67.519  1.00  0.00    -0.258 OA 
HETATM   14  H   UNL     1      -9.999  14.211  68.247  1.00  0.00     0.000 HD 
HETATM   15  O   UNL     1      -8.638  11.725  65.671  1.00  0.00    -0.390 OA 
HETATM   16  H   UNL     1      -7.935  12.364  65.645  1.00  0.00     0.000 HD 
ENDBRANCH   2   4
TORSDOF 1
ENDMDL
MODEL       39
REMARK 921   NORMALIZED FREE ENERGY PREDICTED BY IDOCK:   -4.07 KCAL/MOL
REMARK 922        TOTAL FREE ENERGY PREDICTED BY IDOCK:   -4.54 KCAL/MOL
REMARK 923 INTER-LIGAND FREE ENERGY PREDICTED BY IDOCK:   -4.30 KCAL/MOL
REMARK 924 INTRA-LIGAND FREE ENERGY PREDICTED BY IDOCK:   -0.24 KCAL/MOL
REMARK 927      BINDING AFFINITY PREDICTED BY RF-SCORE:    0.00 PKD
ROOT
HETATM    1  O   UNL     1     -11.138   9.250  68.269  1.00  0.00    -0.481 OA 
HETATM    2  C   UNL     1     -11.644  10.098  69.300  1.00  0.00    -0.055 C  
HETATM    3  H   UNL     1     -11.587   9.396  67.445  1.00  0.00     0.000 HD 
ENDROOT
BRANCH   2   4
HETATM    4  C   UNL     1     -10.917   9.861  70.631  1.00  0.00    -0.337 C  
HETATM    5  O   UNL     1     -11.865  10.079  71.701  1.00  0.00    -0.365 OA 
HETATM    6  C   UNL     1     -12.695   9.086  72.089  1.00  0.00    -0.401 C  
HETATM    7  C   UNL     1     -12.109   7.684  72.177  1.00  0.00    -0.286 C  
HETATM    8  O   UNL     1     -13.812   9.339  72.541  1.00  0.00    -0.468 OA 
HETATM    9  O   UNL     1     -11.455   7.521  73.442  1.00  0.00    -0.629 OA 
HETATM   10  C   UNL     1     -11.130   7.353  71.053  1.00  0.00    -0.258 C  
HETATM   11  C   UNL     1     -10.184   8.518  70.744  1.00  0.00    -0.198 C  
HETATM   12  H   UNL     1     -11.089   6.646  73.497  1.00  0.00     0.000 HD 
HETATM   13  O   UNL     1     -11.804   6.882  69.884  1.00  0.00    -0.602 OA 
HETATM   14  H   UNL     1     -11.194   6.676  69.185  1.00  0.00     0.000 HD 
HETATM   15  O   UNL     1      -9.194   8.667  71.775  1.00  0.00    -0.223 OA 
HETATM   16  H   UNL     1      -8.739   7.835  71.845  1.00  0.00     0.000 HD 
ENDBRANCH   2   4
TORSDOF 1
ENDMDL
MODEL       40
REMARK 921   NORMALIZED FREE ENERGY PREDICTED BY IDOCK:   -4.06 KCAL/MOL
REMARK 922        TOTAL FREE ENERGY PREDICTED BY IDOCK:   -4.53 KCAL/MOL
REMARK 923 INTER-LIGAND FREE ENERGY PREDICTED BY IDOCK:   -4.47 KCAL/MOL
REMARK 924 INTRA-LIGAND FREE ENERGY PREDICTED BY IDOCK:   -0.06 KCAL/MOL
REMARK 927      BINDING AFFINITY PREDICTED BY RF-SCORE:    0.00 PKD
ROOT
HETATM    1  O   UNL     1     -12.216   5.433  73.025  1.00  0.00    -0.533 OA 
HETATM    2  C   UNL     1     -11.183   6.156  72.354  1.00  0.00    -0.287 C  
HETATM    3  H   UNL     1     -11.898   5.033  73.826  1.00  0.00     0.000 HD 
ENDROOT
BRANCH   2   4
HETATM    4  C   UNL     1     -11.697   6.802  71.061  1.00  0.00    -0.355 C  
HETATM    5  O   UNL     1     -12.930   7.493  71.366  1.00  0.00    -0.351 OA 
HETATM    6  C   UNL     1     -12.903   8.747  71.867  1.00  0.00    -0.375 C  
HETATM    7  C   UNL     1     -11.888   9.712  71.271  1.00  0.00    -0.381 C  
HETATM    8  O   UNL     1     -13.788   9.143  72.625  1.00  0.00    -0.470 OA 
HETATM    9  O   UNL     1     -12.427  10.290  70.075  1.00  0.00    -0.509 OA 
HETATM   10  C   UNL     1     -10.536   9.073  70.961  1.00  0.00    -0.269 C  
HETATM   11  C   UNL     1     -10.681   7.686  70.326  1.00  0.00    -0.239 C  
HETATM   12  H   UNL     1     -11.794  10.892  69.703  1.00  0.00     0.000 HD 
HETATM   13  O   UNL     1      -9.683   9.053  72.108  1.00  0.00    -0.279 OA 
HETATM   14  H   UNL     1      -8.842   8.656  71.915  1.00  0.00     0.000 HD 
HETATM   15  O   UNL     1     -11.122   7.787  68.962  1.00  0.00    -0.428 OA 
HETATM   16  H   UNL     1     -10.493   8.334  68.506  1.00  0.00     0.000 HD 
ENDBRANCH   2   4
TORSDOF 1
ENDMDL
MODEL       41
REMARK 921   NORMALIZED FREE ENERGY PREDICTED BY IDOCK:   -4.06 KCAL/MOL
REMARK 922        TOTAL FREE ENERGY PREDICTED BY IDOCK:   -4.53 KCAL/MOL
REMARK 923 INTER-LIGAND FREE ENERGY PREDICTED BY IDOCK:   -4.27 KCAL/MOL
REMARK 924 INTRA-LIGAND FREE ENERGY PREDICTED BY IDOCK:   -0.25 KCAL/MOL
REMARK 927      BINDING AFFINITY PREDICTED BY RF-SCORE:    0.00 PKD
ROOT
HETATM    1  O   UNL     1      -8.219  15.103  66.342  1.00  0.00    -0.366 OA 
HETATM    2  C   UNL     1      -9.628  15.098  66.115  1.00  0.00    -0.313 C  
HETATM    3  H   UNL     1      -7.752  15.528  65.632  1.00  0.00     0.000 HD 
ENDROOT
BRANCH   2   4
HETATM    4  C   UNL     1     -10.381  14.412  67.262  1.00  0.00    -0.260 C  
HETATM    5  O   UNL     1     -11.623  13.893  66.734  1.00  0.00    -0.341 OA 
HETATM    6  C   UNL     1     -11.653  12.688  66.122  1.00  0.00    -0.393 C  
HETATM    7  C   UNL     1     -10.835  11.569  66.751  1.00  0.00    -0.282 C  
HETATM    8  O   UNL     1     -12.459  12.458  65.221  1.00  0.00    -0.611 OA 
HETATM    9  O   UNL     1     -11.593  10.962  67.805  1.00  0.00    -0.523 OA 
HETATM   10  C   UNL     1      -9.483  12.023  67.295  1.00  0.00    -0.181 C  
HETATM   11  C   UNL     1      -9.574  13.362  68.036  1.00  0.00    -0.219 C  
HETATM   12  H   UNL     1     -11.083  10.263  68.198  1.00  0.00     0.000 HD 
HETATM   13  O   UNL     1      -8.479  12.039  66.277  1.00  0.00    -0.378 OA 
HETATM   14  H   UNL     1      -7.638  12.321  66.616  1.00  0.00     0.000 HD 
HETATM   15  O   UNL     1     -10.210  13.202  69.314  1.00  0.00    -0.407 OA 
HETATM   16  H   UNL     1      -9.710  12.551  69.794  1.00  0.00     0.000 HD 
ENDBRANCH   2   4
TORSDOF 1
ENDMDL
MODEL       42
REMARK 921   NORMALIZED FREE ENERGY PREDICTED BY IDOCK:   -4.01 KCAL/MOL
REMARK 922        TOTAL FREE ENERGY PREDICTED BY IDOCK:   -4.47 KCAL/MOL
REMARK 923 INTER-LIGAND FREE ENERGY PREDICTED BY IDOCK:   -4.25 KCAL/MOL
REMARK 924 INTRA-LIGAND FREE ENERGY PREDICTED BY IDOCK:   -0.23 KCAL/MOL
REMARK 927      BINDING AFFINITY PREDICTED BY RF-SCORE:    0.00 PKD
ROOT
HETATM    1  O   UNL     1      -8.660  15.929  68.769  1.00  0.00    -0.185 OA 
HETATM    2  C   UNL     1      -7.696  16.949  68.510  1.00  0.00    -0.227 C  
HETATM    3  H   UNL     1      -8.287  15.062  68.665  1.00  0.00     0.000 HD 
ENDROOT
BRANCH   2   4
HETATM    4  C   UNL     1      -8.300  18.351  68.677  1.00  0.00    -0.296 C  
HETATM    5  O   UNL     1      -7.694  19.218  67.692  1.00  0.00    -0.249 OA 
HETATM    6  C   UNL     1      -8.182  19.264  66.432  1.00  0.00    -0.319 C  
HETATM    7  C   UNL     1      -9.695  19.254  66.273  1.00  0.00    -0.374 C  
HETATM    8  O   UNL     1      -7.443  19.504  65.478  1.00  0.00    -0.420 OA 
HETATM    9  O   UNL     1     -10.197  20.588  66.429  1.00  0.00    -0.465 OA 
HETATM   10  C   UNL     1     -10.414  18.325  67.248  1.00  0.00    -0.398 C  
HETATM   11  C   UNL     1      -9.833  18.406  68.663  1.00  0.00    -0.376 C  
HETATM   12  H   UNL     1     -11.142  20.583  66.329  1.00  0.00     0.000 HD 
HETATM   13  O   UNL     1     -10.462  16.981  66.762  1.00  0.00    -0.308 OA 
HETATM   14  H   UNL     1     -10.909  16.403  67.369  1.00  0.00     0.000 HD 
HETATM   15  O   UNL     1     -10.214  19.632  69.308  1.00  0.00    -0.629 OA 
HETATM   16  H   UNL     1     -11.163  19.667  69.300  1.00  0.00     0.000 HD 
ENDBRANCH   2   4
TORSDOF 1
ENDMDL
MODEL       43
REMARK 921   NORMALIZED FREE ENERGY PREDICTED BY IDOCK:   -3.99 KCAL/MOL
REMARK 922        TOTAL FREE ENERGY PREDICTED BY IDOCK:   -4.46 KCAL/MOL
REMARK 923 INTER-LIGAND FREE ENERGY PREDICTED BY IDOCK:   -4.36 KCAL/MOL
REMARK 924 INTRA-LIGAND FREE ENERGY PREDICTED BY IDOCK:   -0.09 KCAL/MOL
REMARK 927      BINDING AFFINITY PREDICTED BY RF-SCORE:    0.00 PKD
ROOT
HETATM    1  O   UNL     1      -8.523  12.998  68.691  1.00  0.00    -0.325 OA 
HETATM    2  C   UNL     1      -8.580  13.274  67.291  1.00  0.00    -0.210 C  
HETATM    3  H   UNL     1      -7.742  12.509  68.919  1.00  0.00     0.000 HD 
ENDROOT
BRANCH   2   4
HETATM    4  C   UNL     1      -9.843  14.065  66.923  1.00  0.00    -0.267 C  
HETATM    5  O   UNL     1      -9.917  14.140  65.481  1.00  0.00    -0.327 OA 
HETATM    6  C   UNL     1     -10.463  13.126  64.773  1.00  0.00    -0.372 C  
HETATM    7  C   UNL     1     -11.721  12.483  65.337  1.00  0.00    -0.398 C  
HETATM    8  O   UNL     1     -10.075  12.874  63.633  1.00  0.00    -0.339 OA 
HETATM    9  O   UNL     1     -12.864  13.258  64.951  1.00  0.00    -0.695 OA 
HETATM   10  C   UNL     1     -11.706  12.322  66.855  1.00  0.00    -0.334 C  
HETATM   11  C   UNL     1     -11.140  13.556  67.565  1.00  0.00    -0.274 C  
HETATM   12  H   UNL     1     -13.650  12.857  65.303  1.00  0.00     0.000 HD 
HETATM   13  O   UNL     1     -11.042  11.120  67.254  1.00  0.00    -0.279 OA 
HETATM   14  H   UNL     1     -11.033  11.020  68.199  1.00  0.00     0.000 HD 
HETATM   15  O   UNL     1     -12.078  14.645  67.533  1.00  0.00    -0.546 OA 
HETATM   16  H   UNL     1     -12.881  14.330  67.931  1.00  0.00     0.000 HD 
ENDBRANCH   2   4
TORSDOF 1
ENDMDL
MODEL       44
REMARK 921   NORMALIZED FREE ENERGY PREDICTED BY IDOCK:   -3.99 KCAL/MOL
REMARK 922        TOTAL FREE ENERGY PREDICTED BY IDOCK:   -4.45 KCAL/MOL
REMARK 923 INTER-LIGAND FREE ENERGY PREDICTED BY IDOCK:   -4.42 KCAL/MOL
REMARK 924 INTRA-LIGAND FREE ENERGY PREDICTED BY IDOCK:   -0.03 KCAL/MOL
REMARK 927      BINDING AFFINITY PREDICTED BY RF-SCORE:    0.00 PKD
ROOT
HETATM    1  O   UNL     1      -6.441  18.787  69.874  1.00  0.00    -0.191 OA 
HETATM    2  C   UNL     1      -7.275  19.402  68.892  1.00  0.00    -0.362 C  
HETATM    3  H   UNL     1      -6.319  19.349  70.630  1.00  0.00     0.000 HD 
ENDROOT
BRANCH   2   4
HETATM    4  C   UNL     1      -7.471  18.493  67.671  1.00  0.00    -0.228 C  
HETATM    5  O   UNL     1      -8.514  17.542  67.985  1.00  0.00    -0.229 OA 
HETATM    6  C   UNL     1      -9.813  17.877  67.823  1.00  0.00    -0.300 C  
HETATM    7  C   UNL     1     -10.176  18.671  66.576  1.00  0.00    -0.412 C  
HETATM    8  O   UNL     1     -10.684  17.392  68.544  1.00  0.00    -0.348 OA 
HETATM    9  O   UNL     1     -10.356  17.769  65.476  1.00  0.00    -0.623 OA 
HETATM   10  C   UNL     1      -9.146  19.733  66.198  1.00  0.00    -0.343 C  
HETATM   11  C   UNL     1      -7.708  19.227  66.344  1.00  0.00    -0.282 C  
HETATM   12  H   UNL     1     -10.582  18.264  64.697  1.00  0.00     0.000 HD 
HETATM   13  O   UNL     1      -9.361  20.956  66.907  1.00  0.00    -0.652 OA 
HETATM   14  H   UNL     1      -8.721  21.617  66.672  1.00  0.00     0.000 HD 
HETATM   15  O   UNL     1      -7.375  18.307  65.292  1.00  0.00    -0.447 OA 
HETATM   16  H   UNL     1      -7.522  18.761  64.470  1.00  0.00     0.000 HD 
ENDBRANCH   2   4
TORSDOF 1
ENDMDL
MODEL       45
REMARK 921   NORMALIZED FREE ENERGY PREDICTED BY IDOCK:   -3.98 KCAL/MOL
REMARK 922        TOTAL FREE ENERGY PREDICTED BY IDOCK:   -4.45 KCAL/MOL
REMARK 923 INTER-LIGAND FREE ENERGY PREDICTED BY IDOCK:   -4.22 KCAL/MOL
REMARK 924 INTRA-LIGAND FREE ENERGY PREDICTED BY IDOCK:   -0.22 KCAL/MOL
REMARK 927      BINDING AFFINITY PREDICTED BY RF-SCORE:    0.00 PKD
ROOT
HETATM    1  O   UNL     1      -7.692  20.675  66.503  1.00  0.00    -0.501 OA 
HETATM    2  C   UNL     1      -8.817  19.965  65.986  1.00  0.00    -0.240 C  
HETATM    3  H   UNL     1      -7.045  20.842  65.828  1.00  0.00     0.000 HD 
ENDROOT
BRANCH   2   4
HETATM    4  C   UNL     1      -9.863  19.695  67.076  1.00  0.00    -0.374 C  
HETATM    5  O   UNL     1     -10.705  18.608  66.628  1.00  0.00    -0.377 OA 
HETATM    6  C   UNL     1     -10.320  17.326  66.815  1.00  0.00    -0.308 C  
HETATM    7  C   UNL     1      -9.675  16.982  68.149  1.00  0.00    -0.268 C  
HETATM    8  O   UNL     1     -10.659  16.445  66.025  1.00  0.00    -0.319 OA 
HETATM    9  O   UNL     1     -10.699  16.730  69.121  1.00  0.00    -0.329 OA 
HETATM   10  C   UNL     1      -8.730  18.059  68.675  1.00  0.00    -0.262 C  
HETATM   11  C   UNL     1      -9.294  19.471  68.483  1.00  0.00    -0.373 C  
HETATM   12  H   UNL     1     -10.296  16.515  69.954  1.00  0.00     0.000 HD 
HETATM   13  O   UNL     1      -7.416  17.926  68.128  1.00  0.00    -0.233 OA 
HETATM   14  H   UNL     1      -6.828  18.597  68.455  1.00  0.00     0.000 HD 
HETATM   15  O   UNL     1     -10.359  19.732  69.412  1.00  0.00    -0.638 OA 
HETATM   16  H   UNL     1     -10.008  19.593  70.284  1.00  0.00     0.000 HD 
ENDBRANCH   2   4
TORSDOF 1
ENDMDL
MODEL       46
REMARK 921   NORMALIZED FREE ENERGY PREDICTED BY IDOCK:   -3.98 KCAL/MOL
REMARK 922        TOTAL FREE ENERGY PREDICTED BY IDOCK:   -4.45 KCAL/MOL
REMARK 923 INTER-LIGAND FREE ENERGY PREDICTED BY IDOCK:   -4.20 KCAL/MOL
REMARK 924 INTRA-LIGAND FREE ENERGY PREDICTED BY IDOCK:   -0.25 KCAL/MOL
REMARK 927      BINDING AFFINITY PREDICTED BY RF-SCORE:    0.00 PKD
ROOT
HETATM    1  O   UNL     1      -9.622  14.240  67.391  1.00  0.00    -0.207 OA 
HETATM    2  C   UNL     1      -9.376  15.093  66.273  1.00  0.00    -0.313 C  
HETATM    3  H   UNL     1     -10.029  13.424  67.125  1.00  0.00     0.000 HD 
ENDROOT
BRANCH   2   4
HETATM    4  C   UNL     1      -8.719  16.411  66.703  1.00  0.00    -0.256 C  
HETATM    5  O   UNL     1      -9.144  17.443  65.784  1.00  0.00    -0.517 OA 
HETATM    6  C   UNL     1     -10.321  18.080  65.973  1.00  0.00    -0.331 C  
HETATM    7  C   UNL     1     -10.685  18.458  67.402  1.00  0.00    -0.361 C  
HETATM    8  O   UNL     1     -10.966  18.510  65.017  1.00  0.00    -0.602 OA 
HETATM    9  O   UNL     1     -10.052  19.699  67.740  1.00  0.00    -0.362 OA 
HETATM   10  C   UNL     1     -10.312  17.399  68.436  1.00  0.00    -0.379 C  
HETATM   11  C   UNL     1      -8.928  16.794  68.174  1.00  0.00    -0.224 C  
HETATM   12  H   UNL     1     -10.279  19.935  68.632  1.00  0.00     0.000 HD 
HETATM   13  O   UNL     1     -11.323  16.396  68.557  1.00  0.00    -0.371 OA 
HETATM   14  H   UNL     1     -11.091  15.737  69.201  1.00  0.00     0.000 HD 
HETATM   15  O   UNL     1      -7.886  17.721  68.518  1.00  0.00    -0.273 OA 
HETATM   16  H   UNL     1      -8.015  17.959  69.429  1.00  0.00     0.000 HD 
ENDBRANCH   2   4
TORSDOF 1
ENDMDL
MODEL       47
REMARK 921   NORMALIZED FREE ENERGY PREDICTED BY IDOCK:   -3.97 KCAL/MOL
REMARK 922        TOTAL FREE ENERGY PREDICTED BY IDOCK:   -4.44 KCAL/MOL
REMARK 923 INTER-LIGAND FREE ENERGY PREDICTED BY IDOCK:   -4.24 KCAL/MOL
REMARK 924 INTRA-LIGAND FREE ENERGY PREDICTED BY IDOCK:   -0.20 KCAL/MOL
REMARK 927      BINDING AFFINITY PREDICTED BY RF-SCORE:    0.00 PKD
ROOT
HETATM    1  O   UNL     1     -10.450  16.237  66.746  1.00  0.00    -0.296 OA 
HETATM    2  C   UNL     1     -10.144  16.564  68.101  1.00  0.00    -0.255 C  
HETATM    3  H   UNL     1     -10.630  17.014  66.230  1.00  0.00     0.000 HD 
ENDROOT
BRANCH   2   4
HETATM    4  C   UNL     1      -9.854  15.307  68.933  1.00  0.00    -0.221 C  
HETATM    5  O   UNL     1     -10.431  15.498  70.245  1.00  0.00    -0.310 OA 
HETATM    6  C   UNL     1     -11.736  15.223  70.462  1.00  0.00    -0.318 C  
HETATM    7  C   UNL     1     -12.299  13.968  69.812  1.00  0.00    -0.291 C  
HETATM    8  O   UNL     1     -12.380  15.847  71.305  1.00  0.00    -0.423 OA 
HETATM    9  O   UNL     1     -12.007  12.833  70.638  1.00  0.00    -0.510 OA 
HETATM   10  C   UNL     1     -11.776  13.715  68.400  1.00  0.00    -0.358 C  
HETATM   11  C   UNL     1     -10.272  13.983  68.280  1.00  0.00    -0.249 C  
HETATM   12  H   UNL     1     -12.359  12.049  70.232  1.00  0.00     0.000 HD 
HETATM   13  O   UNL     1     -12.530  14.432  67.419  1.00  0.00    -0.603 OA 
HETATM   14  H   UNL     1     -12.204  14.275  66.540  1.00  0.00     0.000 HD 
HETATM   15  O   UNL     1      -9.511  12.944  68.916  1.00  0.00    -0.402 OA 
HETATM   16  H   UNL     1      -9.770  12.123  68.512  1.00  0.00     0.000 HD 
ENDBRANCH   2   4
TORSDOF 1
ENDMDL
MODEL       48
REMARK 921   NORMALIZED FREE ENERGY PREDICTED BY IDOCK:   -3.95 KCAL/MOL
REMARK 922        TOTAL FREE ENERGY PREDICTED BY IDOCK:   -4.42 KCAL/MOL
REMARK 923 INTER-LIGAND FREE ENERGY PREDICTED BY IDOCK:   -4.38 KCAL/MOL
REMARK 924 INTRA-LIGAND FREE ENERGY PREDICTED BY IDOCK:   -0.04 KCAL/MOL
REMARK 927      BINDING AFFINITY PREDICTED BY RF-SCORE:    0.00 PKD
ROOT
HETATM    1  O   UNL     1      -7.466  13.576  66.909  1.00  0.00    -0.314 OA 
HETATM    2  C   UNL     1      -8.723  14.180  67.215  1.00  0.00    -0.218 C  
HETATM    3  H   UNL     1      -6.952  13.423  67.693  1.00  0.00     0.000 HD 
ENDROOT
BRANCH   2   4
HETATM    4  C   UNL     1      -9.552  14.427  65.947  1.00  0.00    -0.220 C  
HETATM    5  O   UNL     1     -10.172  13.177  65.569  1.00  0.00    -0.287 OA 
HETATM    6  C   UNL     1     -11.336  12.793  66.138  1.00  0.00    -0.328 C  
HETATM    7  C   UNL     1     -12.393  13.867  66.351  1.00  0.00    -0.426 C  
HETATM    8  O   UNL     1     -11.600  11.601  66.291  1.00  0.00    -0.420 OA 
HETATM    9  O   UNL     1     -13.139  14.045  65.139  1.00  0.00    -0.776 OA 
HETATM   10  C   UNL     1     -11.827  15.212  66.799  1.00  0.00     0.026 C  
HETATM   11  C   UNL     1     -10.551  15.588  66.038  1.00  0.00    -0.325 C  
HETATM   12  H   UNL     1     -13.799  14.715  65.272  1.00  0.00     0.000 HD 
HETATM   13  O   UNL     1     -11.643  15.265  68.216  1.00  0.00    -0.333 OA 
HETATM   14  H   UNL     1     -11.291  16.102  68.495  1.00  0.00     0.000 HD 
HETATM   15  O   UNL     1     -10.852  15.988  64.691  1.00  0.00    -0.761 OA 
HETATM   16  H   UNL     1     -11.471  16.708  64.747  1.00  0.00     0.000 HD 
ENDBRANCH   2   4
TORSDOF 1
ENDMDL
MODEL       49
REMARK 921   NORMALIZED FREE ENERGY PREDICTED BY IDOCK:   -3.94 KCAL/MOL
REMARK 922        TOTAL FREE ENERGY PREDICTED BY IDOCK:   -4.40 KCAL/MOL
REMARK 923 INTER-LIGAND FREE ENERGY PREDICTED BY IDOCK:   -4.71 KCAL/MOL
REMARK 924 INTRA-LIGAND FREE ENERGY PREDICTED BY IDOCK:    0.31 KCAL/MOL
REMARK 927      BINDING AFFINITY PREDICTED BY RF-SCORE:    0.00 PKD
ROOT
HETATM    1  O   UNL     1     -10.515  18.052  65.689  1.00  0.00    -0.619 OA 
HETATM    2  C   UNL     1     -10.691  19.469  65.683  1.00  0.00    -0.325 C  
HETATM    3  H   UNL     1     -11.070  17.629  65.045  1.00  0.00     0.000 HD 
ENDROOT
BRANCH   2   4
HETATM    4  C   UNL     1      -9.794  20.152  66.724  1.00  0.00    -0.456 C  
HETATM    5  O   UNL     1     -10.077  19.563  68.013  1.00  0.00    -0.370 OA 
HETATM    6  C   UNL     1      -9.470  18.414  68.386  1.00  0.00    -0.332 C  
HETATM    7  C   UNL     1      -7.993  18.268  68.049  1.00  0.00    -0.264 C  
HETATM    8  O   UNL     1     -10.033  17.618  69.136  1.00  0.00    -0.285 OA 
HETATM    9  O   UNL     1      -7.209  18.915  69.059  1.00  0.00    -0.312 OA 
HETATM   10  C   UNL     1      -7.614  18.825  66.678  1.00  0.00    -0.244 C  
HETATM   11  C   UNL     1      -8.297  20.165  66.387  1.00  0.00    -0.241 C  
HETATM   12  H   UNL     1      -6.287  18.824  68.849  1.00  0.00     0.000 HD 
HETATM   13  O   UNL     1      -7.836  17.870  65.638  1.00  0.00    -0.534 OA 
HETATM   14  H   UNL     1      -7.600  18.217  64.785  1.00  0.00     0.000 HD 
HETATM   15  O   UNL     1      -7.704  21.225  67.155  1.00  0.00    -0.732 OA 
HETATM   16  H   UNL     1      -6.777  21.233  66.946  1.00  0.00     0.000 HD 
ENDBRANCH   2   4
TORSDOF 1
ENDMDL
MODEL       50
REMARK 921   NORMALIZED FREE ENERGY PREDICTED BY IDOCK:   -3.94 KCAL/MOL
REMARK 922        TOTAL FREE ENERGY PREDICTED BY IDOCK:   -4.40 KCAL/MOL
REMARK 923 INTER-LIGAND FREE ENERGY PREDICTED BY IDOCK:   -4.36 KCAL/MOL
REMARK 924 INTRA-LIGAND FREE ENERGY PREDICTED BY IDOCK:   -0.04 KCAL/MOL
REMARK 927      BINDING AFFINITY PREDICTED BY RF-SCORE:    0.00 PKD
ROOT
HETATM    1  O   UNL     1     -12.538  15.751  69.487  1.00  0.00    -0.528 OA 
HETATM    2  C   UNL     1     -11.791  14.558  69.250  1.00  0.00    -0.323 C  
HETATM    3  H   UNL     1     -12.414  16.071  70.373  1.00  0.00     0.000 HD 
ENDROOT
BRANCH   2   4
HETATM    4  C   UNL     1     -11.991  14.042  67.819  1.00  0.00    -0.357 C  
HETATM    5  O   UNL     1     -11.320  14.953  66.919  1.00  0.00    -0.345 OA 
HETATM    6  C   UNL     1      -9.997  14.822  66.677  1.00  0.00    -0.264 C  
HETATM    7  C   UNL     1      -9.459  13.410  66.501  1.00  0.00    -0.245 C  
HETATM    8  O   UNL     1      -9.304  15.805  66.415  1.00  0.00    -0.249 OA 
HETATM    9  O   UNL     1      -9.664  12.989  65.146  1.00  0.00    -0.497 OA 
HETATM   10  C   UNL     1     -10.082  12.388  67.449  1.00  0.00    -0.201 C  
HETATM   11  C   UNL     1     -11.596  12.577  67.593  1.00  0.00    -0.355 C  
HETATM   12  H   UNL     1      -9.329  12.107  65.035  1.00  0.00     0.000 HD 
HETATM   13  O   UNL     1      -9.420  12.367  68.716  1.00  0.00    -0.398 OA 
HETATM   14  H   UNL     1      -9.808  11.731  69.306  1.00  0.00     0.000 HD 
HETATM   15  O   UNL     1     -12.286  12.134  66.412  1.00  0.00    -0.592 OA 
HETATM   16  H   UNL     1     -12.042  11.227  66.272  1.00  0.00     0.000 HD 
ENDBRANCH   2   4
TORSDOF 1
ENDMDL
MODEL       51
REMARK 921   NORMALIZED FREE ENERGY PREDICTED BY IDOCK:   -3.93 KCAL/MOL
REMARK 922        TOTAL FREE ENERGY PREDICTED BY IDOCK:   -4.39 KCAL/MOL
REMARK 923 INTER-LIGAND FREE ENERGY PREDICTED BY IDOCK:   -4.15 KCAL/MOL
REMARK 924 INTRA-LIGAND FREE ENERGY PREDICTED BY IDOCK:   -0.24 KCAL/MOL
REMARK 927      BINDING AFFINITY PREDICTED BY RF-SCORE:    0.00 PKD
ROOT
HETATM    1  O   UNL     1      -8.991   7.302  70.780  1.00  0.00    -0.150 OA 
HETATM    2  C   UNL     1      -9.524   8.166  71.784  1.00  0.00    -0.188 C  
HETATM    3  H   UNL     1      -8.340   7.745  70.248  1.00  0.00     0.000 HD 
ENDROOT
BRANCH   2   4
HETATM    4  C   UNL     1     -10.576   7.450  72.643  1.00  0.00    -0.275 C  
HETATM    5  O   UNL     1     -11.568   8.424  73.037  1.00  0.00    -0.186 OA 
HETATM    6  C   UNL     1     -12.592   8.728  72.208  1.00  0.00    -0.394 C  
HETATM    7  C   UNL     1     -13.247   7.574  71.462  1.00  0.00    -0.354 C  
HETATM    8  O   UNL     1     -13.096   9.850  72.213  1.00  0.00    -0.418 OA 
HETATM    9  O   UNL     1     -14.224   6.955  72.309  1.00  0.00    -0.606 OA 
HETATM   10  C   UNL     1     -12.261   6.518  70.968  1.00  0.00    -0.177 C  
HETATM   11  C   UNL     1     -11.187   6.193  72.011  1.00  0.00    -0.286 C  
HETATM   12  H   UNL     1     -14.633   6.234  71.843  1.00  0.00     0.000 HD 
HETATM   13  O   UNL     1     -11.694   6.873  69.704  1.00  0.00    -0.587 OA 
HETATM   14  H   UNL     1     -11.080   6.215  69.397  1.00  0.00     0.000 HD 
HETATM   15  O   UNL     1     -11.732   5.407  73.084  1.00  0.00    -0.526 OA 
HETATM   16  H   UNL     1     -12.110   4.628  72.693  1.00  0.00     0.000 HD 
ENDBRANCH   2   4
TORSDOF 1
ENDMDL
MODEL       52
REMARK 921   NORMALIZED FREE ENERGY PREDICTED BY IDOCK:   -3.92 KCAL/MOL
REMARK 922        TOTAL FREE ENERGY PREDICTED BY IDOCK:   -4.39 KCAL/MOL
REMARK 923 INTER-LIGAND FREE ENERGY PREDICTED BY IDOCK:   -4.15 KCAL/MOL
REMARK 924 INTRA-LIGAND FREE ENERGY PREDICTED BY IDOCK:   -0.23 KCAL/MOL
REMARK 927      BINDING AFFINITY PREDICTED BY RF-SCORE:    0.00 PKD
ROOT
HETATM    1  O   UNL     1     -10.032  20.376  67.958  1.00  0.00    -0.368 OA 
HETATM    2  C   UNL     1      -8.896  19.810  67.303  1.00  0.00    -0.326 C  
HETATM    3  H   UNL     1      -9.775  20.918  68.695  1.00  0.00     0.000 HD 
ENDROOT
BRANCH   2   4
HETATM    4  C   UNL     1      -9.311  18.935  66.112  1.00  0.00    -0.187 C  
HETATM    5  O   UNL     1      -8.221  18.030  65.823  1.00  0.00    -0.519 OA 
HETATM    6  C   UNL     1      -8.098  16.871  66.507  1.00  0.00    -0.291 C  
HETATM    7  C   UNL     1      -9.375  16.092  66.790  1.00  0.00    -0.234 C  
HETATM    8  O   UNL     1      -6.991  16.375  66.713  1.00  0.00    -0.213 OA 
HETATM    9  O   UNL     1      -9.703  15.288  65.649  1.00  0.00    -0.338 OA 
HETATM   10  C   UNL     1     -10.569  16.973  67.151  1.00  0.00    -0.245 C  
HETATM   11  C   UNL     1     -10.659  18.221  66.267  1.00  0.00    -0.296 C  
HETATM   12  H   UNL     1     -10.500  14.802  65.826  1.00  0.00     0.000 HD 
HETATM   13  O   UNL     1     -10.586  17.298  68.543  1.00  0.00    -0.354 OA 
HETATM   14  H   UNL     1     -11.329  17.846  68.768  1.00  0.00     0.000 HD 
HETATM   15  O   UNL     1     -11.109  17.883  64.944  1.00  0.00    -0.782 OA 
HETATM   16  H   UNL     1     -11.944  17.441  65.039  1.00  0.00     0.000 HD 
ENDBRANCH   2   4
TORSDOF 1
ENDMDL
MODEL       53
REMARK 921   NORMALIZED FREE ENERGY PREDICTED BY IDOCK:   -3.90 KCAL/MOL
REMARK 922        TOTAL FREE ENERGY PREDICTED BY IDOCK:   -4.36 KCAL/MOL
REMARK 923 INTER-LIGAND FREE ENERGY PREDICTED BY IDOCK:   -4.52 KCAL/MOL
REMARK 924 INTRA-LIGAND FREE ENERGY PREDICTED BY IDOCK:    0.16 KCAL/MOL
REMARK 927      BINDING AFFINITY PREDICTED BY RF-SCORE:    0.00 PKD
ROOT
HETATM    1  O   UNL     1      -7.545  17.947  65.612  1.00  0.00    -0.546 OA 
HETATM    2  C   UNL     1      -7.981  16.771  66.293  1.00  0.00    -0.316 C  
HETATM    3  H   UNL     1      -7.121  17.737  64.789  1.00  0.00     0.000 HD 
ENDROOT
BRANCH   2   4
HETATM    4  C   UNL     1      -8.666  17.111  67.624  1.00  0.00    -0.213 C  
HETATM    5  O   UNL     1      -8.041  18.302  68.156  1.00  0.00    -0.268 OA 
HETATM    6  C   UNL     1      -8.446  19.524  67.746  1.00  0.00    -0.315 C  
HETATM    7  C   UNL     1      -9.943  19.740  67.577  1.00  0.00    -0.409 C  
HETATM    8  O   UNL     1      -7.658  20.469  67.707  1.00  0.00    -0.283 OA 
HETATM    9  O   UNL     1     -10.522  20.064  68.848  1.00  0.00    -0.577 OA 
HETATM   10  C   UNL     1     -10.676  18.544  66.976  1.00  0.00    -0.317 C  
HETATM   11  C   UNL     1     -10.195  17.212  67.563  1.00  0.00    -0.323 C  
HETATM   12  H   UNL     1     -11.457  20.199  68.742  1.00  0.00     0.000 HD 
HETATM   13  O   UNL     1     -10.622  18.552  65.547  1.00  0.00    -0.621 OA 
HETATM   14  H   UNL     1     -11.079  17.807  65.173  1.00  0.00     0.000 HD 
HETATM   15  O   UNL     1     -10.681  17.035  68.904  1.00  0.00    -0.335 OA 
HETATM   16  H   UNL     1     -11.629  17.098  68.866  1.00  0.00     0.000 HD 
ENDBRANCH   2   4
TORSDOF 1
ENDMDL
MODEL       54
REMARK 921   NORMALIZED FREE ENERGY PREDICTED BY IDOCK:   -3.88 KCAL/MOL
REMARK 922        TOTAL FREE ENERGY PREDICTED BY IDOCK:   -4.35 KCAL/MOL
REMARK 923 INTER-LIGAND FREE ENERGY PREDICTED BY IDOCK:   -4.10 KCAL/MOL
REMARK 924 INTRA-LIGAND FREE ENERGY PREDICTED BY IDOCK:   -0.24 KCAL/MOL
REMARK 927      BINDING AFFINITY PREDICTED BY RF-SCORE:    0.00 PKD
ROOT
HETATM    1  O   UNL     1      -8.453   8.534  71.609  1.00  0.00    -0.150 OA 
HETATM    2  C   UNL     1      -9.801   8.601  72.074  1.00  0.00    -0.325 C  
HETATM    3  H   UNL     1      -7.833   8.655  72.318  1.00  0.00     0.000 HD 
ENDROOT
BRANCH   2   4
HETATM    4  C   UNL     1     -10.803   8.406  70.928  1.00  0.00    -0.231 C  
HETATM    5  O   UNL     1     -11.977   9.197  71.222  1.00  0.00    -0.293 OA 
HETATM    6  C   UNL     1     -12.013  10.510  70.901  1.00  0.00    -0.377 C  
HETATM    7  C   UNL     1     -11.424  10.912  69.556  1.00  0.00    -0.301 C  
HETATM    8  O   UNL     1     -12.667  11.306  71.572  1.00  0.00    -0.397 OA 
HETATM    9  O   UNL     1     -12.408  10.718  68.531  1.00  0.00    -0.825 OA 
HETATM   10  C   UNL     1     -10.151  10.155  69.187  1.00  0.00    -0.213 C  
HETATM   11  C   UNL     1     -10.244   8.662  69.523  1.00  0.00    -0.209 C  
HETATM   12  H   UNL     1     -12.041  10.969  67.691  1.00  0.00     0.000 HD 
HETATM   13  O   UNL     1      -8.989  10.763  69.756  1.00  0.00    -0.367 OA 
HETATM   14  H   UNL     1      -8.196  10.291  69.526  1.00  0.00     0.000 HD 
HETATM   15  O   UNL     1     -11.105   7.978  68.598  1.00  0.00    -0.413 OA 
HETATM   16  H   UNL     1     -10.759   8.137  67.727  1.00  0.00     0.000 HD 
ENDBRANCH   2   4
TORSDOF 1
ENDMDL
MODEL       55
REMARK 921   NORMALIZED FREE ENERGY PREDICTED BY IDOCK:   -3.85 KCAL/MOL
REMARK 922        TOTAL FREE ENERGY PREDICTED BY IDOCK:   -4.31 KCAL/MOL
REMARK 923 INTER-LIGAND FREE ENERGY PREDICTED BY IDOCK:   -4.29 KCAL/MOL
REMARK 924 INTRA-LIGAND FREE ENERGY PREDICTED BY IDOCK:   -0.03 KCAL/MOL
REMARK 927      BINDING AFFINITY PREDICTED BY RF-SCORE:    0.00 PKD
ROOT
HETATM    1  O   UNL     1     -14.035   8.946  73.098  1.00  0.00    -1.118 OA 
HETATM    2  C   UNL     1     -13.246   8.581  71.965  1.00  0.00    -0.369 C  
HETATM    3  H   UNL     1     -14.745   9.528  72.856  1.00  0.00     0.000 HD 
ENDROOT
BRANCH   2   4
HETATM    4  C   UNL     1     -12.098   7.641  72.357  1.00  0.00    -0.214 C  
HETATM    5  O   UNL     1     -11.965   6.642  71.320  1.00  0.00    -0.336 OA 
HETATM    6  C   UNL     1     -11.241   6.905  70.209  1.00  0.00    -0.316 C  
HETATM    7  C   UNL     1      -9.930   7.656  70.395  1.00  0.00    -0.188 C  
HETATM    8  O   UNL     1     -11.531   6.388  69.131  1.00  0.00    -0.364 OA 
HETATM    9  O   UNL     1      -8.897   6.726  70.748  1.00  0.00    -0.148 OA 
HETATM   10  C   UNL     1      -9.995   8.764  71.443  1.00  0.00    -0.283 C  
HETATM   11  C   UNL     1     -10.772   8.337  72.693  1.00  0.00    -0.314 C  
HETATM   12  H   UNL     1      -8.079   7.194  70.864  1.00  0.00     0.000 HD 
HETATM   13  O   UNL     1     -10.493   9.986  70.893  1.00  0.00    -0.361 OA 
HETATM   14  H   UNL     1     -10.533  10.676  71.545  1.00  0.00     0.000 HD 
HETATM   15  O   UNL     1     -10.005   7.417  73.487  1.00  0.00    -0.276 OA 
HETATM   16  H   UNL     1      -9.184   7.848  73.696  1.00  0.00     0.000 HD 
ENDBRANCH   2   4
TORSDOF 1
ENDMDL
MODEL       56
REMARK 921   NORMALIZED FREE ENERGY PREDICTED BY IDOCK:   -3.85 KCAL/MOL
REMARK 922        TOTAL FREE ENERGY PREDICTED BY IDOCK:   -4.31 KCAL/MOL
REMARK 923 INTER-LIGAND FREE ENERGY PREDICTED BY IDOCK:   -4.06 KCAL/MOL
REMARK 924 INTRA-LIGAND FREE ENERGY PREDICTED BY IDOCK:   -0.25 KCAL/MOL
REMARK 927      BINDING AFFINITY PREDICTED BY RF-SCORE:    0.00 PKD
ROOT
HETATM    1  O   UNL     1      -8.079  11.565  65.808  1.00  0.00    -0.369 OA 
HETATM    2  C   UNL     1      -8.186  12.135  67.113  1.00  0.00    -0.182 C  
HETATM    3  H   UNL     1      -7.182  11.578  65.494  1.00  0.00     0.000 HD 
ENDROOT
BRANCH   2   4
HETATM    4  C   UNL     1      -9.635  12.113  67.619  1.00  0.00    -0.190 C  
HETATM    5  O   UNL     1      -9.794  13.198  68.562  1.00  0.00    -0.218 OA 
HETATM    6  C   UNL     1     -10.068  14.447  68.124  1.00  0.00    -0.226 C  
HETATM    7  C   UNL     1     -11.070  14.580  66.987  1.00  0.00    -0.322 C  
HETATM    8  O   UNL     1      -9.678  15.433  68.749  1.00  0.00    -0.194 OA 
HETATM    9  O   UNL     1     -12.400  14.565  67.523  1.00  0.00    -0.619 OA 
HETATM   10  C   UNL     1     -10.941  13.497  65.919  1.00  0.00    -0.278 C  
HETATM   11  C   UNL     1     -10.708  12.109  66.524  1.00  0.00    -0.255 C  
HETATM   12  H   UNL     1     -13.026  14.648  66.813  1.00  0.00     0.000 HD 
HETATM   13  O   UNL     1      -9.952  13.831  64.942  1.00  0.00    -0.591 OA 
HETATM   14  H   UNL     1      -9.871  13.157  64.277  1.00  0.00     0.000 HD 
HETATM   15  O   UNL     1     -11.912  11.597  67.119  1.00  0.00    -0.614 OA 
HETATM   16  H   UNL     1     -12.578  11.594  66.440  1.00  0.00     0.000 HD 
ENDBRANCH   2   4
TORSDOF 1
ENDMDL
MODEL       57
REMARK 921   NORMALIZED FREE ENERGY PREDICTED BY IDOCK:   -3.84 KCAL/MOL
REMARK 922        TOTAL FREE ENERGY PREDICTED BY IDOCK:   -4.30 KCAL/MOL
REMARK 923 INTER-LIGAND FREE ENERGY PREDICTED BY IDOCK:   -4.06 KCAL/MOL
REMARK 924 INTRA-LIGAND FREE ENERGY PREDICTED BY IDOCK:   -0.24 KCAL/MOL
REMARK 927      BINDING AFFINITY PREDICTED BY RF-SCORE:    0.00 PKD
ROOT
HETATM    1  O   UNL     1      -8.514  11.098  65.458  1.00  0.00    -0.335 OA 
HETATM    2  C   UNL     1      -8.605  12.377  66.085  1.00  0.00     0.296 C  
HETATM    3  H   UNL     1      -7.629  10.913  65.169  1.00  0.00     0.000 HD 
ENDROOT
BRANCH   2   4
HETATM    4  C   UNL     1     -10.037  12.675  66.552  1.00  0.00    -0.248 C  
HETATM    5  O   UNL     1     -10.253  14.101  66.444  1.00  0.00    -0.276 OA 
HETATM    6  C   UNL     1     -10.627  14.646  65.265  1.00  0.00    -0.391 C  
HETATM    7  C   UNL     1     -11.662  13.889  64.446  1.00  0.00    -0.404 C  
HETATM    8  O   UNL     1     -10.296  15.794  64.969  1.00  0.00    -0.468 OA 
HETATM    9  O   UNL     1     -12.975  14.216  64.921  1.00  0.00    -0.705 OA 
HETATM   10  C   UNL     1     -11.478  12.373  64.467  1.00  0.00    -0.337 C  
HETATM   11  C   UNL     1     -11.132  11.849  65.865  1.00  0.00    -0.316 C  
HETATM   12  H   UNL     1     -13.621  13.743  64.409  1.00  0.00     0.000 HD 
HETATM   13  O   UNL     1     -10.538  11.939  63.481  1.00  0.00    -0.385 OA 
HETATM   14  H   UNL     1     -10.423  10.996  63.494  1.00  0.00     0.000 HD 
HETATM   15  O   UNL     1     -12.281  11.878  66.726  1.00  0.00    -0.489 OA 
HETATM   16  H   UNL     1     -12.960  11.366  66.301  1.00  0.00     0.000 HD 
ENDBRANCH   2   4
TORSDOF 1
ENDMDL
MODEL       58
REMARK 921   NORMALIZED FREE ENERGY PREDICTED BY IDOCK:   -3.83 KCAL/MOL
REMARK 922        TOTAL FREE ENERGY PREDICTED BY IDOCK:   -4.29 KCAL/MOL
REMARK 923 INTER-LIGAND FREE ENERGY PREDICTED BY IDOCK:   -4.06 KCAL/MOL
REMARK 924 INTRA-LIGAND FREE ENERGY PREDICTED BY IDOCK:   -0.23 KCAL/MOL
REMARK 927      BINDING AFFINITY PREDICTED BY RF-SCORE:    0.00 PKD
ROOT
HETATM    1  O   UNL     1     -12.289  11.061  68.767  1.00  0.00    -0.730 OA 
HETATM    2  C   UNL     1     -11.446  10.783  67.649  1.00  0.00    -0.151 C  
HETATM    3  H   UNL     1     -13.066  10.514  68.763  1.00  0.00     0.000 HD 
ENDROOT
BRANCH   2   4
HETATM    4  C   UNL     1     -10.192  11.668  67.655  1.00  0.00    -0.188 C  
HETATM    5  O   UNL     1      -9.672  11.715  66.307  1.00  0.00    -0.206 OA 
HETATM    6  C   UNL     1     -10.172  12.598  65.414  1.00  0.00    -0.284 C  
HETATM    7  C   UNL     1     -10.468  14.003  65.918  1.00  0.00    -0.309 C  
HETATM    8  O   UNL     1     -10.194  12.335  64.213  1.00  0.00    -0.314 OA 
HETATM    9  O   UNL     1      -9.264  14.781  65.891  1.00  0.00    -0.495 OA 
HETATM   10  C   UNL     1     -11.066  14.042  67.323  1.00  0.00    -0.302 C  
HETATM   11  C   UNL     1     -10.379  13.058  68.275  1.00  0.00    -0.252 C  
HETATM   12  H   UNL     1      -9.450  15.658  66.206  1.00  0.00     0.000 HD 
HETATM   13  O   UNL     1     -12.485  13.867  67.300  1.00  0.00    -0.485 OA 
HETATM   14  H   UNL     1     -12.857  13.891  68.174  1.00  0.00     0.000 HD 
HETATM   15  O   UNL     1      -9.073  13.529  68.649  1.00  0.00    -0.341 OA 
HETATM   16  H   UNL     1      -9.188  14.391  69.033  1.00  0.00     0.000 HD 
ENDBRANCH   2   4
TORSDOF 1
ENDMDL
MODEL       59
REMARK 921   NORMALIZED FREE ENERGY PREDICTED BY IDOCK:   -3.83 KCAL/MOL
REMARK 922        TOTAL FREE ENERGY PREDICTED BY IDOCK:   -4.28 KCAL/MOL
REMARK 923 INTER-LIGAND FREE ENERGY PREDICTED BY IDOCK:   -4.23 KCAL/MOL
REMARK 924 INTRA-LIGAND FREE ENERGY PREDICTED BY IDOCK:   -0.05 KCAL/MOL
REMARK 927      BINDING AFFINITY PREDICTED BY RF-SCORE:    0.00 PKD
ROOT
HETATM    1  O   UNL     1     -11.414  15.041  64.323  1.00  0.00    -0.633 OA 
HETATM    2  C   UNL     1     -10.512  15.374  65.378  1.00  0.00    -0.402 C  
HETATM    3  H   UNL     1     -10.987  15.071  63.475  1.00  0.00     0.000 HD 
ENDROOT
BRANCH   2   4
HETATM    4  C   UNL     1     -11.203  15.326  66.747  1.00  0.00    -0.241 C  
HETATM    5  O   UNL     1     -12.059  14.162  66.774  1.00  0.00    -0.429 OA 
HETATM    6  C   UNL     1     -11.553  12.950  67.095  1.00  0.00    -0.363 C  
HETATM    7  C   UNL     1     -10.549  12.897  68.238  1.00  0.00    -0.246 C  
HETATM    8  O   UNL     1     -12.032  11.921  66.620  1.00  0.00    -0.601 OA 
HETATM    9  O   UNL     1     -11.253  12.843  69.486  1.00  0.00    -0.424 OA 
HETATM   10  C   UNL     1      -9.572  14.071  68.257  1.00  0.00    -0.224 C  
HETATM   11  C   UNL     1     -10.261  15.406  67.956  1.00  0.00    -0.235 C  
HETATM   12  H   UNL     1     -10.626  12.810  70.199  1.00  0.00     0.000 HD 
HETATM   13  O   UNL     1      -8.449  13.840  67.402  1.00  0.00    -0.181 OA 
HETATM   14  H   UNL     1      -7.841  14.570  67.414  1.00  0.00     0.000 HD 
HETATM   15  O   UNL     1     -11.051  15.843  69.074  1.00  0.00    -0.253 OA 
HETATM   16  H   UNL     1     -10.467  15.892  69.823  1.00  0.00     0.000 HD 
ENDBRANCH   2   4
TORSDOF 1
ENDMDL
MODEL       60
REMARK 921   NORMALIZED FREE ENERGY PREDICTED BY IDOCK:   -3.82 KCAL/MOL
REMARK 922        TOTAL FREE ENERGY PREDICTED BY IDOCK:   -4.28 KCAL/MOL
REMARK 923 INTER-LIGAND FREE ENERGY PREDICTED BY IDOCK:   -4.25 KCAL/MOL
REMARK 924 INTRA-LIGAND FREE ENERGY PREDICTED BY IDOCK:   -0.03 KCAL/MOL
REMARK 927      BINDING AFFINITY PREDICTED BY RF-SCORE:    0.00 PKD
ROOT
HETATM    1  O   UNL     1     -12.341  11.085  68.967  1.00  0.00    -0.633 OA 
HETATM    2  C   UNL     1     -11.703  11.138  67.691  1.00  0.00    -0.083 C  
HETATM    3  H   UNL     1     -12.775  10.252  69.107  1.00  0.00     0.000 HD 
ENDROOT
BRANCH   2   4
HETATM    4  C   UNL     1     -11.003  12.484  67.465  1.00  0.00    -0.251 C  
HETATM    5  O   UNL     1      -9.776  12.234  66.743  1.00  0.00    -0.204 OA 
HETATM    6  C   UNL     1      -9.789  12.125  65.395  1.00  0.00    -0.211 C  
HETATM    7  C   UNL     1     -10.667  13.102  64.628  1.00  0.00    -0.380 C  
HETATM    8  O   UNL     1      -8.978  11.405  64.813  1.00  0.00    -0.039 OA 
HETATM    9  O   UNL     1      -9.956  14.333  64.440  1.00  0.00    -0.634 OA 
HETATM   10  C   UNL     1     -12.007  13.388  65.300  1.00  0.00    -0.380 C  
HETATM   11  C   UNL     1     -11.870  13.570  66.816  1.00  0.00    -0.406 C  
HETATM   12  H   UNL     1     -10.504  14.943  63.961  1.00  0.00     0.000 HD 
HETATM   13  O   UNL     1     -12.991  12.407  64.963  1.00  0.00    -0.705 OA 
HETATM   14  H   UNL     1     -13.825  12.585  65.382  1.00  0.00     0.000 HD 
HETATM   15  O   UNL     1     -11.265  14.835  67.131  1.00  0.00    -0.324 OA 
HETATM   16  H   UNL     1     -11.802  15.507  66.729  1.00  0.00     0.000 HD 
ENDBRANCH   2   4
TORSDOF 1
ENDMDL
MODEL       61
REMARK 921   NORMALIZED FREE ENERGY PREDICTED BY IDOCK:   -3.82 KCAL/MOL
REMARK 922        TOTAL FREE ENERGY PREDICTED BY IDOCK:   -4.27 KCAL/MOL
REMARK 923 INTER-LIGAND FREE ENERGY PREDICTED BY IDOCK:   -4.22 KCAL/MOL
REMARK 924 INTRA-LIGAND FREE ENERGY PREDICTED BY IDOCK:   -0.05 KCAL/MOL
REMARK 927      BINDING AFFINITY PREDICTED BY RF-SCORE:    0.00 PKD
ROOT
HETATM    1  O   UNL     1      -6.507  18.954  64.720  1.00  0.00    -0.504 OA 
HETATM    2  C   UNL     1      -6.892  18.330  65.945  1.00  0.00    -0.290 C  
HETATM    3  H   UNL     1      -6.239  18.315  64.071  1.00  0.00     0.000 HD 
ENDROOT
BRANCH   2   4
HETATM    4  C   UNL     1      -7.325  19.363  66.994  1.00  0.00    -0.213 C  
HETATM    5  O   UNL     1      -8.490  20.052  66.486  1.00  0.00    -0.319 OA 
HETATM    6  C   UNL     1      -9.722  19.517  66.647  1.00  0.00    -0.375 C  
HETATM    7  C   UNL     1     -10.029  18.871  67.990  1.00  0.00    -0.358 C  
HETATM    8  O   UNL     1     -10.610  19.723  65.821  1.00  0.00    -0.523 OA 
HETATM    9  O   UNL     1     -10.436  19.883  68.921  1.00  0.00    -0.582 OA 
HETATM   10  C   UNL     1      -8.862  18.081  68.578  1.00  0.00    -0.295 C  
HETATM   11  C   UNL     1      -7.524  18.810  68.410  1.00  0.00    -0.298 C  
HETATM   12  H   UNL     1     -10.628  19.479  69.759  1.00  0.00     0.000 HD 
HETATM   13  O   UNL     1      -8.814  16.747  68.067  1.00  0.00    -0.208 OA 
HETATM   14  H   UNL     1      -8.088  16.255  68.433  1.00  0.00     0.000 HD 
HETATM   15  O   UNL     1      -7.428  19.924  69.313  1.00  0.00    -0.258 OA 
HETATM   16  H   UNL     1      -7.551  19.582  70.191  1.00  0.00     0.000 HD 
ENDBRANCH   2   4
TORSDOF 1
ENDMDL
MODEL       62
REMARK 921   NORMALIZED FREE ENERGY PREDICTED BY IDOCK:   -3.80 KCAL/MOL
REMARK 922        TOTAL FREE ENERGY PREDICTED BY IDOCK:   -4.25 KCAL/MOL
REMARK 923 INTER-LIGAND FREE ENERGY PREDICTED BY IDOCK:   -4.48 KCAL/MOL
REMARK 924 INTRA-LIGAND FREE ENERGY PREDICTED BY IDOCK:    0.22 KCAL/MOL
REMARK 927      BINDING AFFINITY PREDICTED BY RF-SCORE:    0.00 PKD
ROOT
HETATM    1  O   UNL     1      -7.145  16.952  68.222  1.00  0.00    -0.168 OA 
HETATM    2  C   UNL     1      -7.206  18.375  68.135  1.00  0.00    -0.261 C  
HETATM    3  H   UNL     1      -6.749  16.668  69.038  1.00  0.00     0.000 HD 
ENDROOT
BRANCH   2   4
HETATM    4  C   UNL     1      -7.846  18.832  66.817  1.00  0.00    -0.245 C  
HETATM    5  O   UNL     1      -7.987  17.673  65.964  1.00  0.00    -0.474 OA 
HETATM    6  C   UNL     1      -9.060  16.861  66.091  1.00  0.00    -0.230 C  
HETATM    7  C   UNL     1     -10.411  17.524  66.314  1.00  0.00    -0.283 C  
HETATM    8  O   UNL     1      -8.974  15.660  65.837  1.00  0.00    -0.320 OA 
HETATM    9  O   UNL     1     -10.961  17.918  65.050  1.00  0.00    -0.776 OA 
HETATM   10  C   UNL     1     -10.360  18.734  67.244  1.00  0.00    -0.416 C  
HETATM   11  C   UNL     1      -9.148  19.629  66.966  1.00  0.00    -0.326 C  
HETATM   12  H   UNL     1     -11.805  18.332  65.189  1.00  0.00     0.000 HD 
HETATM   13  O   UNL     1     -10.442  18.350  68.618  1.00  0.00    -0.385 OA 
HETATM   14  H   UNL     1     -10.410  19.103  69.197  1.00  0.00     0.000 HD 
HETATM   15  O   UNL     1      -9.325  20.375  65.751  1.00  0.00    -0.592 OA 
HETATM   16  H   UNL     1     -10.131  20.869  65.843  1.00  0.00     0.000 HD 
ENDBRANCH   2   4
TORSDOF 1
ENDMDL
MODEL       63
REMARK 921   NORMALIZED FREE ENERGY PREDICTED BY IDOCK:   -3.80 KCAL/MOL
REMARK 922        TOTAL FREE ENERGY PREDICTED BY IDOCK:   -4.25 KCAL/MOL
REMARK 923 INTER-LIGAND FREE ENERGY PREDICTED BY IDOCK:   -4.05 KCAL/MOL
REMARK 924 INTRA-LIGAND FREE ENERGY PREDICTED BY IDOCK:   -0.20 KCAL/MOL
REMARK 927      BINDING AFFINITY PREDICTED BY RF-SCORE:    0.00 PKD
ROOT
HETATM    1  O   UNL     1     -10.984   7.588  68.519  1.00  0.00    -0.422 OA 
HETATM    2  C   UNL     1     -10.636   8.433  67.422  1.00  0.00    -0.243 C  
HETATM    3  H   UNL     1     -11.482   6.832  68.233  1.00  0.00     0.000 HD 
ENDROOT
BRANCH   2   4
HETATM    4  C   UNL     1      -9.831   9.655  67.885  1.00  0.00    -0.154 C  
HETATM    5  O   UNL     1     -10.266  10.796  67.110  1.00  0.00    -0.196 OA 
HETATM    6  C   UNL     1     -11.361  11.496  67.483  1.00  0.00    -0.299 C  
HETATM    7  C   UNL     1     -11.539  11.765  68.970  1.00  0.00    -0.311 C  
HETATM    8  O   UNL     1     -12.066  12.057  66.646  1.00  0.00    -0.615 OA 
HETATM    9  O   UNL     1     -10.775  12.921  69.339  1.00  0.00    -0.438 OA 
HETATM   10  C   UNL     1     -11.146  10.591  69.863  1.00  0.00    -0.307 C  
HETATM   11  C   UNL     1      -9.852   9.914  69.397  1.00  0.00    -0.217 C  
HETATM   12  H   UNL     1     -10.887  13.089  70.267  1.00  0.00     0.000 HD 
HETATM   13  O   UNL     1     -12.217   9.656  70.013  1.00  0.00    -0.460 OA 
HETATM   14  H   UNL     1     -11.972   8.925  70.568  1.00  0.00     0.000 HD 
HETATM   15  O   UNL     1      -8.707  10.729  69.698  1.00  0.00    -0.391 OA 
HETATM   16  H   UNL     1      -8.720  10.890  70.635  1.00  0.00     0.000 HD 
ENDBRANCH   2   4
TORSDOF 1
ENDMDL
MODEL       64
REMARK 921   NORMALIZED FREE ENERGY PREDICTED BY IDOCK:   -3.79 KCAL/MOL
REMARK 922        TOTAL FREE ENERGY PREDICTED BY IDOCK:   -4.25 KCAL/MOL
REMARK 923 INTER-LIGAND FREE ENERGY PREDICTED BY IDOCK:   -4.11 KCAL/MOL
REMARK 924 INTRA-LIGAND FREE ENERGY PREDICTED BY IDOCK:   -0.13 KCAL/MOL
REMARK 927      BINDING AFFINITY PREDICTED BY RF-SCORE:    0.00 PKD
ROOT
HETATM    1  O   UNL     1     -10.161  14.342  64.414  1.00  0.00    -0.646 OA 
HETATM    2  C   UNL     1      -9.835  15.244  65.472  1.00  0.00    -0.326 C  
HETATM    3  H   UNL     1     -10.397  14.805  63.620  1.00  0.00     0.000 HD 
ENDROOT
BRANCH   2   4
HETATM    4  C   UNL     1      -9.454  14.494  66.755  1.00  0.00    -0.269 C  
HETATM    5  O   UNL     1      -9.438  15.448  67.841  1.00  0.00    -0.196 OA 
HETATM    6  C   UNL     1     -10.583  15.769  68.484  1.00  0.00    -0.253 C  
HETATM    7  C   UNL     1     -11.551  14.634  68.788  1.00  0.00    -0.317 C  
HETATM    8  O   UNL     1     -10.738  16.887  68.974  1.00  0.00    -0.328 OA 
HETATM    9  O   UNL     1     -11.150  13.981  70.000  1.00  0.00    -0.467 OA 
HETATM   10  C   UNL     1     -11.665  13.602  67.669  1.00  0.00    -0.363 C  
HETATM   11  C   UNL     1     -10.302  13.252  67.060  1.00  0.00    -0.246 C  
HETATM   12  H   UNL     1     -11.754  13.273  70.190  1.00  0.00     0.000 HD 
HETATM   13  O   UNL     1     -12.612  14.000  66.675  1.00  0.00    -0.516 OA 
HETATM   14  H   UNL     1     -12.683  13.357  65.978  1.00  0.00     0.000 HD 
HETATM   15  O   UNL     1      -9.534  12.429  67.953  1.00  0.00    -0.185 OA 
HETATM   16  H   UNL     1     -10.060  11.660  68.143  1.00  0.00     0.000 HD 
ENDBRANCH   2   4
TORSDOF 1
ENDMDL
MODEL       65
REMARK 921   NORMALIZED FREE ENERGY PREDICTED BY IDOCK:   -3.78 KCAL/MOL
REMARK 922        TOTAL FREE ENERGY PREDICTED BY IDOCK:   -4.24 KCAL/MOL
REMARK 923 INTER-LIGAND FREE ENERGY PREDICTED BY IDOCK:   -3.98 KCAL/MOL
REMARK 924 INTRA-LIGAND FREE ENERGY PREDICTED BY IDOCK:   -0.26 KCAL/MOL
REMARK 927      BINDING AFFINITY PREDICTED BY RF-SCORE:    0.00 PKD
ROOT
HETATM    1  O   UNL     1      -6.195  20.275  69.696  1.00  0.00    -0.336 OA 
HETATM    2  C   UNL     1      -6.183  20.601  68.306  1.00  0.00    -0.327 C  
HETATM    3  H   UNL     1      -5.331  20.358  70.081  1.00  0.00     0.000 HD 
ENDROOT
BRANCH   2   4
HETATM    4  C   UNL     1      -7.580  20.466  67.684  1.00  0.00    -0.288 C  
HETATM    5  O   UNL     1      -7.415  20.161  66.280  1.00  0.00    -0.277 OA 
HETATM    6  C   UNL     1      -7.220  18.886  65.878  1.00  0.00    -0.244 C  
HETATM    7  C   UNL     1      -8.047  17.807  66.563  1.00  0.00    -0.272 C  
HETATM    8  O   UNL     1      -6.556  18.636  64.873  1.00  0.00    -0.514 OA 
HETATM    9  O   UNL     1      -9.332  17.723  65.933  1.00  0.00    -0.514 OA 
HETATM   10  C   UNL     1      -8.231  18.028  68.063  1.00  0.00    -0.259 C  
HETATM   11  C   UNL     1      -8.522  19.493  68.403  1.00  0.00    -0.350 C  
HETATM   12  H   UNL     1      -9.848  17.049  66.360  1.00  0.00     0.000 HD 
HETATM   13  O   UNL     1      -7.130  17.510  68.814  1.00  0.00    -0.228 OA 
HETATM   14  H   UNL     1      -7.245  17.647  69.747  1.00  0.00     0.000 HD 
HETATM   15  O   UNL     1      -9.862  19.853  68.027  1.00  0.00    -0.375 OA 
HETATM   16  H   UNL     1     -10.447  19.250  68.473  1.00  0.00     0.000 HD 
ENDBRANCH   2   4
TORSDOF 1
ENDMDL
MODEL       66
REMARK 921   NORMALIZED FREE ENERGY PREDICTED BY IDOCK:   -3.78 KCAL/MOL
REMARK 922        TOTAL FREE ENERGY PREDICTED BY IDOCK:   -4.24 KCAL/MOL
REMARK 923 INTER-LIGAND FREE ENERGY PREDICTED BY IDOCK:   -4.18 KCAL/MOL
REMARK 924 INTRA-LIGAND FREE ENERGY PREDICTED BY IDOCK:   -0.06 KCAL/MOL
REMARK 927      BINDING AFFINITY PREDICTED BY RF-SCORE:    0.00 PKD
ROOT
HETATM    1  O   UNL     1      -5.830  16.469  66.652  1.00  0.00    -0.330 OA 
HETATM    2  C   UNL     1      -6.005  17.740  67.279  1.00  0.00    -0.137 C  
HETATM    3  H   UNL     1      -5.487  15.824  67.260  1.00  0.00     0.000 HD 
ENDROOT
BRANCH   2   4
HETATM    4  C   UNL     1      -6.558  18.781  66.297  1.00  0.00    -0.211 C  
HETATM    5  O   UNL     1      -7.643  18.169  65.562  1.00  0.00    -0.527 OA 
HETATM    6  C   UNL     1      -8.889  18.141  66.084  1.00  0.00    -0.083 C  
HETATM    7  C   UNL     1      -9.372  19.396  66.797  1.00  0.00    -0.333 C  
HETATM    8  O   UNL     1      -9.663  17.221  65.819  1.00  0.00    -0.530 OA 
HETATM    9  O   UNL     1      -9.886  20.322  65.831  1.00  0.00    -0.617 OA 
HETATM   10  C   UNL     1      -8.298  20.082  67.637  1.00  0.00    -0.319 C  
HETATM   11  C   UNL     1      -6.943  20.127  66.923  1.00  0.00    -0.231 C  
HETATM   12  H   UNL     1     -10.188  21.106  66.276  1.00  0.00     0.000 HD 
HETATM   13  O   UNL     1      -8.198  19.508  68.942  1.00  0.00    -0.359 OA 
HETATM   14  H   UNL     1      -7.530  19.935  69.465  1.00  0.00     0.000 HD 
HETATM   15  O   UNL     1      -6.952  21.096  65.861  1.00  0.00    -0.504 OA 
HETATM   16  H   UNL     1      -7.190  21.931  66.248  1.00  0.00     0.000 HD 
ENDBRANCH   2   4
TORSDOF 1
ENDMDL
MODEL       67
REMARK 921   NORMALIZED FREE ENERGY PREDICTED BY IDOCK:   -3.76 KCAL/MOL
REMARK 922        TOTAL FREE ENERGY PREDICTED BY IDOCK:   -4.21 KCAL/MOL
REMARK 923 INTER-LIGAND FREE ENERGY PREDICTED BY IDOCK:   -4.18 KCAL/MOL
REMARK 924 INTRA-LIGAND FREE ENERGY PREDICTED BY IDOCK:   -0.03 KCAL/MOL
REMARK 927      BINDING AFFINITY PREDICTED BY RF-SCORE:    0.00 PKD
ROOT
HETATM    1  O   UNL     1     -10.797  10.970  62.817  1.00  0.00    -0.780 OA 
HETATM    2  C   UNL     1     -10.237  11.916  63.728  1.00  0.00    -0.413 C  
HETATM    3  H   UNL     1     -10.469  11.099  61.935  1.00  0.00     0.000 HD 
ENDROOT
BRANCH   2   4
HETATM    4  C   UNL     1     -10.767  11.707  65.153  1.00  0.00    -0.296 C  
HETATM    5  O   UNL     1      -9.762  10.986  65.902  1.00  0.00    -0.206 OA 
HETATM    6  C   UNL     1      -8.739  11.651  66.484  1.00  0.00    -0.182 C  
HETATM    7  C   UNL     1      -9.068  12.970  67.169  1.00  0.00    -0.225 C  
HETATM    8  O   UNL     1      -7.640  11.117  66.626  1.00  0.00    -0.139 OA 
HETATM    9  O   UNL     1      -9.546  12.711  68.495  1.00  0.00    -0.325 OA 
HETATM   10  C   UNL     1     -10.091  13.819  66.417  1.00  0.00    -0.295 C  
HETATM   11  C   UNL     1     -11.247  12.979  65.863  1.00  0.00    -0.289 C  
HETATM   12  H   UNL     1      -9.751  13.534  68.922  1.00  0.00     0.000 HD 
HETATM   13  O   UNL     1      -9.475  14.620  65.406  1.00  0.00    -0.498 OA 
HETATM   14  H   UNL     1     -10.112  15.148  64.938  1.00  0.00     0.000 HD 
HETATM   15  O   UNL     1     -12.133  12.564  66.915  1.00  0.00    -0.537 OA 
HETATM   16  H   UNL     1     -12.431  13.352  67.355  1.00  0.00     0.000 HD 
ENDBRANCH   2   4
TORSDOF 1
ENDMDL
MODEL       68
REMARK 921   NORMALIZED FREE ENERGY PREDICTED BY IDOCK:   -3.74 KCAL/MOL
REMARK 922        TOTAL FREE ENERGY PREDICTED BY IDOCK:   -4.19 KCAL/MOL
REMARK 923 INTER-LIGAND FREE ENERGY PREDICTED BY IDOCK:   -3.94 KCAL/MOL
REMARK 924 INTRA-LIGAND FREE ENERGY PREDICTED BY IDOCK:   -0.25 KCAL/MOL
REMARK 927      BINDING AFFINITY PREDICTED BY RF-SCORE:    0.00 PKD
ROOT
HETATM    1  O   UNL     1      -9.271  15.125  69.854  1.00  0.00    -0.453 OA 
HETATM    2  C   UNL     1      -9.069  14.892  68.460  1.00  0.00    -0.191 C  
HETATM    3  H   UNL     1      -9.733  14.404  70.265  1.00  0.00     0.000 HD 
ENDROOT
BRANCH   2   4
HETATM    4  C   UNL     1      -8.323  16.058  67.796  1.00  0.00    -0.150 C  
HETATM    5  O   UNL     1      -8.776  16.154  66.426  1.00  0.00    -0.265 OA 
HETATM    6  C   UNL     1      -9.906  16.834  66.128  1.00  0.00    -0.309 C  
HETATM    7  C   UNL     1     -10.138  18.149  66.858  1.00  0.00    -0.357 C  
HETATM    8  O   UNL     1     -10.605  16.505  65.170  1.00  0.00    -0.632 OA 
HETATM    9  O   UNL     1      -9.427  19.198  66.186  1.00  0.00    -0.377 OA 
HETATM   10  C   UNL     1      -9.729  18.120  68.329  1.00  0.00    -0.337 C  
HETATM   11  C   UNL     1      -8.399  17.393  68.548  1.00  0.00    -0.271 C  
HETATM   12  H   UNL     1      -9.573  20.018  66.642  1.00  0.00     0.000 HD 
HETATM   13  O   UNL     1     -10.770  17.599  69.159  1.00  0.00    -0.366 OA 
HETATM   14  H   UNL     1     -10.516  17.581  70.074  1.00  0.00     0.000 HD 
HETATM   15  O   UNL     1      -7.293  18.192  68.095  1.00  0.00    -0.236 OA 
HETATM   16  H   UNL     1      -7.340  19.019  68.561  1.00  0.00     0.000 HD 
ENDBRANCH   2   4
TORSDOF 1
ENDMDL
MODEL       69
REMARK 921   NORMALIZED FREE ENERGY PREDICTED BY IDOCK:   -3.73 KCAL/MOL
REMARK 922        TOTAL FREE ENERGY PREDICTED BY IDOCK:   -4.18 KCAL/MOL
REMARK 923 INTER-LIGAND FREE ENERGY PREDICTED BY IDOCK:   -4.15 KCAL/MOL
REMARK 924 INTRA-LIGAND FREE ENERGY PREDICTED BY IDOCK:   -0.03 KCAL/MOL
REMARK 927      BINDING AFFINITY PREDICTED BY RF-SCORE:    0.00 PKD
ROOT
HETATM    1  O   UNL     1      -7.265  18.450  65.825  1.00  0.00    -0.433 OA 
HETATM    2  C   UNL     1      -7.778  17.152  66.124  1.00  0.00    -0.267 C  
HETATM    3  H   UNL     1      -6.462  18.401  65.320  1.00  0.00     0.000 HD 
ENDROOT
BRANCH   2   4
HETATM    4  C   UNL     1      -9.074  17.232  66.941  1.00  0.00    -0.236 C  
HETATM    5  O   UNL     1     -10.174  17.398  66.017  1.00  0.00    -0.420 OA 
HETATM    6  C   UNL     1     -10.731  16.320  65.420  1.00  0.00    -0.327 C  
HETATM    7  C   UNL     1     -10.940  15.081  66.279  1.00  0.00    -0.338 C  
HETATM    8  O   UNL     1     -11.226  16.407  64.297  1.00  0.00    -0.861 OA 
HETATM    9  O   UNL     1     -12.169  15.210  67.007  1.00  0.00    -0.175 OA 
HETATM   10  C   UNL     1      -9.799  14.805  67.254  1.00  0.00    -0.230 C  
HETATM   11  C   UNL     1      -9.292  16.082  67.932  1.00  0.00    -0.208 C  
HETATM   12  H   UNL     1     -12.300  14.437  67.543  1.00  0.00     0.000 HD 
HETATM   13  O   UNL     1      -8.741  14.067  66.638  1.00  0.00    -0.416 OA 
HETATM   14  H   UNL     1      -8.030  13.895  67.245  1.00  0.00     0.000 HD 
HETATM   15  O   UNL     1     -10.228  16.550  68.917  1.00  0.00    -0.235 OA 
HETATM   16  H   UNL     1     -10.364  15.837  69.532  1.00  0.00     0.000 HD 
ENDBRANCH   2   4
TORSDOF 1
ENDMDL
MODEL       70
REMARK 921   NORMALIZED FREE ENERGY PREDICTED BY IDOCK:   -3.73 KCAL/MOL
REMARK 922        TOTAL FREE ENERGY PREDICTED BY IDOCK:   -4.18 KCAL/MOL
REMARK 923 INTER-LIGAND FREE ENERGY PREDICTED BY IDOCK:   -3.92 KCAL/MOL
REMARK 924 INTRA-LIGAND FREE ENERGY PREDICTED BY IDOCK:   -0.26 KCAL/MOL
REMARK 927      BINDING AFFINITY PREDICTED BY RF-SCORE:    0.00 PKD
ROOT
HETATM    1  O   UNL     1     -12.737  15.500  69.767  1.00  0.00    -0.616 OA 
HETATM    2  C   UNL     1     -11.472  14.874  69.981  1.00  0.00    -0.278 C  
HETATM    3  H   UNL     1     -13.379  15.218  70.407  1.00  0.00     0.000 HD 
ENDROOT
BRANCH   2   4
HETATM    4  C   UNL     1     -10.435  15.330  68.945  1.00  0.00    -0.241 C  
HETATM    5  O   UNL     1      -9.474  14.263  68.776  1.00  0.00    -0.197 OA 
HETATM    6  C   UNL     1      -9.731  13.243  67.927  1.00  0.00    -0.224 C  
HETATM    7  C   UNL     1     -10.375  13.594  66.594  1.00  0.00    -0.275 C  
HETATM    8  O   UNL     1      -9.283  12.117  68.141  1.00  0.00    -0.187 OA 
HETATM    9  O   UNL     1      -9.358  14.001  65.668  1.00  0.00    -0.510 OA 
HETATM   10  C   UNL     1     -11.439  14.685  66.689  1.00  0.00    -0.357 C  
HETATM   11  C   UNL     1     -11.017  15.829  67.617  1.00  0.00    -0.302 C  
HETATM   12  H   UNL     1      -9.760  14.220  64.836  1.00  0.00     0.000 HD 
HETATM   13  O   UNL     1     -12.717  14.150  67.043  1.00  0.00    -0.482 OA 
HETATM   14  H   UNL     1     -13.379  14.828  67.102  1.00  0.00     0.000 HD 
HETATM   15  O   UNL     1     -10.010  16.649  67.000  1.00  0.00    -0.256 OA 
HETATM   16  H   UNL     1     -10.371  16.958  66.176  1.00  0.00     0.000 HD 
ENDBRANCH   2   4
TORSDOF 1
ENDMDL
MODEL       71
REMARK 921   NORMALIZED FREE ENERGY PREDICTED BY IDOCK:   -3.72 KCAL/MOL
REMARK 922        TOTAL FREE ENERGY PREDICTED BY IDOCK:   -4.17 KCAL/MOL
REMARK 923 INTER-LIGAND FREE ENERGY PREDICTED BY IDOCK:   -3.95 KCAL/MOL
REMARK 924 INTRA-LIGAND FREE ENERGY PREDICTED BY IDOCK:   -0.22 KCAL/MOL
REMARK 927      BINDING AFFINITY PREDICTED BY RF-SCORE:    0.00 PKD
ROOT
HETATM    1  O   UNL     1     -12.782  14.184  66.451  1.00  0.00    -0.529 OA 
HETATM    2  C   UNL     1     -11.447  14.344  65.971  1.00  0.00    -0.349 C  
HETATM    3  H   UNL     1     -13.418  14.542  65.843  1.00  0.00     0.000 HD 
ENDROOT
BRANCH   2   4
HETATM    4  C   UNL     1     -10.421  13.766  66.954  1.00  0.00    -0.272 C  
HETATM    5  O   UNL     1      -9.257  14.624  66.940  1.00  0.00    -0.225 OA 
HETATM    6  C   UNL     1      -9.221  15.736  67.707  1.00  0.00    -0.197 C  
HETATM    7  C   UNL     1      -9.783  15.626  69.117  1.00  0.00    -0.249 C  
HETATM    8  O   UNL     1      -8.584  16.727  67.351  1.00  0.00    -0.189 OA 
HETATM    9  O   UNL     1      -8.778  15.092  69.989  1.00  0.00    -0.393 OA 
HETATM   10  C   UNL     1     -11.045  14.772  69.215  1.00  0.00    -0.266 C  
HETATM   11  C   UNL     1     -10.952  13.499  68.368  1.00  0.00    -0.266 C  
HETATM   12  H   UNL     1      -9.128  15.023  70.869  1.00  0.00     0.000 HD 
HETATM   13  O   UNL     1     -12.222  15.529  68.920  1.00  0.00    -0.590 OA 
HETATM   14  H   UNL     1     -13.007  14.998  68.981  1.00  0.00     0.000 HD 
HETATM   15  O   UNL     1     -10.069  12.540  68.974  1.00  0.00    -0.424 OA 
HETATM   16  H   UNL     1     -10.397  12.375  69.850  1.00  0.00     0.000 HD 
ENDBRANCH   2   4
TORSDOF 1
ENDMDL
MODEL       72
REMARK 921   NORMALIZED FREE ENERGY PREDICTED BY IDOCK:   -3.71 KCAL/MOL
REMARK 922        TOTAL FREE ENERGY PREDICTED BY IDOCK:   -4.16 KCAL/MOL
REMARK 923 INTER-LIGAND FREE ENERGY PREDICTED BY IDOCK:   -4.14 KCAL/MOL
REMARK 924 INTRA-LIGAND FREE ENERGY PREDICTED BY IDOCK:   -0.02 KCAL/MOL
REMARK 927      BINDING AFFINITY PREDICTED BY RF-SCORE:    0.00 PKD
ROOT
HETATM    1  O   UNL     1     -13.142  14.559  65.280  1.00  0.00    -0.524 OA 
HETATM    2  C   UNL     1     -12.320  13.447  65.634  1.00  0.00    -0.470 C  
HETATM    3  H   UNL     1     -13.344  14.564  64.352  1.00  0.00     0.000 HD 
ENDROOT
BRANCH   2   4
HETATM    4  C   UNL     1     -11.995  13.440  67.134  1.00  0.00    -0.366 C  
HETATM    5  O   UNL     1     -12.149  12.087  67.617  1.00  0.00    -0.547 OA 
HETATM    6  C   UNL     1     -11.137  11.199  67.493  1.00  0.00    -0.291 C  
HETATM    7  C   UNL     1      -9.729  11.706  67.773  1.00  0.00    -0.173 C  
HETATM    8  O   UNL     1     -11.365   9.998  67.357  1.00  0.00    -0.187 OA 
HETATM    9  O   UNL     1      -9.483  11.666  69.185  1.00  0.00    -0.407 OA 
HETATM   10  C   UNL     1      -9.466  13.117  67.252  1.00  0.00    -0.225 C  
HETATM   11  C   UNL     1     -10.644  14.062  67.511  1.00  0.00    -0.260 C  
HETATM   12  H   UNL     1      -8.604  11.983  69.359  1.00  0.00     0.000 HD 
HETATM   13  O   UNL     1      -9.074  13.110  65.877  1.00  0.00    -0.447 OA 
HETATM   14  H   UNL     1      -8.910  13.988  65.553  1.00  0.00     0.000 HD 
HETATM   15  O   UNL     1     -10.721  14.421  68.900  1.00  0.00    -0.242 OA 
HETATM   16  H   UNL     1      -9.885  14.807  69.134  1.00  0.00     0.000 HD 
ENDBRANCH   2   4
TORSDOF 1
ENDMDL
MODEL       73
REMARK 921   NORMALIZED FREE ENERGY PREDICTED BY IDOCK:   -3.70 KCAL/MOL
REMARK 922        TOTAL FREE ENERGY PREDICTED BY IDOCK:   -4.15 KCAL/MOL
REMARK 923 INTER-LIGAND FREE ENERGY PREDICTED BY IDOCK:   -4.10 KCAL/MOL
REMARK 924 INTRA-LIGAND FREE ENERGY PREDICTED BY IDOCK:   -0.05 KCAL/MOL
REMARK 927      BINDING AFFINITY PREDICTED BY RF-SCORE:    0.00 PKD
ROOT
HETATM    1  O   UNL     1     -10.106   6.963  74.538  1.00  0.00    -0.472 OA 
HETATM    2  C   UNL     1     -10.671   6.416  73.346  1.00  0.00    -0.262 C  
HETATM    3  H   UNL     1      -9.580   6.322  75.001  1.00  0.00     0.000 HD 
ENDROOT
BRANCH   2   4
HETATM    4  C   UNL     1     -11.522   7.452  72.599  1.00  0.00    -0.291 C  
HETATM    5  O   UNL     1     -10.685   8.597  72.318  1.00  0.00    -0.344 OA 
HETATM    6  C   UNL     1      -9.888   8.608  71.226  1.00  0.00    -0.238 C  
HETATM    7  C   UNL     1     -10.468   8.045  69.937  1.00  0.00    -0.233 C  
HETATM    8  O   UNL     1      -8.823   9.224  71.229  1.00  0.00    -0.290 OA 
HETATM    9  O   UNL     1     -11.241   9.059  69.281  1.00  0.00    -0.438 OA 
HETATM   10  C   UNL     1     -11.331   6.801  70.138  1.00  0.00    -0.350 C  
HETATM   11  C   UNL     1     -12.251   6.923  71.357  1.00  0.00    -0.372 C  
HETATM   12  H   UNL     1     -11.603   8.708  68.476  1.00  0.00     0.000 HD 
HETATM   13  O   UNL     1     -10.542   5.609  70.178  1.00  0.00    -0.271 OA 
HETATM   14  H   UNL     1     -11.079   4.835  70.303  1.00  0.00     0.000 HD 
HETATM   15  O   UNL     1     -13.338   7.826  71.094  1.00  0.00    -0.539 OA 
HETATM   16  H   UNL     1     -13.791   7.498  70.325  1.00  0.00     0.000 HD 
ENDBRANCH   2   4
TORSDOF 1
ENDMDL
MODEL       74
REMARK 921   NORMALIZED FREE ENERGY PREDICTED BY IDOCK:   -3.68 KCAL/MOL
REMARK 922        TOTAL FREE ENERGY PREDICTED BY IDOCK:   -4.13 KCAL/MOL
REMARK 923 INTER-LIGAND FREE ENERGY PREDICTED BY IDOCK:   -4.10 KCAL/MOL
REMARK 924 INTRA-LIGAND FREE ENERGY PREDICTED BY IDOCK:   -0.04 KCAL/MOL
REMARK 927      BINDING AFFINITY PREDICTED BY RF-SCORE:    0.00 PKD
ROOT
HETATM    1  O   UNL     1     -11.367  14.457  70.526  1.00  0.00    -0.469 OA 
HETATM    2  C   UNL     1     -12.156  13.840  69.509  1.00  0.00    -0.334 C  
HETATM    3  H   UNL     1     -11.635  14.178  71.394  1.00  0.00     0.000 HD 
ENDROOT
BRANCH   2   4
HETATM    4  C   UNL     1     -11.723  14.291  68.108  1.00  0.00    -0.350 C  
HETATM    5  O   UNL     1     -10.283  14.421  68.106  1.00  0.00    -0.223 OA 
HETATM    6  C   UNL     1      -9.501  13.340  67.894  1.00  0.00    -0.214 C  
HETATM    7  C   UNL     1      -9.947  12.360  66.818  1.00  0.00    -0.225 C  
HETATM    8  O   UNL     1      -8.385  13.259  68.405  1.00  0.00    -0.159 OA 
HETATM    9  O   UNL     1      -9.505  12.830  65.537  1.00  0.00    -0.461 OA 
HETATM   10  C   UNL     1     -11.455  12.128  66.780  1.00  0.00    -0.356 C  
HETATM   11  C   UNL     1     -12.248  13.427  66.954  1.00  0.00    -0.289 C  
HETATM   12  H   UNL     1      -9.783  12.218  64.865  1.00  0.00     0.000 HD 
HETATM   13  O   UNL     1     -11.860  11.122  67.712  1.00  0.00    -0.608 OA 
HETATM   14  H   UNL     1     -12.799  10.977  67.688  1.00  0.00     0.000 HD 
HETATM   15  O   UNL     1     -12.185  14.233  65.765  1.00  0.00    -0.408 OA 
HETATM   16  H   UNL     1     -12.511  13.698  65.050  1.00  0.00     0.000 HD 
ENDBRANCH   2   4
TORSDOF 1
ENDMDL
MODEL       75
REMARK 921   NORMALIZED FREE ENERGY PREDICTED BY IDOCK:   -3.68 KCAL/MOL
REMARK 922        TOTAL FREE ENERGY PREDICTED BY IDOCK:   -4.12 KCAL/MOL
REMARK 923 INTER-LIGAND FREE ENERGY PREDICTED BY IDOCK:   -3.87 KCAL/MOL
REMARK 924 INTRA-LIGAND FREE ENERGY PREDICTED BY IDOCK:   -0.25 KCAL/MOL
REMARK 927      BINDING AFFINITY PREDICTED BY RF-SCORE:    0.00 PKD
ROOT
HETATM    1  O   UNL     1      -8.740  14.231  67.285  1.00  0.00    -0.195 OA 
HETATM    2  C   UNL     1      -8.521  12.820  67.301  1.00  0.00    -0.194 C  
HETATM    3  H   UNL     1      -7.943  14.710  67.478  1.00  0.00     0.000 HD 
ENDROOT
BRANCH   2   4
HETATM    4  C   UNL     1      -9.810  12.047  66.990  1.00  0.00    -0.194 C  
HETATM    5  O   UNL     1      -9.745  10.777  67.678  1.00  0.00    -0.163 OA 
HETATM    6  C   UNL     1     -10.117  10.684  68.975  1.00  0.00    -0.213 C  
HETATM    7  C   UNL     1     -11.360  11.455  69.397  1.00  0.00    -0.297 C  
HETATM    8  O   UNL     1      -9.594   9.860  69.723  1.00  0.00    -0.212 OA 
HETATM    9  O   UNL     1     -12.526  10.679  69.092  1.00  0.00    -0.752 OA 
HETATM   10  C   UNL     1     -11.483  12.832  68.750  1.00  0.00    -0.304 C  
HETATM   11  C   UNL     1     -11.111  12.811  67.264  1.00  0.00    -0.276 C  
HETATM   12  H   UNL     1     -13.302  11.160  69.356  1.00  0.00     0.000 HD 
HETATM   13  O   UNL     1     -10.752  13.825  69.474  1.00  0.00    -0.444 OA 
HETATM   14  H   UNL     1     -10.829  14.683  69.071  1.00  0.00     0.000 HD 
HETATM   15  O   UNL     1     -12.140  12.181  66.484  1.00  0.00    -0.627 OA 
HETATM   16  H   UNL     1     -12.947  12.654  66.653  1.00  0.00     0.000 HD 
ENDBRANCH   2   4
TORSDOF 1
ENDMDL
MODEL       76
REMARK 921   NORMALIZED FREE ENERGY PREDICTED BY IDOCK:   -3.61 KCAL/MOL
REMARK 922        TOTAL FREE ENERGY PREDICTED BY IDOCK:   -4.06 KCAL/MOL
REMARK 923 INTER-LIGAND FREE ENERGY PREDICTED BY IDOCK:   -4.02 KCAL/MOL
REMARK 924 INTRA-LIGAND FREE ENERGY PREDICTED BY IDOCK:   -0.03 KCAL/MOL
REMARK 927      BINDING AFFINITY PREDICTED BY RF-SCORE:    0.00 PKD
ROOT
HETATM    1  O   UNL     1     -12.473  14.122  68.306  1.00  0.00    -0.538 OA 
HETATM    2  C   UNL     1     -11.297  13.424  67.895  1.00  0.00    -0.289 C  
HETATM    3  H   UNL     1     -12.278  15.016  68.560  1.00  0.00     0.000 HD 
ENDROOT
BRANCH   2   4
HETATM    4  C   UNL     1     -11.613  11.980  67.484  1.00  0.00    -0.330 C  
HETATM    5  O   UNL     1     -12.038  11.992  66.102  1.00  0.00    -0.582 OA 
HETATM    6  C   UNL     1     -11.123  11.972  65.107  1.00  0.00    -0.318 C  
HETATM    7  C   UNL     1      -9.923  11.054  65.286  1.00  0.00    -0.266 C  
HETATM    8  O   UNL     1     -11.354  12.516  64.028  1.00  0.00    -0.344 OA 
HETATM    9  O   UNL     1     -10.277   9.726  64.876  1.00  0.00    -0.310 OA 
HETATM   10  C   UNL     1      -9.379  11.017  66.712  1.00  0.00    -0.181 C  
HETATM   11  C   UNL     1     -10.497  10.965  67.759  1.00  0.00    -0.203 C  
HETATM   12  H   UNL     1      -9.527   9.152  64.988  1.00  0.00     0.000 HD 
HETATM   13  O   UNL     1      -8.462  12.086  66.957  1.00  0.00    -0.172 OA 
HETATM   14  H   UNL     1      -8.123  12.064  67.845  1.00  0.00     0.000 HD 
HETATM   15  O   UNL     1     -11.110   9.666  67.793  1.00  0.00    -0.489 OA 
HETATM   16  H   UNL     1     -10.419   9.036  67.964  1.00  0.00     0.000 HD 
ENDBRANCH   2   4
TORSDOF 1
ENDMDL
MODEL       77
REMARK 921   NORMALIZED FREE ENERGY PREDICTED BY IDOCK:   -3.61 KCAL/MOL
REMARK 922        TOTAL FREE ENERGY PREDICTED BY IDOCK:   -4.05 KCAL/MOL
REMARK 923 INTER-LIGAND FREE ENERGY PREDICTED BY IDOCK:   -4.02 KCAL/MOL
REMARK 924 INTRA-LIGAND FREE ENERGY PREDICTED BY IDOCK:   -0.03 KCAL/MOL
REMARK 927      BINDING AFFINITY PREDICTED BY RF-SCORE:    0.00 PKD
ROOT
HETATM    1  O   UNL     1      -7.581   8.971  72.129  1.00  0.00    -0.344 OA 
HETATM    2  C   UNL     1      -8.447   7.919  71.704  1.00  0.00    -0.116 C  
HETATM    3  H   UNL     1      -6.803   8.631  72.555  1.00  0.00     0.000 HD 
ENDROOT
BRANCH   2   4
HETATM    4  C   UNL     1      -9.705   8.467  71.016  1.00  0.00    -0.193 C  
HETATM    5  O   UNL     1     -10.160   7.479  70.064  1.00  0.00    -0.194 OA 
HETATM    6  C   UNL     1     -10.945   6.455  70.468  1.00  0.00    -0.306 C  
HETATM    7  C   UNL     1     -12.047   6.777  71.468  1.00  0.00    -0.363 C  
HETATM    8  O   UNL     1     -10.898   5.363  69.903  1.00  0.00    -0.298 OA 
HETATM    9  O   UNL     1     -13.194   7.274  70.766  1.00  0.00    -0.596 OA 
HETATM   10  C   UNL     1     -11.634   7.783  72.540  1.00  0.00    -0.367 C  
HETATM   11  C   UNL     1     -10.813   8.941  71.965  1.00  0.00    -0.334 C  
HETATM   12  H   UNL     1     -13.882   7.475  71.390  1.00  0.00     0.000 HD 
HETATM   13  O   UNL     1     -10.972   7.147  73.637  1.00  0.00    -0.549 OA 
HETATM   14  H   UNL     1     -10.715   7.772  74.304  1.00  0.00     0.000 HD 
HETATM   15  O   UNL     1     -11.646   9.844  71.219  1.00  0.00    -0.360 OA 
HETATM   16  H   UNL     1     -12.333  10.138  71.806  1.00  0.00     0.000 HD 
ENDBRANCH   2   4
TORSDOF 1
ENDMDL
MODEL       78
REMARK 921   NORMALIZED FREE ENERGY PREDICTED BY IDOCK:   -3.60 KCAL/MOL
REMARK 922        TOTAL FREE ENERGY PREDICTED BY IDOCK:   -4.05 KCAL/MOL
REMARK 923 INTER-LIGAND FREE ENERGY PREDICTED BY IDOCK:   -3.88 KCAL/MOL
REMARK 924 INTRA-LIGAND FREE ENERGY PREDICTED BY IDOCK:   -0.17 KCAL/MOL
REMARK 927      BINDING AFFINITY PREDICTED BY RF-SCORE:    0.00 PKD
ROOT
HETATM    1  O   UNL     1     -12.351  14.251  68.212  1.00  0.00    -0.592 OA 
HETATM    2  C   UNL     1     -11.010  14.180  68.694  1.00  0.00    -0.258 C  
HETATM    3  H   UNL     1     -12.979  14.244  68.925  1.00  0.00     0.000 HD 
ENDROOT
BRANCH   2   4
HETATM    4  C   UNL     1      -9.996  14.192  67.542  1.00  0.00    -0.236 C  
HETATM    5  O   UNL     1      -8.967  13.221  67.844  1.00  0.00    -0.180 OA 
HETATM    6  C   UNL     1      -9.151  11.917  67.540  1.00  0.00    -0.178 C  
HETATM    7  C   UNL     1      -9.805  11.600  66.203  1.00  0.00    -0.223 C  
HETATM    8  O   UNL     1      -8.633  11.032  68.221  1.00  0.00    -0.130 OA 
HETATM    9  O   UNL     1      -8.809  11.615  65.172  1.00  0.00    -0.398 OA 
HETATM   10  C   UNL     1     -10.938  12.553  65.828  1.00  0.00    -0.292 C  
HETATM   11  C   UNL     1     -10.597  14.013  66.143  1.00  0.00    -0.290 C  
HETATM   12  H   UNL     1      -9.217  11.417  64.337  1.00  0.00     0.000 HD 
HETATM   13  O   UNL     1     -12.181  12.153  66.409  1.00  0.00    -0.592 OA 
HETATM   14  H   UNL     1     -12.886  12.746  66.175  1.00  0.00     0.000 HD 
HETATM   15  O   UNL     1      -9.640  14.533  65.205  1.00  0.00    -0.512 OA 
HETATM   16  H   UNL     1     -10.013  14.423  64.338  1.00  0.00     0.000 HD 
ENDBRANCH   2   4
TORSDOF 1
ENDMDL
MODEL       79
REMARK 921   NORMALIZED FREE ENERGY PREDICTED BY IDOCK:   -3.60 KCAL/MOL
REMARK 922        TOTAL FREE ENERGY PREDICTED BY IDOCK:   -4.05 KCAL/MOL
REMARK 923 INTER-LIGAND FREE ENERGY PREDICTED BY IDOCK:   -3.80 KCAL/MOL
REMARK 924 INTRA-LIGAND FREE ENERGY PREDICTED BY IDOCK:   -0.25 KCAL/MOL
REMARK 927      BINDING AFFINITY PREDICTED BY RF-SCORE:    0.00 PKD
ROOT
HETATM    1  O   UNL     1     -13.041   6.997  71.964  1.00  0.00    -0.516 OA 
HETATM    2  C   UNL     1     -12.149   6.659  70.903  1.00  0.00    -0.320 C  
HETATM    3  H   UNL     1     -13.880   6.560  71.868  1.00  0.00     0.000 HD 
ENDROOT
BRANCH   2   4
HETATM    4  C   UNL     1     -10.795   7.365  71.058  1.00  0.00    -0.239 C  
HETATM    5  O   UNL     1     -10.194   7.472  69.747  1.00  0.00    -0.201 OA 
HETATM    6  C   UNL     1     -10.524   8.495  68.928  1.00  0.00    -0.188 C  
HETATM    7  C   UNL     1     -10.669   9.872  69.560  1.00  0.00    -0.242 C  
HETATM    8  O   UNL     1     -10.509   8.354  67.706  1.00  0.00    -0.236 OA 
HETATM    9  O   UNL     1      -9.377  10.483  69.668  1.00  0.00    -0.391 OA 
HETATM   10  C   UNL     1     -11.339   9.855  70.931  1.00  0.00    -0.370 C  
HETATM   11  C   UNL     1     -10.840   8.702  71.808  1.00  0.00    -0.325 C  
HETATM   12  H   UNL     1      -9.468  11.343  70.062  1.00  0.00     0.000 HD 
HETATM   13  O   UNL     1     -12.765   9.872  70.826  1.00  0.00    -0.441 OA 
HETATM   14  H   UNL     1     -13.182   9.861  71.679  1.00  0.00     0.000 HD 
HETATM   15  O   UNL     1      -9.510   8.958  72.288  1.00  0.00    -0.327 OA 
HETATM   16  H   UNL     1      -9.537   9.787  72.753  1.00  0.00     0.000 HD 
ENDBRANCH   2   4
TORSDOF 1
ENDMDL
MODEL       80
REMARK 921   NORMALIZED FREE ENERGY PREDICTED BY IDOCK:   -3.59 KCAL/MOL
REMARK 922        TOTAL FREE ENERGY PREDICTED BY IDOCK:   -4.04 KCAL/MOL
REMARK 923 INTER-LIGAND FREE ENERGY PREDICTED BY IDOCK:   -3.78 KCAL/MOL
REMARK 924 INTRA-LIGAND FREE ENERGY PREDICTED BY IDOCK:   -0.25 KCAL/MOL
REMARK 927      BINDING AFFINITY PREDICTED BY RF-SCORE:    0.00 PKD
ROOT
HETATM    1  O   UNL     1      -7.828  16.932  67.586  1.00  0.00    -0.168 OA 
HETATM    2  C   UNL     1      -7.917  15.576  67.151  1.00  0.00    -0.221 C  
HETATM    3  H   UNL     1      -7.128  17.051  68.218  1.00  0.00     0.000 HD 
ENDROOT
BRANCH   2   4
HETATM    4  C   UNL     1      -9.047  15.384  66.131  1.00  0.00    -0.304 C  
HETATM    5  O   UNL     1      -9.525  14.024  66.245  1.00  0.00    -0.278 OA 
HETATM    6  C   UNL     1     -10.446  13.701  67.181  1.00  0.00    -0.264 C  
HETATM    7  C   UNL     1     -11.586  14.685  67.402  1.00  0.00    -0.389 C  
HETATM    8  O   UNL     1     -10.469  12.578  67.681  1.00  0.00    -0.213 OA 
HETATM    9  O   UNL     1     -12.612  14.450  66.429  1.00  0.00    -0.496 OA 
HETATM   10  C   UNL     1     -11.158  16.150  67.345  1.00  0.00    -0.134 C  
HETATM   11  C   UNL     1     -10.173  16.423  66.203  1.00  0.00    -0.348 C  
HETATM   12  H   UNL     1     -13.323  15.064  66.567  1.00  0.00     0.000 HD 
HETATM   13  O   UNL     1     -10.661  16.607  68.605  1.00  0.00    -0.310 OA 
HETATM   14  H   UNL     1     -10.395  17.519  68.569  1.00  0.00     0.000 HD 
HETATM   15  O   UNL     1     -10.841  16.406  64.930  1.00  0.00    -0.655 OA 
HETATM   16  H   UNL     1     -11.538  17.050  64.974  1.00  0.00     0.000 HD 
ENDBRANCH   2   4
TORSDOF 1
ENDMDL
MODEL       81
REMARK 921   NORMALIZED FREE ENERGY PREDICTED BY IDOCK:   -3.59 KCAL/MOL
REMARK 922        TOTAL FREE ENERGY PREDICTED BY IDOCK:   -4.03 KCAL/MOL
REMARK 923 INTER-LIGAND FREE ENERGY PREDICTED BY IDOCK:   -3.97 KCAL/MOL
REMARK 924 INTRA-LIGAND FREE ENERGY PREDICTED BY IDOCK:   -0.06 KCAL/MOL
REMARK 927      BINDING AFFINITY PREDICTED BY RF-SCORE:    0.00 PKD
ROOT
HETATM    1  O   UNL     1     -10.661  15.204  69.646  1.00  0.00    -0.256 OA 
HETATM    2  C   UNL     1      -9.980  15.073  68.398  1.00  0.00    -0.225 C  
HETATM    3  H   UNL     1     -10.331  14.590  70.291  1.00  0.00     0.000 HD 
ENDROOT
BRANCH   2   4
HETATM    4  C   UNL     1     -10.515  16.065  67.357  1.00  0.00    -0.308 C  
HETATM    5  O   UNL     1     -10.629  17.359  67.990  1.00  0.00    -0.371 OA 
HETATM    6  C   UNL     1      -9.554  18.175  68.073  1.00  0.00    -0.300 C  
HETATM    7  C   UNL     1      -8.651  18.259  66.851  1.00  0.00    -0.263 C  
HETATM    8  O   UNL     1      -9.428  18.959  69.013  1.00  0.00    -0.322 OA 
HETATM    9  O   UNL     1      -9.196  19.206  65.922  1.00  0.00    -0.436 OA 
HETATM   10  C   UNL     1      -8.438  16.922  66.145  1.00  0.00    -0.246 C  
HETATM   11  C   UNL     1      -9.733  16.110  66.038  1.00  0.00    -0.344 C  
HETATM   12  H   UNL     1      -8.632  19.259  65.160  1.00  0.00     0.000 HD 
HETATM   13  O   UNL     1      -7.379  16.170  66.743  1.00  0.00    -0.222 OA 
HETATM   14  H   UNL     1      -7.246  15.338  66.304  1.00  0.00     0.000 HD 
HETATM   15  O   UNL     1     -10.612  16.669  65.048  1.00  0.00    -0.683 OA 
HETATM   16  H   UNL     1     -10.127  16.697  64.231  1.00  0.00     0.000 HD 
ENDBRANCH   2   4
TORSDOF 1
ENDMDL
MODEL       82
REMARK 921   NORMALIZED FREE ENERGY PREDICTED BY IDOCK:   -3.55 KCAL/MOL
REMARK 922        TOTAL FREE ENERGY PREDICTED BY IDOCK:   -3.99 KCAL/MOL
REMARK 923 INTER-LIGAND FREE ENERGY PREDICTED BY IDOCK:   -3.74 KCAL/MOL
REMARK 924 INTRA-LIGAND FREE ENERGY PREDICTED BY IDOCK:   -0.25 KCAL/MOL
REMARK 927      BINDING AFFINITY PREDICTED BY RF-SCORE:    0.00 PKD
ROOT
HETATM    1  O   UNL     1      -8.026  11.326  67.631  1.00  0.00    -0.112 OA 
HETATM    2  C   UNL     1      -8.802  11.703  66.494  1.00  0.00    -0.188 C  
HETATM    3  H   UNL     1      -7.733  10.424  67.571  1.00  0.00     0.000 HD 
ENDROOT
BRANCH   2   4
HETATM    4  C   UNL     1      -9.274  13.160  66.593  1.00  0.00    -0.215 C  
HETATM    5  O   UNL     1     -10.489  13.288  65.818  1.00  0.00    -0.275 OA 
HETATM    6  C   UNL     1     -11.682  12.966  66.364  1.00  0.00    -0.395 C  
HETATM    7  C   UNL     1     -11.924  13.389  67.806  1.00  0.00    -0.324 C  
HETATM    8  O   UNL     1     -12.598  12.531  65.666  1.00  0.00    -0.612 OA 
HETATM    9  O   UNL     1     -12.373  14.751  67.832  1.00  0.00    -0.582 OA 
HETATM   10  C   UNL     1     -10.701  13.241  68.708  1.00  0.00    -0.227 C  
HETATM   11  C   UNL     1      -9.413  13.705  68.020  1.00  0.00    -0.209 C  
HETATM   12  H   UNL     1     -12.524  15.015  68.732  1.00  0.00     0.000 HD 
HETATM   13  O   UNL     1     -10.584  11.915  69.230  1.00  0.00    -0.418 OA 
HETATM   14  H   UNL     1      -9.823  11.822  69.791  1.00  0.00     0.000 HD 
HETATM   15  O   UNL     1      -9.365  15.138  67.928  1.00  0.00    -0.184 OA 
HETATM   16  H   UNL     1      -9.450  15.476  68.812  1.00  0.00     0.000 HD 
ENDBRANCH   2   4
TORSDOF 1
ENDMDL
MODEL       83
REMARK 921   NORMALIZED FREE ENERGY PREDICTED BY IDOCK:   -3.53 KCAL/MOL
REMARK 922        TOTAL FREE ENERGY PREDICTED BY IDOCK:   -3.97 KCAL/MOL
REMARK 923 INTER-LIGAND FREE ENERGY PREDICTED BY IDOCK:   -3.92 KCAL/MOL
REMARK 924 INTRA-LIGAND FREE ENERGY PREDICTED BY IDOCK:   -0.06 KCAL/MOL
REMARK 927      BINDING AFFINITY PREDICTED BY RF-SCORE:    0.00 PKD
ROOT
HETATM    1  O   UNL     1     -10.516  11.048  69.707  1.00  0.00    -0.444 OA 
HETATM    2  C   UNL     1     -10.318  11.017  68.293  1.00  0.00    -0.178 C  
HETATM    3  H   UNL     1      -9.840  10.563  70.165  1.00  0.00     0.000 HD 
ENDROOT
BRANCH   2   4
HETATM    4  C   UNL     1     -11.411  11.800  67.553  1.00  0.00    -0.310 C  
HETATM    5  O   UNL     1     -11.594  13.062  68.235  1.00  0.00    -0.295 OA 
HETATM    6  C   UNL     1     -10.788  14.111  67.956  1.00  0.00    -0.246 C  
HETATM    7  C   UNL     1     -10.432  14.343  66.494  1.00  0.00    -0.289 C  
HETATM    8  O   UNL     1     -10.524  14.949  68.816  1.00  0.00    -0.228 OA 
HETATM    9  O   UNL     1     -11.483  15.087  65.862  1.00  0.00    -0.321 OA 
HETATM   10  C   UNL     1     -10.175  13.060  65.709  1.00  0.00    -0.290 C  
HETATM   11  C   UNL     1     -11.189  11.961  66.044  1.00  0.00    -0.324 C  
HETATM   12  H   UNL     1     -11.260  15.232  64.950  1.00  0.00     0.000 HD 
HETATM   13  O   UNL     1      -8.826  12.609  65.855  1.00  0.00    -0.394 OA 
HETATM   14  H   UNL     1      -8.666  11.810  65.366  1.00  0.00     0.000 HD 
HETATM   15  O   UNL     1     -12.471  12.246  65.460  1.00  0.00    -0.597 OA 
HETATM   16  H   UNL     1     -12.334  12.345  64.525  1.00  0.00     0.000 HD 
ENDBRANCH   2   4
TORSDOF 1
ENDMDL
MODEL       84
REMARK 921   NORMALIZED FREE ENERGY PREDICTED BY IDOCK:   -3.53 KCAL/MOL
REMARK 922        TOTAL FREE ENERGY PREDICTED BY IDOCK:   -3.97 KCAL/MOL
REMARK 923 INTER-LIGAND FREE ENERGY PREDICTED BY IDOCK:   -3.94 KCAL/MOL
REMARK 924 INTRA-LIGAND FREE ENERGY PREDICTED BY IDOCK:   -0.02 KCAL/MOL
REMARK 927      BINDING AFFINITY PREDICTED BY RF-SCORE:    0.00 PKD
ROOT
HETATM    1  O   UNL     1     -10.546  18.819  67.747  1.00  0.00    -0.410 OA 
HETATM    2  C   UNL     1     -10.193  17.509  67.303  1.00  0.00    -0.335 C  
HETATM    3  H   UNL     1     -10.398  19.469  67.070  1.00  0.00     0.000 HD 
ENDROOT
BRANCH   2   4
HETATM    4  C   UNL     1     -10.433  16.460  68.398  1.00  0.00    -0.298 C  
HETATM    5  O   UNL     1     -11.602  15.693  68.032  1.00  0.00    -0.332 OA 
HETATM    6  C   UNL     1     -11.492  14.644  67.186  1.00  0.00    -0.368 C  
HETATM    7  C   UNL     1     -10.291  13.727  67.369  1.00  0.00    -0.252 C  
HETATM    8  O   UNL     1     -12.421  14.335  66.441  1.00  0.00    -0.441 OA 
HETATM    9  O   UNL     1     -10.579  12.766  68.393  1.00  0.00    -0.236 OA 
HETATM   10  C   UNL     1      -8.998  14.463  67.712  1.00  0.00    -0.192 C  
HETATM   11  C   UNL     1      -9.221  15.582  68.735  1.00  0.00    -0.210 C  
HETATM   12  H   UNL     1      -9.829  12.194  68.507  1.00  0.00     0.000 HD 
HETATM   13  O   UNL     1      -8.327  14.932  66.540  1.00  0.00    -0.405 OA 
HETATM   14  H   UNL     1      -7.522  15.390  66.754  1.00  0.00     0.000 HD 
HETATM   15  O   UNL     1      -9.447  15.043  70.048  1.00  0.00    -0.462 OA 
HETATM   16  H   UNL     1      -8.696  14.499  70.258  1.00  0.00     0.000 HD 
ENDBRANCH   2   4
TORSDOF 1
ENDMDL
MODEL       85
REMARK 921   NORMALIZED FREE ENERGY PREDICTED BY IDOCK:   -3.51 KCAL/MOL
REMARK 922        TOTAL FREE ENERGY PREDICTED BY IDOCK:   -3.95 KCAL/MOL
REMARK 923 INTER-LIGAND FREE ENERGY PREDICTED BY IDOCK:   -3.91 KCAL/MOL
REMARK 924 INTRA-LIGAND FREE ENERGY PREDICTED BY IDOCK:   -0.04 KCAL/MOL
REMARK 927      BINDING AFFINITY PREDICTED BY RF-SCORE:    0.00 PKD
ROOT
HETATM    1  O   UNL     1     -10.826   9.726  67.691  1.00  0.00    -0.304 OA 
HETATM    2  C   UNL     1     -10.477  11.100  67.856  1.00  0.00    -0.190 C  
HETATM    3  H   UNL     1     -10.061   9.165  67.725  1.00  0.00     0.000 HD 
ENDROOT
BRANCH   2   4
HETATM    4  C   UNL     1     -11.715  12.006  67.800  1.00  0.00    -0.309 C  
HETATM    5  O   UNL     1     -12.502  11.760  68.987  1.00  0.00    -0.175 OA 
HETATM    6  C   UNL     1     -12.209  12.395  70.144  1.00  0.00    -0.229 C  
HETATM    7  C   UNL     1     -11.833  13.867  70.052  1.00  0.00    -0.315 C  
HETATM    8  O   UNL     1     -12.432  11.861  71.230  1.00  0.00    -0.312 OA 
HETATM    9  O   UNL     1     -13.027  14.660  70.014  1.00  0.00    -0.569 OA 
HETATM   10  C   UNL     1     -10.959  14.208  68.848  1.00  0.00    -0.259 C  
HETATM   11  C   UNL     1     -11.422  13.495  67.573  1.00  0.00    -0.329 C  
HETATM   12  H   UNL     1     -12.792  15.579  69.957  1.00  0.00     0.000 HD 
HETATM   13  O   UNL     1      -9.573  13.981  69.117  1.00  0.00    -0.411 OA 
HETATM   14  H   UNL     1      -9.029  14.193  68.368  1.00  0.00     0.000 HD 
HETATM   15  O   UNL     1     -12.628  14.086  67.062  1.00  0.00    -0.507 OA 
HETATM   16  H   UNL     1     -12.448  15.008  66.921  1.00  0.00     0.000 HD 
ENDBRANCH   2   4
TORSDOF 1
ENDMDL
MODEL       86
REMARK 921   NORMALIZED FREE ENERGY PREDICTED BY IDOCK:   -3.50 KCAL/MOL
REMARK 922        TOTAL FREE ENERGY PREDICTED BY IDOCK:   -3.94 KCAL/MOL
REMARK 923 INTER-LIGAND FREE ENERGY PREDICTED BY IDOCK:   -3.89 KCAL/MOL
REMARK 924 INTRA-LIGAND FREE ENERGY PREDICTED BY IDOCK:   -0.05 KCAL/MOL
REMARK 927      BINDING AFFINITY PREDICTED BY RF-SCORE:    0.00 PKD
ROOT
HETATM    1  O   UNL     1     -12.160  12.181  66.035  1.00  0.00    -0.612 OA 
HETATM    2  C   UNL     1     -12.173  13.588  66.277  1.00  0.00    -0.416 C  
HETATM    3  H   UNL     1     -12.256  11.984  65.111  1.00  0.00     0.000 HD 
ENDROOT
BRANCH   2   4
HETATM    4  C   UNL     1     -12.019  13.905  67.770  1.00  0.00    -0.355 C  
HETATM    5  O   UNL     1     -11.005  13.026  68.310  1.00  0.00    -0.239 OA 
HETATM    6  C   UNL     1      -9.697  13.349  68.206  1.00  0.00    -0.226 C  
HETATM    7  C   UNL     1      -9.320  14.804  68.442  1.00  0.00    -0.197 C  
HETATM    8  O   UNL     1      -8.836  12.474  68.122  1.00  0.00    -0.182 OA 
HETATM    9  O   UNL     1      -9.180  15.035  69.850  1.00  0.00    -0.460 OA 
HETATM   10  C   UNL     1     -10.316  15.804  67.861  1.00  0.00    -0.261 C  
HETATM   11  C   UNL     1     -11.770  15.382  68.100  1.00  0.00    -0.261 C  
HETATM   12  H   UNL     1      -8.944  15.944  69.998  1.00  0.00     0.000 HD 
HETATM   13  O   UNL     1     -10.055  16.073  66.481  1.00  0.00    -0.263 OA 
HETATM   14  H   UNL     1     -10.675  16.695  66.119  1.00  0.00     0.000 HD 
HETATM   15  O   UNL     1     -12.143  15.573  69.475  1.00  0.00    -0.415 OA 
HETATM   16  H   UNL     1     -11.988  16.488  69.680  1.00  0.00     0.000 HD 
ENDBRANCH   2   4
TORSDOF 1
ENDMDL
MODEL       87
REMARK 921   NORMALIZED FREE ENERGY PREDICTED BY IDOCK:   -3.50 KCAL/MOL
REMARK 922        TOTAL FREE ENERGY PREDICTED BY IDOCK:   -3.94 KCAL/MOL
REMARK 923 INTER-LIGAND FREE ENERGY PREDICTED BY IDOCK:   -3.92 KCAL/MOL
REMARK 924 INTRA-LIGAND FREE ENERGY PREDICTED BY IDOCK:   -0.02 KCAL/MOL
REMARK 927      BINDING AFFINITY PREDICTED BY RF-SCORE:    0.00 PKD
ROOT
HETATM    1  O   UNL     1     -12.510  14.580  68.866  1.00  0.00    -0.573 OA 
HETATM    2  C   UNL     1     -11.415  15.497  68.858  1.00  0.00    -0.354 C  
HETATM    3  H   UNL     1     -12.857  14.459  69.742  1.00  0.00     0.000 HD 
ENDROOT
BRANCH   2   4
HETATM    4  C   UNL     1     -10.854  15.691  67.442  1.00  0.00    -0.315 C  
HETATM    5  O   UNL     1     -11.014  17.083  67.086  1.00  0.00    -0.147 OA 
HETATM    6  C   UNL     1     -10.094  17.996  67.472  1.00  0.00    -0.351 C  
HETATM    7  C   UNL     1      -8.631  17.588  67.379  1.00  0.00    -0.220 C  
HETATM    8  O   UNL     1     -10.418  19.162  67.694  1.00  0.00    -0.396 OA 
HETATM    9  O   UNL     1      -8.163  17.802  66.040  1.00  0.00    -0.492 OA 
HETATM   10  C   UNL     1      -8.365  16.140  67.783  1.00  0.00    -0.154 C  
HETATM   11  C   UNL     1      -9.424  15.179  67.232  1.00  0.00    -0.210 C  
HETATM   12  H   UNL     1      -7.249  17.548  65.982  1.00  0.00     0.000 HD 
HETATM   13  O   UNL     1      -8.201  16.006  69.197  1.00  0.00    -0.226 OA 
HETATM   14  H   UNL     1      -8.035  15.105  69.449  1.00  0.00     0.000 HD 
HETATM   15  O   UNL     1      -9.253  14.979  65.819  1.00  0.00    -0.478 OA 
HETATM   16  H   UNL     1      -8.367  14.662  65.689  1.00  0.00     0.000 HD 
ENDBRANCH   2   4
TORSDOF 1
ENDMDL
MODEL       88
REMARK 921   NORMALIZED FREE ENERGY PREDICTED BY IDOCK:   -3.49 KCAL/MOL
REMARK 922        TOTAL FREE ENERGY PREDICTED BY IDOCK:   -3.93 KCAL/MOL
REMARK 923 INTER-LIGAND FREE ENERGY PREDICTED BY IDOCK:   -3.68 KCAL/MOL
REMARK 924 INTRA-LIGAND FREE ENERGY PREDICTED BY IDOCK:   -0.24 KCAL/MOL
REMARK 927      BINDING AFFINITY PREDICTED BY RF-SCORE:    0.00 PKD
ROOT
HETATM    1  O   UNL     1     -12.930  14.651  69.669  1.00  0.00    -0.520 OA 
HETATM    2  C   UNL     1     -12.035  15.736  69.424  1.00  0.00    -0.305 C  
HETATM    3  H   UNL     1     -13.315  14.705  70.536  1.00  0.00     0.000 HD 
ENDROOT
BRANCH   2   4
HETATM    4  C   UNL     1     -11.413  15.648  68.024  1.00  0.00    -0.291 C  
HETATM    5  O   UNL     1     -10.079  16.201  68.092  1.00  0.00    -0.230 OA 
HETATM    6  C   UNL     1      -9.042  15.433  68.496  1.00  0.00    -0.197 C  
HETATM    7  C   UNL     1      -8.997  14.001  67.982  1.00  0.00    -0.182 C  
HETATM    8  O   UNL     1      -8.082  15.929  69.084  1.00  0.00    -0.214 OA 
HETATM    9  O   UNL     1      -8.398  13.983  66.680  1.00  0.00    -0.418 OA 
HETATM   10  C   UNL     1     -10.363  13.323  67.922  1.00  0.00    -0.238 C  
HETATM   11  C   UNL     1     -11.452  14.256  67.380  1.00  0.00    -0.347 C  
HETATM   12  H   UNL     1      -8.369  13.089  66.359  1.00  0.00     0.000 HD 
HETATM   13  O   UNL     1     -10.726  12.747  69.179  1.00  0.00    -0.415 OA 
HETATM   14  H   UNL     1     -11.576  12.325  69.141  1.00  0.00     0.000 HD 
HETATM   15  O   UNL     1     -11.310  14.445  65.962  1.00  0.00    -0.324 OA 
HETATM   16  H   UNL     1     -11.334  13.583  65.563  1.00  0.00     0.000 HD 
ENDBRANCH   2   4
TORSDOF 1
ENDMDL
MODEL       89
REMARK 921   NORMALIZED FREE ENERGY PREDICTED BY IDOCK:   -3.49 KCAL/MOL
REMARK 922        TOTAL FREE ENERGY PREDICTED BY IDOCK:   -3.92 KCAL/MOL
REMARK 923 INTER-LIGAND FREE ENERGY PREDICTED BY IDOCK:   -3.68 KCAL/MOL
REMARK 924 INTRA-LIGAND FREE ENERGY PREDICTED BY IDOCK:   -0.24 KCAL/MOL
REMARK 927      BINDING AFFINITY PREDICTED BY RF-SCORE:    0.00 PKD
ROOT
HETATM    1  O   UNL     1      -8.973   7.507  68.478  1.00  0.00    -0.130 OA 
HETATM    2  C   UNL     1      -9.285   8.676  69.235  1.00  0.00    -0.150 C  
HETATM    3  H   UNL     1      -8.833   7.711  67.561  1.00  0.00     0.000 HD 
ENDROOT
BRANCH   2   4
HETATM    4  C   UNL     1      -9.511   8.346  70.716  1.00  0.00    -0.169 C  
HETATM    5  O   UNL     1     -10.325   9.395  71.288  1.00  0.00    -0.317 OA 
HETATM    6  C   UNL     1     -11.671   9.352  71.174  1.00  0.00    -0.345 C  
HETATM    7  C   UNL     1     -12.342   7.999  71.359  1.00  0.00    -0.306 C  
HETATM    8  O   UNL     1     -12.332  10.389  71.123  1.00  0.00    -0.331 OA 
HETATM    9  O   UNL     1     -12.535   7.753  72.758  1.00  0.00    -0.565 OA 
HETATM   10  C   UNL     1     -11.569   6.836  70.741  1.00  0.00    -0.366 C  
HETATM   11  C   UNL     1     -10.061   6.941  70.994  1.00  0.00    -0.193 C  
HETATM   12  H   UNL     1     -12.954   6.908  72.874  1.00  0.00     0.000 HD 
HETATM   13  O   UNL     1     -11.872   6.676  69.353  1.00  0.00    -0.651 OA 
HETATM   14  H   UNL     1     -11.391   5.952  68.968  1.00  0.00     0.000 HD 
HETATM   15  O   UNL     1      -9.744   6.629  72.360  1.00  0.00    -0.156 OA 
HETATM   16  H   UNL     1     -10.085   5.759  72.533  1.00  0.00     0.000 HD 
ENDBRANCH   2   4
TORSDOF 1
ENDMDL
MODEL       90
REMARK 921   NORMALIZED FREE ENERGY PREDICTED BY IDOCK:   -3.48 KCAL/MOL
REMARK 922        TOTAL FREE ENERGY PREDICTED BY IDOCK:   -3.92 KCAL/MOL
REMARK 923 INTER-LIGAND FREE ENERGY PREDICTED BY IDOCK:   -3.66 KCAL/MOL
REMARK 924 INTRA-LIGAND FREE ENERGY PREDICTED BY IDOCK:   -0.25 KCAL/MOL
REMARK 927      BINDING AFFINITY PREDICTED BY RF-SCORE:    0.00 PKD
ROOT
HETATM    1  O   UNL     1     -11.556   6.569  68.498  1.00  0.00    -0.539 OA 
HETATM    2  C   UNL     1     -10.290   6.868  69.086  1.00  0.00    -0.195 C  
HETATM    3  H   UNL     1     -11.638   6.952  67.633  1.00  0.00     0.000 HD 
ENDROOT
BRANCH   2   4
HETATM    4  C   UNL     1     -10.158   6.248  70.484  1.00  0.00    -0.189 C  
HETATM    5  O   UNL     1      -9.262   7.079  71.258  1.00  0.00    -0.152 OA 
HETATM    6  C   UNL     1      -9.729   8.176  71.894  1.00  0.00    -0.205 C  
HETATM    7  C   UNL     1     -11.075   8.054  72.592  1.00  0.00    -0.387 C  
HETATM    8  O   UNL     1      -9.008   9.158  72.068  1.00  0.00    -0.337 OA 
HETATM    9  O   UNL     1     -10.885   7.481  73.893  1.00  0.00    -0.534 OA 
HETATM   10  C   UNL     1     -12.100   7.228  71.819  1.00  0.00    -0.319 C  
HETATM   11  C   UNL     1     -11.485   5.968  71.201  1.00  0.00    -0.176 C  
HETATM   12  H   UNL     1     -11.726   7.405  74.329  1.00  0.00     0.000 HD 
HETATM   13  O   UNL     1     -12.795   8.017  70.850  1.00  0.00    -0.514 OA 
HETATM   14  H   UNL     1     -13.433   7.504  70.368  1.00  0.00     0.000 HD 
HETATM   15  O   UNL     1     -11.216   4.979  72.208  1.00  0.00    -0.118 OA 
HETATM   16  H   UNL     1     -12.038   4.805  72.653  1.00  0.00     0.000 HD 
ENDBRANCH   2   4
TORSDOF 1
ENDMDL
MODEL       91
REMARK 921   NORMALIZED FREE ENERGY PREDICTED BY IDOCK:   -3.48 KCAL/MOL
REMARK 922        TOTAL FREE ENERGY PREDICTED BY IDOCK:   -3.92 KCAL/MOL
REMARK 923 INTER-LIGAND FREE ENERGY PREDICTED BY IDOCK:   -3.67 KCAL/MOL
REMARK 924 INTRA-LIGAND FREE ENERGY PREDICTED BY IDOCK:   -0.25 KCAL/MOL
REMARK 927      BINDING AFFINITY PREDICTED BY RF-SCORE:    0.00 PKD
ROOT
HETATM    1  O   UNL     1      -7.671  10.435  65.790  1.00  0.00    -0.137 OA 
HETATM    2  C   UNL     1      -8.787   9.875  66.482  1.00  0.00    -0.139 C  
HETATM    3  H   UNL     1      -6.856  10.267  66.248  1.00  0.00     0.000 HD 
ENDROOT
BRANCH   2   4
HETATM    4  C   UNL     1     -10.104  10.147  65.742  1.00  0.00    -0.254 C  
HETATM    5  O   UNL     1     -11.161  10.226  66.726  1.00  0.00    -0.091 OA 
HETATM    6  C   UNL     1     -11.400  11.386  67.378  1.00  0.00    -0.288 C  
HETATM    7  C   UNL     1     -11.338  12.668  66.560  1.00  0.00    -0.326 C  
HETATM    8  O   UNL     1     -11.841  11.384  68.526  1.00  0.00    -0.416 OA 
HETATM    9  O   UNL     1     -12.596  12.873  65.903  1.00  0.00    -0.509 OA 
HETATM   10  C   UNL     1     -10.216  12.688  65.524  1.00  0.00    -0.281 C  
HETATM   11  C   UNL     1     -10.080  11.349  64.790  1.00  0.00    -0.277 C  
HETATM   12  H   UNL     1     -12.558  13.673  65.392  1.00  0.00     0.000 HD 
HETATM   13  O   UNL     1      -8.977  13.118  66.093  1.00  0.00    -0.450 OA 
HETATM   14  H   UNL     1      -8.279  13.130  65.448  1.00  0.00     0.000 HD 
HETATM   15  O   UNL     1     -11.153  11.164  63.853  1.00  0.00    -0.498 OA 
HETATM   16  H   UNL     1     -11.138  11.908  63.262  1.00  0.00     0.000 HD 
ENDBRANCH   2   4
TORSDOF 1
ENDMDL
MODEL       92
REMARK 921   NORMALIZED FREE ENERGY PREDICTED BY IDOCK:   -3.46 KCAL/MOL
REMARK 922        TOTAL FREE ENERGY PREDICTED BY IDOCK:   -3.89 KCAL/MOL
REMARK 923 INTER-LIGAND FREE ENERGY PREDICTED BY IDOCK:   -3.86 KCAL/MOL
REMARK 924 INTRA-LIGAND FREE ENERGY PREDICTED BY IDOCK:   -0.03 KCAL/MOL
REMARK 927      BINDING AFFINITY PREDICTED BY RF-SCORE:    0.00 PKD
ROOT
HETATM    1  O   UNL     1     -12.937   7.896  72.403  1.00  0.00    -0.522 OA 
HETATM    2  C   UNL     1     -12.235   8.177  71.192  1.00  0.00    -0.239 C  
HETATM    3  H   UNL     1     -13.369   7.051  72.368  1.00  0.00     0.000 HD 
ENDROOT
BRANCH   2   4
HETATM    4  C   UNL     1     -11.538   9.543  71.250  1.00  0.00    -0.374 C  
HETATM    5  O   UNL     1     -10.184   9.334  71.712  1.00  0.00    -0.311 OA 
HETATM    6  C   UNL     1      -9.212   8.983  70.840  1.00  0.00    -0.259 C  
HETATM    7  C   UNL     1      -9.210   9.678  69.486  1.00  0.00    -0.203 C  
HETATM    8  O   UNL     1      -8.264   8.287  71.200  1.00  0.00    -0.102 OA 
HETATM    9  O   UNL     1      -8.538  10.939  69.601  1.00  0.00    -0.370 OA 
HETATM   10  C   UNL     1     -10.603   9.897  68.901  1.00  0.00    -0.218 C  
HETATM   11  C   UNL     1     -11.609  10.366  69.957  1.00  0.00    -0.301 C  
HETATM   12  H   UNL     1      -8.536  11.373  68.756  1.00  0.00     0.000 HD 
HETATM   13  O   UNL     1     -11.066   8.747  68.190  1.00  0.00    -0.463 OA 
HETATM   14  H   UNL     1     -11.933   8.883  67.825  1.00  0.00     0.000 HD 
HETATM   15  O   UNL     1     -11.376  11.737  70.319  1.00  0.00    -0.501 OA 
HETATM   16  H   UNL     1     -11.420  12.247  69.519  1.00  0.00     0.000 HD 
ENDBRANCH   2   4
TORSDOF 1
ENDMDL
MODEL       93
REMARK 921   NORMALIZED FREE ENERGY PREDICTED BY IDOCK:   -3.45 KCAL/MOL
REMARK 922        TOTAL FREE ENERGY PREDICTED BY IDOCK:   -3.89 KCAL/MOL
REMARK 923 INTER-LIGAND FREE ENERGY PREDICTED BY IDOCK:   -3.86 KCAL/MOL
REMARK 924 INTRA-LIGAND FREE ENERGY PREDICTED BY IDOCK:   -0.03 KCAL/MOL
REMARK 927      BINDING AFFINITY PREDICTED BY RF-SCORE:    0.00 PKD
ROOT
HETATM    1  O   UNL     1     -12.653  15.356  69.164  1.00  0.00    -0.590 OA 
HETATM    2  C   UNL     1     -11.263  15.604  68.953  1.00  0.00    -0.311 C  
HETATM    3  H   UNL     1     -13.144  16.165  69.247  1.00  0.00     0.000 HD 
ENDROOT
BRANCH   2   4
HETATM    4  C   UNL     1     -10.471  14.297  68.818  1.00  0.00    -0.249 C  
HETATM    5  O   UNL     1     -11.305  13.339  68.128  1.00  0.00    -0.255 OA 
HETATM    6  C   UNL     1     -11.361  13.332  66.777  1.00  0.00    -0.327 C  
HETATM    7  C   UNL     1     -10.052  13.534  66.027  1.00  0.00    -0.310 C  
HETATM    8  O   UNL     1     -12.383  12.979  66.190  1.00  0.00    -0.439 OA 
HETATM    9  O   UNL     1      -9.365  12.280  65.924  1.00  0.00    -0.367 OA 
HETATM   10  C   UNL     1      -9.127  14.568  66.664  1.00  0.00    -0.251 C  
HETATM   11  C   UNL     1      -9.078  14.441  68.191  1.00  0.00    -0.194 C  
HETATM   12  H   UNL     1      -8.548  12.406  65.455  1.00  0.00     0.000 HD 
HETATM   13  O   UNL     1      -9.449  15.897  66.246  1.00  0.00    -0.265 OA 
HETATM   14  H   UNL     1      -8.873  16.540  66.643  1.00  0.00     0.000 HD 
HETATM   15  O   UNL     1      -8.318  13.287  68.588  1.00  0.00    -0.303 OA 
HETATM   16  H   UNL     1      -7.456  13.376  68.200  1.00  0.00     0.000 HD 
ENDBRANCH   2   4
TORSDOF 1
ENDMDL
MODEL       94
REMARK 921   NORMALIZED FREE ENERGY PREDICTED BY IDOCK:   -3.44 KCAL/MOL
REMARK 922        TOTAL FREE ENERGY PREDICTED BY IDOCK:   -3.88 KCAL/MOL
REMARK 923 INTER-LIGAND FREE ENERGY PREDICTED BY IDOCK:   -3.83 KCAL/MOL
REMARK 924 INTRA-LIGAND FREE ENERGY PREDICTED BY IDOCK:   -0.05 KCAL/MOL
REMARK 927      BINDING AFFINITY PREDICTED BY RF-SCORE:    0.00 PKD
ROOT
HETATM    1  O   UNL     1     -11.457  11.225  63.393  1.00  0.00    -0.741 OA 
HETATM    2  C   UNL     1     -10.391  11.793  64.154  1.00  0.00    -0.331 C  
HETATM    3  H   UNL     1     -11.136  10.790  62.613  1.00  0.00     0.000 HD 
ENDROOT
BRANCH   2   4
HETATM    4  C   UNL     1     -10.911  12.497  65.415  1.00  0.00    -0.294 C  
HETATM    5  O   UNL     1     -11.568  11.508  66.240  1.00  0.00    -0.382 OA 
HETATM    6  C   UNL     1     -10.846  10.738  67.085  1.00  0.00    -0.277 C  
HETATM    7  C   UNL     1      -9.727  11.418  67.860  1.00  0.00    -0.180 C  
HETATM    8  O   UNL     1     -11.208   9.595  67.361  1.00  0.00    -0.077 OA 
HETATM    9  O   UNL     1     -10.272  12.047  69.028  1.00  0.00    -0.402 OA 
HETATM   10  C   UNL     1      -8.948  12.449  67.046  1.00  0.00    -0.209 C  
HETATM   11  C   UNL     1      -9.866  13.319  66.180  1.00  0.00    -0.280 C  
HETATM   12  H   UNL     1      -9.573  12.471  69.512  1.00  0.00     0.000 HD 
HETATM   13  O   UNL     1      -7.905  11.842  66.281  1.00  0.00    -0.378 OA 
HETATM   14  H   UNL     1      -7.420  12.483  65.774  1.00  0.00     0.000 HD 
HETATM   15  O   UNL     1     -10.586  14.268  66.985  1.00  0.00    -0.276 OA 
HETATM   16  H   UNL     1      -9.939  14.777  67.459  1.00  0.00     0.000 HD 
ENDBRANCH   2   4
TORSDOF 1
ENDMDL
MODEL       95
REMARK 921   NORMALIZED FREE ENERGY PREDICTED BY IDOCK:   -3.44 KCAL/MOL
REMARK 922        TOTAL FREE ENERGY PREDICTED BY IDOCK:   -3.87 KCAL/MOL
REMARK 923 INTER-LIGAND FREE ENERGY PREDICTED BY IDOCK:   -4.05 KCAL/MOL
REMARK 924 INTRA-LIGAND FREE ENERGY PREDICTED BY IDOCK:    0.18 KCAL/MOL
REMARK 927      BINDING AFFINITY PREDICTED BY RF-SCORE:    0.00 PKD
ROOT
HETATM    1  O   UNL     1      -8.384  12.564  66.454  1.00  0.00    -0.404 OA 
HETATM    2  C   UNL     1      -9.553  12.326  67.237  1.00  0.00    -0.187 C  
HETATM    3  H   UNL     1      -7.869  11.773  66.346  1.00  0.00     0.000 HD 
ENDROOT
BRANCH   2   4
HETATM    4  C   UNL     1     -10.384  13.605  67.412  1.00  0.00    -0.244 C  
HETATM    5  O   UNL     1      -9.470  14.707  67.611  1.00  0.00    -0.200 OA 
HETATM    6  C   UNL     1      -8.912  15.331  66.550  1.00  0.00    -0.305 C  
HETATM    7  C   UNL     1      -9.810  15.595  65.349  1.00  0.00    -0.218 C  
HETATM    8  O   UNL     1      -7.793  15.836  66.631  1.00  0.00    -0.234 OA 
HETATM    9  O   UNL     1     -10.550  16.804  65.567  1.00  0.00    -0.496 OA 
HETATM   10  C   UNL     1     -10.778  14.456  65.038  1.00  0.00    -0.423 C  
HETATM   11  C   UNL     1     -11.412  13.871  66.305  1.00  0.00    -0.339 C  
HETATM   12  H   UNL     1     -11.110  16.969  64.817  1.00  0.00     0.000 HD 
HETATM   13  O   UNL     1     -10.170  13.449  64.226  1.00  0.00    -0.597 OA 
HETATM   14  H   UNL     1     -10.773  12.740  64.033  1.00  0.00     0.000 HD 
HETATM   15  O   UNL     1     -12.395  14.766  66.851  1.00  0.00    -0.403 OA 
HETATM   16  H   UNL     1     -13.032  14.931  66.165  1.00  0.00     0.000 HD 
ENDBRANCH   2   4
TORSDOF 1
ENDMDL
MODEL       96
REMARK 921   NORMALIZED FREE ENERGY PREDICTED BY IDOCK:   -3.42 KCAL/MOL
REMARK 922        TOTAL FREE ENERGY PREDICTED BY IDOCK:   -3.85 KCAL/MOL
REMARK 923 INTER-LIGAND FREE ENERGY PREDICTED BY IDOCK:   -4.02 KCAL/MOL
REMARK 924 INTRA-LIGAND FREE ENERGY PREDICTED BY IDOCK:    0.16 KCAL/MOL
REMARK 927      BINDING AFFINITY PREDICTED BY RF-SCORE:    0.00 PKD
ROOT
HETATM    1  O   UNL     1     -10.817  17.710  65.102  1.00  0.00    -0.664 OA 
HETATM    2  C   UNL     1     -10.603  16.339  65.439  1.00  0.00    -0.352 C  
HETATM    3  H   UNL     1     -11.615  17.825  64.599  1.00  0.00     0.000 HD 
ENDROOT
BRANCH   2   4
HETATM    4  C   UNL     1      -9.314  16.153  66.251  1.00  0.00    -0.317 C  
HETATM    5  O   UNL     1      -8.372  17.166  65.831  1.00  0.00    -0.527 OA 
HETATM    6  C   UNL     1      -8.418  18.405  66.371  1.00  0.00    -0.245 C  
HETATM    7  C   UNL     1      -8.670  18.501  67.869  1.00  0.00    -0.284 C  
HETATM    8  O   UNL     1      -8.074  19.389  65.719  1.00  0.00    -0.436 OA 
HETATM    9  O   UNL     1      -7.432  18.330  68.571  1.00  0.00    -0.271 OA 
HETATM   10  C   UNL     1      -9.692  17.493  68.390  1.00  0.00    -0.316 C  
HETATM   11  C   UNL     1      -9.504  16.103  67.772  1.00  0.00    -0.217 C  
HETATM   12  H   UNL     1      -7.589  18.391  69.506  1.00  0.00     0.000 HD 
HETATM   13  O   UNL     1     -11.031  17.971  68.242  1.00  0.00    -0.241 OA 
HETATM   14  H   UNL     1     -11.667  17.344  68.567  1.00  0.00     0.000 HD 
HETATM   15  O   UNL     1      -8.347  15.448  68.318  1.00  0.00    -0.145 OA 
HETATM   16  H   UNL     1      -8.464  15.418  69.261  1.00  0.00     0.000 HD 
ENDBRANCH   2   4
TORSDOF 1
ENDMDL
MODEL       97
REMARK 921   NORMALIZED FREE ENERGY PREDICTED BY IDOCK:   -3.40 KCAL/MOL
REMARK 922        TOTAL FREE ENERGY PREDICTED BY IDOCK:   -3.83 KCAL/MOL
REMARK 923 INTER-LIGAND FREE ENERGY PREDICTED BY IDOCK:   -3.61 KCAL/MOL
REMARK 924 INTRA-LIGAND FREE ENERGY PREDICTED BY IDOCK:   -0.22 KCAL/MOL
REMARK 927      BINDING AFFINITY PREDICTED BY RF-SCORE:    0.00 PKD
ROOT
HETATM    1  O   UNL     1      -6.592  16.943  69.185  1.00  0.00    -0.199 OA 
HETATM    2  C   UNL     1      -7.739  17.541  68.579  1.00  0.00    -0.272 C  
HETATM    3  H   UNL     1      -5.823  17.494  69.095  1.00  0.00     0.000 HD 
ENDROOT
BRANCH   2   4
HETATM    4  C   UNL     1      -8.981  16.652  68.724  1.00  0.00    -0.253 C  
HETATM    5  O   UNL     1      -9.942  17.061  67.724  1.00  0.00    -0.264 OA 
HETATM    6  C   UNL     1      -9.862  16.578  66.464  1.00  0.00    -0.278 C  
HETATM    7  C   UNL     1      -9.527  15.102  66.305  1.00  0.00    -0.309 C  
HETATM    8  O   UNL     1     -10.239  17.252  65.506  1.00  0.00    -0.602 OA 
HETATM    9  O   UNL     1     -10.725  14.326  66.439  1.00  0.00    -0.291 OA 
HETATM   10  C   UNL     1      -8.481  14.596  67.296  1.00  0.00    -0.215 C  
HETATM   11  C   UNL     1      -8.707  15.142  68.709  1.00  0.00    -0.194 C  
HETATM   12  H   UNL     1     -10.516  13.405  66.340  1.00  0.00     0.000 HD 
HETATM   13  O   UNL     1      -7.150  14.838  66.832  1.00  0.00    -0.324 OA 
HETATM   14  H   UNL     1      -6.499  14.523  67.448  1.00  0.00     0.000 HD 
HETATM   15  O   UNL     1      -9.834  14.506  69.334  1.00  0.00    -0.412 OA 
HETATM   16  H   UNL     1      -9.664  13.571  69.326  1.00  0.00     0.000 HD 
ENDBRANCH   2   4
TORSDOF 1
ENDMDL
MODEL       98
REMARK 921   NORMALIZED FREE ENERGY PREDICTED BY IDOCK:   -3.39 KCAL/MOL
REMARK 922        TOTAL FREE ENERGY PREDICTED BY IDOCK:   -3.82 KCAL/MOL
REMARK 923 INTER-LIGAND FREE ENERGY PREDICTED BY IDOCK:   -3.60 KCAL/MOL
REMARK 924 INTRA-LIGAND FREE ENERGY PREDICTED BY IDOCK:   -0.22 KCAL/MOL
REMARK 927      BINDING AFFINITY PREDICTED BY RF-SCORE:    0.00 PKD
ROOT
HETATM    1  O   UNL     1      -9.939  16.475  65.977  1.00  0.00    -0.313 OA 
HETATM    2  C   UNL     1     -10.109  16.034  67.325  1.00  0.00    -0.266 C  
HETATM    3  H   UNL     1     -10.240  17.368  65.861  1.00  0.00     0.000 HD 
ENDROOT
BRANCH   2   4
HETATM    4  C   UNL     1      -9.621  14.592  67.512  1.00  0.00    -0.210 C  
HETATM    5  O   UNL     1     -10.221  14.071  68.720  1.00  0.00    -0.231 OA 
HETATM    6  C   UNL     1     -11.466  13.543  68.689  1.00  0.00    -0.308 C  
HETATM    7  C   UNL     1     -11.819  12.664  67.499  1.00  0.00    -0.334 C  
HETATM    8  O   UNL     1     -12.202  13.609  69.673  1.00  0.00    -0.314 OA 
HETATM    9  O   UNL     1     -11.348  11.331  67.737  1.00  0.00    -0.265 OA 
HETATM   10  C   UNL     1     -11.260  13.169  66.170  1.00  0.00    -0.295 C  
HETATM   11  C   UNL     1      -9.819  13.674  66.299  1.00  0.00    -0.301 C  
HETATM   12  H   UNL     1     -11.568  10.782  66.994  1.00  0.00     0.000 HD 
HETATM   13  O   UNL     1     -12.119  14.142  65.570  1.00  0.00    -0.378 OA 
HETATM   14  H   UNL     1     -11.772  14.456  64.743  1.00  0.00     0.000 HD 
HETATM   15  O   UNL     1      -8.901  12.579  66.447  1.00  0.00    -0.387 OA 
HETATM   16  H   UNL     1      -9.024  12.010  65.696  1.00  0.00     0.000 HD 
ENDBRANCH   2   4
TORSDOF 1
ENDMDL
MODEL       99
REMARK 921   NORMALIZED FREE ENERGY PREDICTED BY IDOCK:   -3.39 KCAL/MOL
REMARK 922        TOTAL FREE ENERGY PREDICTED BY IDOCK:   -3.82 KCAL/MOL
REMARK 923 INTER-LIGAND FREE ENERGY PREDICTED BY IDOCK:   -3.92 KCAL/MOL
REMARK 924 INTRA-LIGAND FREE ENERGY PREDICTED BY IDOCK:    0.11 KCAL/MOL
REMARK 927      BINDING AFFINITY PREDICTED BY RF-SCORE:    0.00 PKD
ROOT
HETATM    1  O   UNL     1      -8.027  12.317  66.216  1.00  0.00    -0.357 OA 
HETATM    2  C   UNL     1      -8.835  11.766  67.256  1.00  0.00    -0.167 C  
HETATM    3  H   UNL     1      -7.689  11.640  65.642  1.00  0.00     0.000 HD 
ENDROOT
BRANCH   2   4
HETATM    4  C   UNL     1      -9.381  12.860  68.185  1.00  0.00    -0.214 C  
HETATM    5  O   UNL     1      -9.243  14.130  67.508  1.00  0.00    -0.180 OA 
HETATM    6  C   UNL     1     -10.186  14.540  66.631  1.00  0.00    -0.275 C  
HETATM    7  C   UNL     1     -11.640  14.293  67.008  1.00  0.00    -0.386 C  
HETATM    8  O   UNL     1      -9.889  15.254  65.674  1.00  0.00    -0.333 OA 
HETATM    9  O   UNL     1     -12.094  15.350  67.864  1.00  0.00    -0.391 OA 
HETATM   10  C   UNL     1     -11.883  12.949  67.689  1.00  0.00    -0.346 C  
HETATM   11  C   UNL     1     -10.798  12.614  68.718  1.00  0.00    -0.231 C  
HETATM   12  H   UNL     1     -13.001  15.196  68.099  1.00  0.00     0.000 HD 
HETATM   13  O   UNL     1     -12.063  11.897  66.737  1.00  0.00    -0.593 OA 
HETATM   14  H   UNL     1     -12.214  11.060  67.161  1.00  0.00     0.000 HD 
HETATM   15  O   UNL     1     -10.945  13.417  69.901  1.00  0.00    -0.450 OA 
HETATM   16  H   UNL     1     -11.823  13.265  70.232  1.00  0.00     0.000 HD 
ENDBRANCH   2   4
TORSDOF 1
ENDMDL
MODEL      100
REMARK 921   NORMALIZED FREE ENERGY PREDICTED BY IDOCK:   -3.38 KCAL/MOL
REMARK 922        TOTAL FREE ENERGY PREDICTED BY IDOCK:   -3.81 KCAL/MOL
REMARK 923 INTER-LIGAND FREE ENERGY PREDICTED BY IDOCK:   -3.57 KCAL/MOL
REMARK 924 INTRA-LIGAND FREE ENERGY PREDICTED BY IDOCK:   -0.25 KCAL/MOL
REMARK 927      BINDING AFFINITY PREDICTED BY RF-SCORE:    0.00 PKD
ROOT
HETATM    1  O   UNL     1      -7.489  11.533  66.023  1.00  0.00    -0.367 OA 
HETATM    2  C   UNL     1      -8.218  10.317  65.861  1.00  0.00    -0.148 C  
HETATM    3  H   UNL     1      -6.551  11.382  66.016  1.00  0.00     0.000 HD 
ENDROOT
BRANCH   2   4
HETATM    4  C   UNL     1      -9.733  10.562  65.872  1.00  0.00    -0.217 C  
HETATM    5  O   UNL     1     -10.369   9.401  66.453  1.00  0.00    -0.242 OA 
HETATM    6  C   UNL     1     -10.475   9.282  67.795  1.00  0.00    -0.255 C  
HETATM    7  C   UNL     1     -10.844  10.536  68.576  1.00  0.00    -0.234 C  
HETATM    8  O   UNL     1     -10.473   8.175  68.333  1.00  0.00    -0.207 OA 
HETATM    9  O   UNL     1     -12.267  10.704  68.560  1.00  0.00    -0.822 OA 
HETATM   10  C   UNL     1     -10.176  11.807  68.056  1.00  0.00    -0.193 C  
HETATM   11  C   UNL     1     -10.175  11.877  66.525  1.00  0.00    -0.203 C  
HETATM   12  H   UNL     1     -12.497  11.487  69.047  1.00  0.00     0.000 HD 
HETATM   13  O   UNL     1      -8.867  11.980  68.603  1.00  0.00    -0.330 OA 
HETATM   14  H   UNL     1      -8.451  12.771  68.279  1.00  0.00     0.000 HD 
HETATM   15  O   UNL     1     -11.489  12.174  66.022  1.00  0.00    -0.348 OA 
HETATM   16  H   UNL     1     -11.763  12.989  66.426  1.00  0.00     0.000 HD 
ENDBRANCH   2   4
TORSDOF 1
ENDMDL
MODEL      101
REMARK 921   NORMALIZED FREE ENERGY PREDICTED BY IDOCK:   -3.36 KCAL/MOL
REMARK 922        TOTAL FREE ENERGY PREDICTED BY IDOCK:   -3.79 KCAL/MOL
REMARK 923 INTER-LIGAND FREE ENERGY PREDICTED BY IDOCK:   -3.73 KCAL/MOL
REMARK 924 INTRA-LIGAND FREE ENERGY PREDICTED BY IDOCK:   -0.06 KCAL/MOL
REMARK 927      BINDING AFFINITY PREDICTED BY RF-SCORE:    0.00 PKD
ROOT
HETATM    1  O   UNL     1     -10.825   7.877  68.441  1.00  0.00    -0.411 OA 
HETATM    2  C   UNL     1     -10.881   8.456  69.745  1.00  0.00    -0.183 C  
HETATM    3  H   UNL     1     -10.190   8.319  67.889  1.00  0.00     0.000 HD 
ENDROOT
BRANCH   2   4
HETATM    4  C   UNL     1     -11.906   7.741  70.635  1.00  0.00    -0.124 C  
HETATM    5  O   UNL     1     -11.681   6.318  70.522  1.00  0.00    -0.354 OA 
HETATM    6  C   UNL     1     -10.742   5.713  71.284  1.00  0.00    -0.244 C  
HETATM    7  C   UNL     1     -10.638   6.153  72.737  1.00  0.00    -0.228 C  
HETATM    8  O   UNL     1     -10.142   4.720  70.875  1.00  0.00    -0.214 OA 
HETATM    9  O   UNL     1     -11.611   5.445  73.517  1.00  0.00    -0.449 OA 
HETATM   10  C   UNL     1     -10.819   7.655  72.943  1.00  0.00    -0.389 C  
HETATM   11  C   UNL     1     -11.956   8.226  72.090  1.00  0.00    -0.369 C  
HETATM   12  H   UNL     1     -11.546   5.720  74.425  1.00  0.00     0.000 HD 
HETATM   13  O   UNL     1      -9.594   8.368  72.751  1.00  0.00    -0.275 OA 
HETATM   14  H   UNL     1      -9.706   9.302  72.880  1.00  0.00     0.000 HD 
HETATM   15  O   UNL     1     -13.238   7.843  72.616  1.00  0.00    -0.495 OA 
HETATM   16  H   UNL     1     -13.269   8.143  73.517  1.00  0.00     0.000 HD 
ENDBRANCH   2   4
TORSDOF 1
ENDMDL
MODEL      102
REMARK 921   NORMALIZED FREE ENERGY PREDICTED BY IDOCK:   -3.35 KCAL/MOL
REMARK 922        TOTAL FREE ENERGY PREDICTED BY IDOCK:   -3.78 KCAL/MOL
REMARK 923 INTER-LIGAND FREE ENERGY PREDICTED BY IDOCK:   -3.72 KCAL/MOL
REMARK 924 INTRA-LIGAND FREE ENERGY PREDICTED BY IDOCK:   -0.06 KCAL/MOL
REMARK 927      BINDING AFFINITY PREDICTED BY RF-SCORE:    0.00 PKD
ROOT
HETATM    1  O   UNL     1     -12.708  14.847  69.653  1.00  0.00    -0.584 OA 
HETATM    2  C   UNL     1     -11.886  16.009  69.545  1.00  0.00    -0.237 C  
HETATM    3  H   UNL     1     -13.591  15.068  69.924  1.00  0.00     0.000 HD 
ENDROOT
BRANCH   2   4
HETATM    4  C   UNL     1     -10.459  15.652  69.107  1.00  0.00    -0.236 C  
HETATM    5  O   UNL     1     -10.550  14.767  67.968  1.00  0.00    -0.240 OA 
HETATM    6  C   UNL     1     -10.701  15.272  66.723  1.00  0.00    -0.313 C  
HETATM    7  C   UNL     1      -9.887  16.509  66.372  1.00  0.00    -0.293 C  
HETATM    8  O   UNL     1     -11.312  14.645  65.858  1.00  0.00    -0.334 OA 
HETATM    9  O   UNL     1      -8.572  16.111  65.962  1.00  0.00    -0.330 OA 
HETATM   10  C   UNL     1      -9.779  17.522  67.509  1.00  0.00    -0.278 C  
HETATM   11  C   UNL     1      -9.533  16.850  68.864  1.00  0.00    -0.241 C  
HETATM   12  H   UNL     1      -8.063  16.883  65.743  1.00  0.00     0.000 HD 
HETATM   13  O   UNL     1     -10.904  18.404  67.542  1.00  0.00    -0.408 OA 
HETATM   14  H   UNL     1     -10.837  19.034  68.250  1.00  0.00     0.000 HD 
HETATM   15  O   UNL     1      -8.184  16.364  68.961  1.00  0.00    -0.229 OA 
HETATM   16  H   UNL     1      -7.610  17.106  68.810  1.00  0.00     0.000 HD 
ENDBRANCH   2   4
TORSDOF 1
ENDMDL
MODEL      103
REMARK 921   NORMALIZED FREE ENERGY PREDICTED BY IDOCK:   -3.33 KCAL/MOL
REMARK 922        TOTAL FREE ENERGY PREDICTED BY IDOCK:   -3.75 KCAL/MOL
REMARK 923 INTER-LIGAND FREE ENERGY PREDICTED BY IDOCK:   -3.50 KCAL/MOL
REMARK 924 INTRA-LIGAND FREE ENERGY PREDICTED BY IDOCK:   -0.25 KCAL/MOL
REMARK 927      BINDING AFFINITY PREDICTED BY RF-SCORE:    0.00 PKD
ROOT
HETATM    1  O   UNL     1      -7.997   8.086  69.487  1.00  0.00    -0.110 OA 
HETATM    2  C   UNL     1      -8.219   7.118  70.513  1.00  0.00    -0.125 C  
HETATM    3  H   UNL     1      -7.096   8.385  69.478  1.00  0.00     0.000 HD 
ENDROOT
BRANCH   2   4
HETATM    4  C   UNL     1      -9.676   6.635  70.526  1.00  0.00    -0.176 C  
HETATM    5  O   UNL     1     -10.011   6.267  71.884  1.00  0.00    -0.173 OA 
HETATM    6  C   UNL     1     -10.417   7.208  72.765  1.00  0.00    -0.244 C  
HETATM    7  C   UNL     1     -11.375   8.274  72.251  1.00  0.00    -0.378 C  
HETATM    8  O   UNL     1     -10.182   7.090  73.967  1.00  0.00    -0.349 OA 
HETATM    9  O   UNL     1     -12.716   7.768  72.298  1.00  0.00    -0.482 OA 
HETATM   10  C   UNL     1     -11.064   8.755  70.836  1.00  0.00    -0.268 C  
HETATM   11  C   UNL     1     -10.689   7.602  69.899  1.00  0.00    -0.249 C  
HETATM   12  H   UNL     1     -13.314   8.433  71.978  1.00  0.00     0.000 HD 
HETATM   13  O   UNL     1     -10.079   9.792  70.833  1.00  0.00    -0.313 OA 
HETATM   14  H   UNL     1      -9.885  10.091  69.952  1.00  0.00     0.000 HD 
HETATM   15  O   UNL     1     -11.846   6.825  69.548  1.00  0.00    -0.635 OA 
HETATM   16  H   UNL     1     -12.474   7.424  69.160  1.00  0.00     0.000 HD 
ENDBRANCH   2   4
TORSDOF 1
ENDMDL
MODEL      104
REMARK 921   NORMALIZED FREE ENERGY PREDICTED BY IDOCK:   -3.31 KCAL/MOL
REMARK 922        TOTAL FREE ENERGY PREDICTED BY IDOCK:   -3.74 KCAL/MOL
REMARK 923 INTER-LIGAND FREE ENERGY PREDICTED BY IDOCK:   -3.55 KCAL/MOL
REMARK 924 INTRA-LIGAND FREE ENERGY PREDICTED BY IDOCK:   -0.19 KCAL/MOL
REMARK 927      BINDING AFFINITY PREDICTED BY RF-SCORE:    0.00 PKD
ROOT
HETATM    1  O   UNL     1     -11.759  15.640  69.311  1.00  0.00    -0.336 OA 
HETATM    2  C   UNL     1     -10.416  15.814  69.761  1.00  0.00    -0.317 C  
HETATM    3  H   UNL     1     -12.190  14.926  69.766  1.00  0.00     0.000 HD 
ENDROOT
BRANCH   2   4
HETATM    4  C   UNL     1      -9.720  16.967  69.025  1.00  0.00    -0.216 C  
HETATM    5  O   UNL     1      -8.356  16.568  68.758  1.00  0.00    -0.227 OA 
HETATM    6  C   UNL     1      -8.065  15.825  67.667  1.00  0.00    -0.147 C  
HETATM    7  C   UNL     1      -8.777  16.185  66.371  1.00  0.00    -0.325 C  
HETATM    8  O   UNL     1      -7.125  15.031  67.678  1.00  0.00    -0.151 OA 
HETATM    9  O   UNL     1      -8.076  17.257  65.727  1.00  0.00    -0.527 OA 
HETATM   10  C   UNL     1     -10.241  16.575  66.558  1.00  0.00    -0.300 C  
HETATM   11  C   UNL     1     -10.451  17.479  67.777  1.00  0.00    -0.381 C  
HETATM   12  H   UNL     1      -8.521  17.481  64.918  1.00  0.00     0.000 HD 
HETATM   13  O   UNL     1     -11.097  15.430  66.584  1.00  0.00    -0.312 OA 
HETATM   14  H   UNL     1     -12.008  15.673  66.700  1.00  0.00     0.000 HD 
HETATM   15  O   UNL     1      -9.966  18.808  67.524  1.00  0.00    -0.312 OA 
HETATM   16  H   UNL     1     -10.419  19.126  66.751  1.00  0.00     0.000 HD 
ENDBRANCH   2   4
TORSDOF 1
ENDMDL
MODEL      105
REMARK 921   NORMALIZED FREE ENERGY PREDICTED BY IDOCK:   -3.29 KCAL/MOL
REMARK 922        TOTAL FREE ENERGY PREDICTED BY IDOCK:   -3.71 KCAL/MOL
REMARK 923 INTER-LIGAND FREE ENERGY PREDICTED BY IDOCK:   -3.46 KCAL/MOL
REMARK 924 INTRA-LIGAND FREE ENERGY PREDICTED BY IDOCK:   -0.25 KCAL/MOL
REMARK 927      BINDING AFFINITY PREDICTED BY RF-SCORE:    0.00 PKD
ROOT
HETATM    1  O   UNL     1     -11.300   8.397  69.642  1.00  0.00    -0.445 OA 
HETATM    2  C   UNL     1     -10.407   8.132  68.560  1.00  0.00    -0.198 C  
HETATM    3  H   UNL     1     -11.951   7.711  69.734  1.00  0.00     0.000 HD 
ENDROOT
BRANCH   2   4
HETATM    4  C   UNL     1      -9.356   9.241  68.412  1.00  0.00    -0.138 C  
HETATM    5  O   UNL     1      -8.900   9.243  67.040  1.00  0.00    -0.122 OA 
HETATM    6  C   UNL     1      -9.595   9.909  66.091  1.00  0.00    -0.218 C  
HETATM    7  C   UNL     1     -10.152  11.274  66.468  1.00  0.00    -0.217 C  
HETATM    8  O   UNL     1      -9.603   9.518  64.925  1.00  0.00    -0.246 OA 
HETATM    9  O   UNL     1      -9.130  12.266  66.300  1.00  0.00    -0.321 OA 
HETATM   10  C   UNL     1     -10.700  11.348  67.891  1.00  0.00    -0.200 C  
HETATM   11  C   UNL     1      -9.798  10.627  68.899  1.00  0.00    -0.201 C  
HETATM   12  H   UNL     1      -9.477  13.119  66.535  1.00  0.00     0.000 HD 
HETATM   13  O   UNL     1     -12.054  10.895  67.962  1.00  0.00    -0.780 OA 
HETATM   14  H   UNL     1     -12.395  10.941  68.848  1.00  0.00     0.000 HD 
HETATM   15  O   UNL     1      -8.602  11.382  69.154  1.00  0.00    -0.373 OA 
HETATM   16  H   UNL     1      -8.876  12.241  69.456  1.00  0.00     0.000 HD 
ENDBRANCH   2   4
TORSDOF 1
ENDMDL
MODEL      106
REMARK 921   NORMALIZED FREE ENERGY PREDICTED BY IDOCK:   -3.27 KCAL/MOL
REMARK 922        TOTAL FREE ENERGY PREDICTED BY IDOCK:   -3.69 KCAL/MOL
REMARK 923 INTER-LIGAND FREE ENERGY PREDICTED BY IDOCK:   -3.44 KCAL/MOL
REMARK 924 INTRA-LIGAND FREE ENERGY PREDICTED BY IDOCK:   -0.26 KCAL/MOL
REMARK 927      BINDING AFFINITY PREDICTED BY RF-SCORE:    0.00 PKD
ROOT
HETATM    1  O   UNL     1     -13.741   6.375  72.426  1.00  0.00    -0.450 OA 
HETATM    2  C   UNL     1     -13.378   7.235  71.345  1.00  0.00    -0.331 C  
HETATM    3  H   UNL     1     -14.579   6.619  72.800  1.00  0.00     0.000 HD 
ENDROOT
BRANCH   2   4
HETATM    4  C   UNL     1     -12.024   6.839  70.741  1.00  0.00    -0.378 C  
HETATM    5  O   UNL     1     -11.429   8.025  70.165  1.00  0.00    -0.159 OA 
HETATM    6  C   UNL     1     -10.724   8.879  70.940  1.00  0.00    -0.231 C  
HETATM    7  C   UNL     1      -9.794   8.269  71.979  1.00  0.00    -0.257 C  
HETATM    8  O   UNL     1     -10.688  10.081  70.681  1.00  0.00    -0.303 OA 
HETATM    9  O   UNL     1      -8.546   7.932  71.358  1.00  0.00    -0.115 OA 
HETATM   10  C   UNL     1     -10.366   7.035  72.672  1.00  0.00    -0.209 C  
HETATM   11  C   UNL     1     -11.078   6.096  71.692  1.00  0.00    -0.276 C  
HETATM   12  H   UNL     1      -7.965   7.551  72.007  1.00  0.00     0.000 HD 
HETATM   13  O   UNL     1     -11.197   7.386  73.780  1.00  0.00    -0.530 OA 
HETATM   14  H   UNL     1     -11.553   6.618  74.212  1.00  0.00     0.000 HD 
HETATM   15  O   UNL     1     -10.130   5.389  70.874  1.00  0.00    -0.195 OA 
HETATM   16  H   UNL     1      -9.544   4.928  71.463  1.00  0.00     0.000 HD 
ENDBRANCH   2   4
TORSDOF 1
ENDMDL
MODEL      107
REMARK 921   NORMALIZED FREE ENERGY PREDICTED BY IDOCK:   -3.26 KCAL/MOL
REMARK 922        TOTAL FREE ENERGY PREDICTED BY IDOCK:   -3.69 KCAL/MOL
REMARK 923 INTER-LIGAND FREE ENERGY PREDICTED BY IDOCK:   -3.46 KCAL/MOL
REMARK 924 INTRA-LIGAND FREE ENERGY PREDICTED BY IDOCK:   -0.23 KCAL/MOL
REMARK 927      BINDING AFFINITY PREDICTED BY RF-SCORE:    0.00 PKD
ROOT
HETATM    1  O   UNL     1     -11.323   9.199  68.800  1.00  0.00    -0.409 OA 
HETATM    2  C   UNL     1     -10.147   8.984  69.580  1.00  0.00    -0.197 C  
HETATM    3  H   UNL     1     -11.440  10.118  68.591  1.00  0.00     0.000 HD 
ENDROOT
BRANCH   2   4
HETATM    4  C   UNL     1      -9.959   7.499  69.919  1.00  0.00    -0.189 C  
HETATM    5  O   UNL     1      -9.383   7.412  71.242  1.00  0.00    -0.153 OA 
HETATM    6  C   UNL     1     -10.176   7.461  72.335  1.00  0.00    -0.199 C  
HETATM    7  C   UNL     1     -11.488   6.693  72.276  1.00  0.00    -0.283 C  
HETATM    8  O   UNL     1      -9.763   7.936  73.393  1.00  0.00    -0.293 OA 
HETATM    9  O   UNL     1     -11.250   5.319  72.611  1.00  0.00    -0.261 OA 
HETATM   10  C   UNL     1     -12.190   6.770  70.922  1.00  0.00    -0.331 C  
HETATM   11  C   UNL     1     -11.211   6.628  69.751  1.00  0.00    -0.356 C  
HETATM   12  H   UNL     1     -12.069   4.839  72.574  1.00  0.00     0.000 HD 
HETATM   13  O   UNL     1     -12.996   7.945  70.809  1.00  0.00    -0.512 OA 
HETATM   14  H   UNL     1     -13.433   7.993  69.966  1.00  0.00     0.000 HD 
HETATM   15  O   UNL     1     -10.762   5.270  69.616  1.00  0.00    -0.273 OA 
HETATM   16  H   UNL     1     -11.537   4.730  69.513  1.00  0.00     0.000 HD 
ENDBRANCH   2   4
TORSDOF 1
ENDMDL
MODEL      108
REMARK 921   NORMALIZED FREE ENERGY PREDICTED BY IDOCK:   -3.24 KCAL/MOL
REMARK 922        TOTAL FREE ENERGY PREDICTED BY IDOCK:   -3.67 KCAL/MOL
REMARK 923 INTER-LIGAND FREE ENERGY PREDICTED BY IDOCK:   -3.61 KCAL/MOL
REMARK 924 INTRA-LIGAND FREE ENERGY PREDICTED BY IDOCK:   -0.06 KCAL/MOL
REMARK 927      BINDING AFFINITY PREDICTED BY RF-SCORE:    0.00 PKD
ROOT
HETATM    1  O   UNL     1     -10.872  17.237  68.850  1.00  0.00    -0.278 OA 
HETATM    2  C   UNL     1     -10.348  18.550  68.654  1.00  0.00    -0.232 C  
HETATM    3  H   UNL     1     -11.822  17.236  68.844  1.00  0.00     0.000 HD 
ENDROOT
BRANCH   2   4
HETATM    4  C   UNL     1      -8.813  18.552  68.665  1.00  0.00    -0.298 C  
HETATM    5  O   UNL     1      -8.360  17.468  67.821  1.00  0.00    -0.214 OA 
HETATM    6  C   UNL     1      -8.255  17.643  66.485  1.00  0.00    -0.273 C  
HETATM    7  C   UNL     1      -7.684  18.967  66.000  1.00  0.00    -0.229 C  
HETATM    8  O   UNL     1      -8.424  16.701  65.711  1.00  0.00    -0.433 OA 
HETATM    9  O   UNL     1      -6.252  18.903  66.022  1.00  0.00    -0.176 OA 
HETATM   10  C   UNL     1      -8.150  20.175  66.810  1.00  0.00    -0.306 C  
HETATM   11  C   UNL     1      -8.161  19.896  68.316  1.00  0.00    -0.234 C  
HETATM   12  H   UNL     1      -5.895  19.730  65.720  1.00  0.00     0.000 HD 
HETATM   13  O   UNL     1      -9.409  20.671  66.346  1.00  0.00    -0.612 OA 
HETATM   14  H   UNL     1      -9.699  21.422  66.850  1.00  0.00     0.000 HD 
HETATM   15  O   UNL     1      -6.824  19.862  68.844  1.00  0.00    -0.323 OA 
HETATM   16  H   UNL     1      -6.420  20.694  68.628  1.00  0.00     0.000 HD 
ENDBRANCH   2   4
TORSDOF 1
ENDMDL
MODEL      109
REMARK 921   NORMALIZED FREE ENERGY PREDICTED BY IDOCK:   -3.24 KCAL/MOL
REMARK 922        TOTAL FREE ENERGY PREDICTED BY IDOCK:   -3.66 KCAL/MOL
REMARK 923 INTER-LIGAND FREE ENERGY PREDICTED BY IDOCK:   -3.41 KCAL/MOL
REMARK 924 INTRA-LIGAND FREE ENERGY PREDICTED BY IDOCK:   -0.25 KCAL/MOL
REMARK 927      BINDING AFFINITY PREDICTED BY RF-SCORE:    0.00 PKD
ROOT
HETATM    1  O   UNL     1      -6.657  15.779  69.790  1.00  0.00    -0.182 OA 
HETATM    2  C   UNL     1      -6.665  17.055  69.148  1.00  0.00    -0.241 C  
HETATM    3  H   UNL     1      -5.783  15.535  70.070  1.00  0.00     0.000 HD 
ENDROOT
BRANCH   2   4
HETATM    4  C   UNL     1      -8.077  17.449  68.696  1.00  0.00    -0.264 C  
HETATM    5  O   UNL     1      -7.953  18.291  67.527  1.00  0.00    -0.228 OA 
HETATM    6  C   UNL     1      -7.820  17.740  66.300  1.00  0.00    -0.264 C  
HETATM    7  C   UNL     1      -8.679  16.523  65.989  1.00  0.00    -0.220 C  
HETATM    8  O   UNL     1      -7.186  18.315  65.416  1.00  0.00    -0.541 OA 
HETATM    9  O   UNL     1      -9.978  16.955  65.564  1.00  0.00    -0.572 OA 
HETATM   10  C   UNL     1      -8.824  15.553  67.159  1.00  0.00    -0.212 C  
HETATM   11  C   UNL     1      -9.047  16.278  68.491  1.00  0.00    -0.216 C  
HETATM   12  H   UNL     1     -10.514  16.195  65.369  1.00  0.00     0.000 HD 
HETATM   13  O   UNL     1      -7.733  14.632  67.224  1.00  0.00    -0.194 OA 
HETATM   14  H   UNL     1      -7.823  14.029  67.953  1.00  0.00     0.000 HD 
HETATM   15  O   UNL     1     -10.377  16.817  68.569  1.00  0.00    -0.277 OA 
HETATM   16  H   UNL     1     -10.978  16.092  68.442  1.00  0.00     0.000 HD 
ENDBRANCH   2   4
TORSDOF 1
ENDMDL
MODEL      110
REMARK 921   NORMALIZED FREE ENERGY PREDICTED BY IDOCK:   -3.24 KCAL/MOL
REMARK 922        TOTAL FREE ENERGY PREDICTED BY IDOCK:   -3.66 KCAL/MOL
REMARK 923 INTER-LIGAND FREE ENERGY PREDICTED BY IDOCK:   -3.43 KCAL/MOL
REMARK 924 INTRA-LIGAND FREE ENERGY PREDICTED BY IDOCK:   -0.23 KCAL/MOL
REMARK 927      BINDING AFFINITY PREDICTED BY RF-SCORE:    0.00 PKD
ROOT
HETATM    1  O   UNL     1     -10.592  16.353  64.999  1.00  0.00    -0.651 OA 
HETATM    2  C   UNL     1     -10.304  15.369  65.993  1.00  0.00    -0.324 C  
HETATM    3  H   UNL     1     -10.683  15.962  64.138  1.00  0.00     0.000 HD 
ENDROOT
BRANCH   2   4
HETATM    4  C   UNL     1     -10.157  16.001  67.384  1.00  0.00    -0.258 C  
HETATM    5  O   UNL     1      -9.143  15.264  68.104  1.00  0.00    -0.171 OA 
HETATM    6  C   UNL     1      -7.835  15.564  67.937  1.00  0.00    -0.131 C  
HETATM    7  C   UNL     1      -7.465  17.038  67.857  1.00  0.00    -0.168 C  
HETATM    8  O   UNL     1      -6.970  14.695  68.046  1.00  0.00    -0.108 OA 
HETATM    9  O   UNL     1      -7.332  17.566  69.183  1.00  0.00    -0.224 OA 
HETATM   10  C   UNL     1      -8.463  17.884  67.071  1.00  0.00    -0.236 C  
HETATM   11  C   UNL     1      -9.916  17.516  67.390  1.00  0.00    -0.315 C  
HETATM   12  H   UNL     1      -7.101  18.486  69.133  1.00  0.00     0.000 HD 
HETATM   13  O   UNL     1      -8.197  17.851  65.666  1.00  0.00    -0.476 OA 
HETATM   14  H   UNL     1      -8.818  18.378  65.177  1.00  0.00     0.000 HD 
HETATM   15  O   UNL     1     -10.296  17.995  68.691  1.00  0.00    -0.369 OA 
HETATM   16  H   UNL     1     -10.146  18.934  68.695  1.00  0.00     0.000 HD 
ENDBRANCH   2   4
TORSDOF 1
ENDMDL
MODEL      111
REMARK 921   NORMALIZED FREE ENERGY PREDICTED BY IDOCK:   -3.23 KCAL/MOL
REMARK 922        TOTAL FREE ENERGY PREDICTED BY IDOCK:   -3.66 KCAL/MOL
REMARK 923 INTER-LIGAND FREE ENERGY PREDICTED BY IDOCK:   -3.62 KCAL/MOL
REMARK 924 INTRA-LIGAND FREE ENERGY PREDICTED BY IDOCK:   -0.04 KCAL/MOL
REMARK 927      BINDING AFFINITY PREDICTED BY RF-SCORE:    0.00 PKD
ROOT
HETATM    1  O   UNL     1      -8.929  13.937  68.923  1.00  0.00    -0.374 OA 
HETATM    2  C   UNL     1      -8.511  14.633  67.749  1.00  0.00    -0.174 C  
HETATM    3  H   UNL     1      -8.199  13.507  69.353  1.00  0.00     0.000 HD 
ENDROOT
BRANCH   2   4
HETATM    4  C   UNL     1      -9.691  15.327  67.055  1.00  0.00    -0.226 C  
HETATM    5  O   UNL     1     -10.570  15.844  68.079  1.00  0.00    -0.269 OA 
HETATM    6  C   UNL     1     -10.323  17.046  68.646  1.00  0.00    -0.351 C  
HETATM    7  C   UNL     1      -9.862  18.167  67.726  1.00  0.00    -0.310 C  
HETATM    8  O   UNL     1     -10.647  17.272  69.811  1.00  0.00    -0.142 OA 
HETATM    9  O   UNL     1     -11.006  18.781  67.117  1.00  0.00    -0.380 OA 
HETATM   10  C   UNL     1      -8.891  17.714  66.638  1.00  0.00    -0.263 C  
HETATM   11  C   UNL     1      -9.304  16.380  66.009  1.00  0.00    -0.300 C  
HETATM   12  H   UNL     1     -10.719  19.481  66.542  1.00  0.00     0.000 HD 
HETATM   13  O   UNL     1      -7.541  17.692  67.109  1.00  0.00    -0.195 OA 
HETATM   14  H   UNL     1      -6.936  17.410  66.433  1.00  0.00     0.000 HD 
HETATM   15  O   UNL     1     -10.438  16.547  65.143  1.00  0.00    -0.637 OA 
HETATM   16  H   UNL     1     -10.199  17.200  64.495  1.00  0.00     0.000 HD 
ENDBRANCH   2   4
TORSDOF 1
ENDMDL
MODEL      112
REMARK 921   NORMALIZED FREE ENERGY PREDICTED BY IDOCK:   -3.23 KCAL/MOL
REMARK 922        TOTAL FREE ENERGY PREDICTED BY IDOCK:   -3.65 KCAL/MOL
REMARK 923 INTER-LIGAND FREE ENERGY PREDICTED BY IDOCK:   -3.63 KCAL/MOL
REMARK 924 INTRA-LIGAND FREE ENERGY PREDICTED BY IDOCK:   -0.02 KCAL/MOL
REMARK 927      BINDING AFFINITY PREDICTED BY RF-SCORE:    0.00 PKD
ROOT
HETATM    1  O   UNL     1      -8.020  13.185  66.721  1.00  0.00    -0.399 OA 
HETATM    2  C   UNL     1      -8.877  13.099  67.860  1.00  0.00    -0.196 C  
HETATM    3  H   UNL     1      -7.175  12.786  66.889  1.00  0.00     0.000 HD 
ENDROOT
BRANCH   2   4
HETATM    4  C   UNL     1     -10.242  13.744  67.588  1.00  0.00    -0.242 C  
HETATM    5  O   UNL     1     -11.263  12.872  68.125  1.00  0.00    -0.239 OA 
HETATM    6  C   UNL     1     -11.599  12.941  69.433  1.00  0.00    -0.302 C  
HETATM    7  C   UNL     1     -11.706  14.327  70.051  1.00  0.00    -0.298 C  
HETATM    8  O   UNL     1     -11.993  11.943  70.035  1.00  0.00    -0.322 OA 
HETATM    9  O   UNL     1     -13.003  14.872  69.773  1.00  0.00    -0.583 OA 
HETATM   10  C   UNL     1     -10.634  15.303  69.571  1.00  0.00    -0.267 C  
HETATM   11  C   UNL     1     -10.383  15.196  68.063  1.00  0.00    -0.240 C  
HETATM   12  H   UNL     1     -13.070  15.738  70.158  1.00  0.00     0.000 HD 
HETATM   13  O   UNL     1      -9.427  15.177  70.327  1.00  0.00    -0.391 OA 
HETATM   14  H   UNL     1      -8.759  15.783  70.029  1.00  0.00     0.000 HD 
HETATM   15  O   UNL     1     -11.466  15.778  67.319  1.00  0.00    -0.149 OA 
HETATM   16  H   UNL     1     -11.553  16.677  67.613  1.00  0.00     0.000 HD 
ENDBRANCH   2   4
TORSDOF 1
ENDMDL
MODEL      113
REMARK 921   NORMALIZED FREE ENERGY PREDICTED BY IDOCK:   -3.23 KCAL/MOL
REMARK 922        TOTAL FREE ENERGY PREDICTED BY IDOCK:   -3.65 KCAL/MOL
REMARK 923 INTER-LIGAND FREE ENERGY PREDICTED BY IDOCK:   -3.86 KCAL/MOL
REMARK 924 INTRA-LIGAND FREE ENERGY PREDICTED BY IDOCK:    0.21 KCAL/MOL
REMARK 927      BINDING AFFINITY PREDICTED BY RF-SCORE:    0.00 PKD
ROOT
HETATM    1  O   UNL     1      -6.857  18.333  68.831  1.00  0.00    -0.247 OA 
HETATM    2  C   UNL     1      -7.424  19.019  67.715  1.00  0.00    -0.246 C  
HETATM    3  H   UNL     1      -6.281  18.898  69.333  1.00  0.00     0.000 HD 
ENDROOT
BRANCH   2   4
HETATM    4  C   UNL     1      -8.354  18.106  66.905  1.00  0.00    -0.245 C  
HETATM    5  O   UNL     1      -8.267  16.775  67.462  1.00  0.00    -0.169 OA 
HETATM    6  C   UNL     1      -9.021  16.432  68.530  1.00  0.00    -0.224 C  
HETATM    7  C   UNL     1     -10.461  16.924  68.551  1.00  0.00    -0.361 C  
HETATM    8  O   UNL     1      -8.621  15.599  69.342  1.00  0.00    -0.250 OA 
HETATM    9  O   UNL     1     -11.280  16.027  67.788  1.00  0.00    -0.315 OA 
HETATM   10  C   UNL     1     -10.637  18.345  68.021  1.00  0.00    -0.318 C  
HETATM   11  C   UNL     1      -9.797  18.605  66.766  1.00  0.00    -0.341 C  
HETATM   12  H   UNL     1     -12.179  16.333  67.801  1.00  0.00     0.000 HD 
HETATM   13  O   UNL     1     -10.401  19.322  69.038  1.00  0.00    -0.543 OA 
HETATM   14  H   UNL     1     -10.511  20.207  68.708  1.00  0.00     0.000 HD 
HETATM   15  O   UNL     1     -10.361  17.943  65.622  1.00  0.00    -0.605 OA 
HETATM   16  H   UNL     1     -11.256  18.251  65.535  1.00  0.00     0.000 HD 
ENDBRANCH   2   4
TORSDOF 1
ENDMDL
MODEL      114
REMARK 921   NORMALIZED FREE ENERGY PREDICTED BY IDOCK:   -3.21 KCAL/MOL
REMARK 922        TOTAL FREE ENERGY PREDICTED BY IDOCK:   -3.63 KCAL/MOL
REMARK 923 INTER-LIGAND FREE ENERGY PREDICTED BY IDOCK:   -3.60 KCAL/MOL
REMARK 924 INTRA-LIGAND FREE ENERGY PREDICTED BY IDOCK:   -0.02 KCAL/MOL
REMARK 927      BINDING AFFINITY PREDICTED BY RF-SCORE:    0.00 PKD
ROOT
HETATM    1  O   UNL     1      -9.584   9.394  65.094  1.00  0.00    -0.416 OA 
HETATM    2  C   UNL     1     -10.138  10.593  65.636  1.00  0.00    -0.272 C  
HETATM    3  H   UNL     1     -10.124   9.043  64.397  1.00  0.00     0.000 HD 
ENDROOT
BRANCH   2   4
HETATM    4  C   UNL     1      -9.264  11.160  66.763  1.00  0.00    -0.171 C  
HETATM    5  O   UNL     1      -8.997  12.549  66.465  1.00  0.00    -0.207 OA 
HETATM    6  C   UNL     1      -9.890  13.504  66.809  1.00  0.00    -0.267 C  
HETATM    7  C   UNL     1     -10.559  13.371  68.170  1.00  0.00    -0.245 C  
HETATM    8  O   UNL     1     -10.004  14.531  66.141  1.00  0.00    -0.283 OA 
HETATM    9  O   UNL     1      -9.702  13.926  69.176  1.00  0.00    -0.416 OA 
HETATM   10  C   UNL     1     -10.919  11.935  68.545  1.00  0.00    -0.235 C  
HETATM   11  C   UNL     1      -9.808  10.944  68.181  1.00  0.00    -0.175 C  
HETATM   12  H   UNL     1     -10.119  13.843  70.025  1.00  0.00     0.000 HD 
HETATM   13  O   UNL     1     -12.184  11.547  68.004  1.00  0.00    -0.582 OA 
HETATM   14  H   UNL     1     -12.408  10.654  68.238  1.00  0.00     0.000 HD 
HETATM   15  O   UNL     1      -8.694  11.065  69.080  1.00  0.00    -0.334 OA 
HETATM   16  H   UNL     1      -9.031  10.931  69.959  1.00  0.00     0.000 HD 
ENDBRANCH   2   4
TORSDOF 1
ENDMDL
MODEL      115
REMARK 921   NORMALIZED FREE ENERGY PREDICTED BY IDOCK:   -3.18 KCAL/MOL
REMARK 922        TOTAL FREE ENERGY PREDICTED BY IDOCK:   -3.60 KCAL/MOL
REMARK 923 INTER-LIGAND FREE ENERGY PREDICTED BY IDOCK:   -3.35 KCAL/MOL
REMARK 924 INTRA-LIGAND FREE ENERGY PREDICTED BY IDOCK:   -0.25 KCAL/MOL
REMARK 927      BINDING AFFINITY PREDICTED BY RF-SCORE:    0.00 PKD
ROOT
HETATM    1  O   UNL     1     -12.589   6.711  70.082  1.00  0.00    -0.404 OA 
HETATM    2  C   UNL     1     -11.262   6.186  70.022  1.00  0.00    -0.401 C  
HETATM    3  H   UNL     1     -12.981   6.770  69.219  1.00  0.00     0.000 HD 
ENDROOT
BRANCH   2   4
HETATM    4  C   UNL     1     -10.630   6.091  71.416  1.00  0.00    -0.246 C  
HETATM    5  O   UNL     1      -9.205   6.289  71.274  1.00  0.00    -0.152 OA 
HETATM    6  C   UNL     1      -8.691   7.539  71.233  1.00  0.00    -0.125 C  
HETATM    7  C   UNL     1      -9.276   8.563  72.195  1.00  0.00    -0.266 C  
HETATM    8  O   UNL     1      -7.668   7.779  70.592  1.00  0.00    -0.087 OA 
HETATM    9  O   UNL     1      -8.640   8.432  73.473  1.00  0.00    -0.304 OA 
HETATM   10  C   UNL     1     -10.789   8.454  72.368  1.00  0.00    -0.346 C  
HETATM   11  C   UNL     1     -11.258   7.000  72.481  1.00  0.00    -0.275 C  
HETATM   12  H   UNL     1      -9.005   9.071  74.073  1.00  0.00     0.000 HD 
HETATM   13  O   UNL     1     -11.493   9.168  71.348  1.00  0.00    -0.294 OA 
HETATM   14  H   UNL     1     -12.434   9.101  71.456  1.00  0.00     0.000 HD 
HETATM   15  O   UNL     1     -10.915   6.445  73.761  1.00  0.00    -0.450 OA 
HETATM   16  H   UNL     1     -11.305   7.008  74.421  1.00  0.00     0.000 HD 
ENDBRANCH   2   4
TORSDOF 1
ENDMDL
MODEL      116
REMARK 921   NORMALIZED FREE ENERGY PREDICTED BY IDOCK:   -3.18 KCAL/MOL
REMARK 922        TOTAL FREE ENERGY PREDICTED BY IDOCK:   -3.59 KCAL/MOL
REMARK 923 INTER-LIGAND FREE ENERGY PREDICTED BY IDOCK:   -3.79 KCAL/MOL
REMARK 924 INTRA-LIGAND FREE ENERGY PREDICTED BY IDOCK:    0.19 KCAL/MOL
REMARK 927      BINDING AFFINITY PREDICTED BY RF-SCORE:    0.00 PKD
ROOT
HETATM    1  O   UNL     1      -8.669  14.528  66.205  1.00  0.00    -0.460 OA 
HETATM    2  C   UNL     1      -9.659  15.556  66.188  1.00  0.00    -0.330 C  
HETATM    3  H   UNL     1      -7.846  14.830  65.839  1.00  0.00     0.000 HD 
ENDROOT
BRANCH   2   4
HETATM    4  C   UNL     1     -10.988  15.067  66.781  1.00  0.00    -0.323 C  
HETATM    5  O   UNL     1     -11.221  13.722  66.305  1.00  0.00    -0.300 OA 
HETATM    6  C   UNL     1     -10.662  12.668  66.941  1.00  0.00    -0.242 C  
HETATM    7  C   UNL     1     -10.653  12.700  68.463  1.00  0.00    -0.243 C  
HETATM    8  O   UNL     1     -10.360  11.648  66.324  1.00  0.00    -0.221 OA 
HETATM    9  O   UNL     1     -11.913  12.224  68.955  1.00  0.00    -0.308 OA 
HETATM   10  C   UNL     1     -10.367  14.080  69.051  1.00  0.00    -0.125 C  
HETATM   11  C   UNL     1     -11.108  15.194  68.305  1.00  0.00    -0.291 C  
HETATM   12  H   UNL     1     -11.907  12.244  69.905  1.00  0.00     0.000 HD 
HETATM   13  O   UNL     1      -8.964  14.336  69.144  1.00  0.00    -0.380 OA 
HETATM   14  H   UNL     1      -8.786  15.195  69.510  1.00  0.00     0.000 HD 
HETATM   15  O   UNL     1     -12.511  15.180  68.617  1.00  0.00    -0.560 OA 
HETATM   16  H   UNL     1     -12.586  15.258  69.561  1.00  0.00     0.000 HD 
ENDBRANCH   2   4
TORSDOF 1
ENDMDL
MODEL      117
REMARK 921   NORMALIZED FREE ENERGY PREDICTED BY IDOCK:   -3.17 KCAL/MOL
REMARK 922        TOTAL FREE ENERGY PREDICTED BY IDOCK:   -3.58 KCAL/MOL
REMARK 923 INTER-LIGAND FREE ENERGY PREDICTED BY IDOCK:   -3.35 KCAL/MOL
REMARK 924 INTRA-LIGAND FREE ENERGY PREDICTED BY IDOCK:   -0.24 KCAL/MOL
REMARK 927      BINDING AFFINITY PREDICTED BY RF-SCORE:    0.00 PKD
ROOT
HETATM    1  O   UNL     1      -9.494   9.278  64.882  1.00  0.00    -0.446 OA 
HETATM    2  C   UNL     1      -9.971  10.519  65.402  1.00  0.00    -0.289 C  
HETATM    3  H   UNL     1      -9.893   9.074  64.045  1.00  0.00     0.000 HD 
ENDROOT
BRANCH   2   4
HETATM    4  C   UNL     1      -9.325  10.848  66.755  1.00  0.00    -0.165 C  
HETATM    5  O   UNL     1     -10.187  11.781  67.446  1.00  0.00    -0.196 OA 
HETATM    6  C   UNL     1     -11.238  11.331  68.167  1.00  0.00    -0.286 C  
HETATM    7  C   UNL     1     -11.019  10.084  69.012  1.00  0.00    -0.212 C  
HETATM    8  O   UNL     1     -12.256  12.011  68.288  1.00  0.00    -0.398 OA 
HETATM    9  O   UNL     1     -10.425  10.457  70.262  1.00  0.00    -0.430 OA 
HETATM   10  C   UNL     1     -10.154   9.023  68.335  1.00  0.00    -0.191 C  
HETATM   11  C   UNL     1      -8.949   9.632  67.611  1.00  0.00    -0.125 C  
HETATM   12  H   UNL     1     -10.288   9.678  70.790  1.00  0.00     0.000 HD 
HETATM   13  O   UNL     1     -10.925   8.177  67.479  1.00  0.00    -0.509 OA 
HETATM   14  H   UNL     1     -10.386   7.517  67.058  1.00  0.00     0.000 HD 
HETATM   15  O   UNL     1      -7.951  10.071  68.548  1.00  0.00    -0.097 OA 
HETATM   16  H   UNL     1      -7.718   9.318  69.078  1.00  0.00     0.000 HD 
ENDBRANCH   2   4
TORSDOF 1
ENDMDL
MODEL      118
REMARK 921   NORMALIZED FREE ENERGY PREDICTED BY IDOCK:   -3.12 KCAL/MOL
REMARK 922        TOTAL FREE ENERGY PREDICTED BY IDOCK:   -3.53 KCAL/MOL
REMARK 923 INTER-LIGAND FREE ENERGY PREDICTED BY IDOCK:   -3.28 KCAL/MOL
REMARK 924 INTRA-LIGAND FREE ENERGY PREDICTED BY IDOCK:   -0.25 KCAL/MOL
REMARK 927      BINDING AFFINITY PREDICTED BY RF-SCORE:    0.00 PKD
ROOT
HETATM    1  O   UNL     1     -10.558   7.482  66.672  1.00  0.00    -0.493 OA 
HETATM    2  C   UNL     1     -10.532   8.735  67.356  1.00  0.00    -0.279 C  
HETATM    3  H   UNL     1     -11.063   7.532  65.870  1.00  0.00     0.000 HD 
ENDROOT
BRANCH   2   4
HETATM    4  C   UNL     1      -9.715   8.653  68.652  1.00  0.00    -0.163 C  
HETATM    5  O   UNL     1     -10.204   9.673  69.553  1.00  0.00    -0.193 OA 
HETATM    6  C   UNL     1     -11.282   9.435  70.332  1.00  0.00    -0.262 C  
HETATM    7  C   UNL     1     -11.380   8.062  70.981  1.00  0.00    -0.273 C  
HETATM    8  O   UNL     1     -12.038  10.349  70.659  1.00  0.00    -0.293 OA 
HETATM    9  O   UNL     1     -10.607   8.052  72.189  1.00  0.00    -0.233 OA 
HETATM   10  C   UNL     1     -10.926   6.917  70.079  1.00  0.00    -0.279 C  
HETATM   11  C   UNL     1      -9.654   7.263  69.298  1.00  0.00    -0.156 C  
HETATM   12  H   UNL     1     -10.669   7.195  72.594  1.00  0.00     0.000 HD 
HETATM   13  O   UNL     1     -11.978   6.468  69.221  1.00  0.00    -0.519 OA 
HETATM   14  H   UNL     1     -11.696   5.756  68.660  1.00  0.00     0.000 HD 
HETATM   15  O   UNL     1      -8.502   7.250  70.157  1.00  0.00    -0.135 OA 
HETATM   16  H   UNL     1      -8.463   6.389  70.557  1.00  0.00     0.000 HD 
ENDBRANCH   2   4
TORSDOF 1
ENDMDL
MODEL      119
REMARK 921   NORMALIZED FREE ENERGY PREDICTED BY IDOCK:   -3.11 KCAL/MOL
REMARK 922        TOTAL FREE ENERGY PREDICTED BY IDOCK:   -3.52 KCAL/MOL
REMARK 923 INTER-LIGAND FREE ENERGY PREDICTED BY IDOCK:   -3.49 KCAL/MOL
REMARK 924 INTRA-LIGAND FREE ENERGY PREDICTED BY IDOCK:   -0.03 KCAL/MOL
REMARK 927      BINDING AFFINITY PREDICTED BY RF-SCORE:    0.00 PKD
ROOT
HETATM    1  O   UNL     1     -12.713  15.487  70.307  1.00  0.00    -0.562 OA 
HETATM    2  C   UNL     1     -12.598  14.968  68.982  1.00  0.00     0.255 C  
HETATM    3  H   UNL     1     -13.574  15.857  70.464  1.00  0.00     0.000 HD 
ENDROOT
BRANCH   2   4
HETATM    4  C   UNL     1     -11.206  14.372  68.730  1.00  0.00    -0.260 C  
HETATM    5  O   UNL     1     -11.249  12.972  69.091  1.00  0.00    -0.259 OA 
HETATM    6  C   UNL     1     -11.697  12.054  68.206  1.00  0.00    -0.334 C  
HETATM    7  C   UNL     1     -11.262  12.216  66.756  1.00  0.00    -0.322 C  
HETATM    8  O   UNL     1     -12.260  11.030  68.590  1.00  0.00    -0.571 OA 
HETATM    9  O   UNL     1      -9.964  11.632  66.582  1.00  0.00    -0.198 OA 
HETATM   10  C   UNL     1     -11.234  13.666  66.278  1.00  0.00    -0.305 C  
HETATM   11  C   UNL     1     -10.639  14.612  67.326  1.00  0.00    -0.284 C  
HETATM   12  H   UNL     1      -9.693  11.733  65.677  1.00  0.00     0.000 HD 
HETATM   13  O   UNL     1     -12.519  14.101  65.828  1.00  0.00    -0.466 OA 
HETATM   14  H   UNL     1     -12.502  15.003  65.530  1.00  0.00     0.000 HD 
HETATM   15  O   UNL     1      -9.214  14.451  67.416  1.00  0.00    -0.186 OA 
HETATM   16  H   UNL     1      -8.861  14.600  66.546  1.00  0.00     0.000 HD 
ENDBRANCH   2   4
TORSDOF 1
ENDMDL
MODEL      120
REMARK 921   NORMALIZED FREE ENERGY PREDICTED BY IDOCK:   -3.07 KCAL/MOL
REMARK 922        TOTAL FREE ENERGY PREDICTED BY IDOCK:   -3.49 KCAL/MOL
REMARK 923 INTER-LIGAND FREE ENERGY PREDICTED BY IDOCK:   -3.46 KCAL/MOL
REMARK 924 INTRA-LIGAND FREE ENERGY PREDICTED BY IDOCK:   -0.02 KCAL/MOL
REMARK 927      BINDING AFFINITY PREDICTED BY RF-SCORE:    0.00 PKD
ROOT
HETATM    1  O   UNL     1     -11.382  13.313  66.211  1.00  0.00    -0.295 OA 
HETATM    2  C   UNL     1     -10.698  14.553  66.030  1.00  0.00    -0.305 C  
HETATM    3  H   UNL     1     -11.633  12.928  65.380  1.00  0.00     0.000 HD 
ENDROOT
BRANCH   2   4
HETATM    4  C   UNL     1     -10.292  15.174  67.374  1.00  0.00    -0.244 C  
HETATM    5  O   UNL     1      -8.850  15.136  67.465  1.00  0.00    -0.171 OA 
HETATM    6  C   UNL     1      -8.105  16.113  66.899  1.00  0.00    -0.240 C  
HETATM    7  C   UNL     1      -8.610  17.541  67.042  1.00  0.00    -0.235 C  
HETATM    8  O   UNL     1      -6.978  15.875  66.468  1.00  0.00    -0.135 OA 
HETATM    9  O   UNL     1      -8.191  18.069  68.308  1.00  0.00    -0.274 OA 
HETATM   10  C   UNL     1     -10.125  17.679  66.911  1.00  0.00    -0.331 C  
HETATM   11  C   UNL     1     -10.875  16.566  67.651  1.00  0.00    -0.269 C  
HETATM   12  H   UNL     1      -8.506  18.961  68.396  1.00  0.00     0.000 HD 
HETATM   13  O   UNL     1     -10.532  17.785  65.545  1.00  0.00    -0.646 OA 
HETATM   14  H   UNL     1     -11.475  17.870  65.463  1.00  0.00     0.000 HD 
HETATM   15  O   UNL     1     -10.823  16.766  69.073  1.00  0.00    -0.319 OA 
HETATM   16  H   UNL     1     -11.183  17.629  69.245  1.00  0.00     0.000 HD 
ENDBRANCH   2   4
TORSDOF 1
ENDMDL
MODEL      121
REMARK 921   NORMALIZED FREE ENERGY PREDICTED BY IDOCK:   -3.06 KCAL/MOL
REMARK 922        TOTAL FREE ENERGY PREDICTED BY IDOCK:   -3.47 KCAL/MOL
REMARK 923 INTER-LIGAND FREE ENERGY PREDICTED BY IDOCK:   -3.63 KCAL/MOL
REMARK 924 INTRA-LIGAND FREE ENERGY PREDICTED BY IDOCK:    0.16 KCAL/MOL
REMARK 927      BINDING AFFINITY PREDICTED BY RF-SCORE:    0.00 PKD
ROOT
HETATM    1  O   UNL     1      -7.319  14.603  67.028  1.00  0.00    -0.296 OA 
HETATM    2  C   UNL     1      -7.458  16.024  66.999  1.00  0.00    -0.229 C  
HETATM    3  H   UNL     1      -6.406  14.341  67.037  1.00  0.00     0.000 HD 
ENDROOT
BRANCH   2   4
HETATM    4  C   UNL     1      -8.934  16.446  66.984  1.00  0.00    -0.212 C  
HETATM    5  O   UNL     1      -9.679  15.438  66.263  1.00  0.00    -0.257 OA 
HETATM    6  C   UNL     1     -10.105  14.322  66.895  1.00  0.00    -0.264 C  
HETATM    7  C   UNL     1     -10.663  14.490  68.301  1.00  0.00    -0.240 C  
HETATM    8  O   UNL     1     -10.220  13.259  66.288  1.00  0.00    -0.282 OA 
HETATM    9  O   UNL     1     -12.042  14.873  68.222  1.00  0.00    -0.542 OA 
HETATM   10  C   UNL     1      -9.903  15.506  69.151  1.00  0.00    -0.246 C  
HETATM   11  C   UNL     1      -9.534  16.765  68.359  1.00  0.00    -0.241 C  
HETATM   12  H   UNL     1     -12.391  14.978  69.099  1.00  0.00     0.000 HD 
HETATM   13  O   UNL     1      -8.765  14.919  69.788  1.00  0.00    -0.444 OA 
HETATM   14  H   UNL     1      -8.292  15.551  70.317  1.00  0.00     0.000 HD 
HETATM   15  O   UNL     1     -10.690  17.588  68.131  1.00  0.00    -0.381 OA 
HETATM   16  H   UNL     1     -11.062  17.787  68.983  1.00  0.00     0.000 HD 
ENDBRANCH   2   4
TORSDOF 1
ENDMDL
MODEL      122
REMARK 921   NORMALIZED FREE ENERGY PREDICTED BY IDOCK:   -3.06 KCAL/MOL
REMARK 922        TOTAL FREE ENERGY PREDICTED BY IDOCK:   -3.47 KCAL/MOL
REMARK 923 INTER-LIGAND FREE ENERGY PREDICTED BY IDOCK:   -3.25 KCAL/MOL
REMARK 924 INTRA-LIGAND FREE ENERGY PREDICTED BY IDOCK:   -0.22 KCAL/MOL
REMARK 927      BINDING AFFINITY PREDICTED BY RF-SCORE:    0.00 PKD
ROOT
HETATM    1  O   UNL     1      -9.819   8.312  66.127  1.00  0.00    -0.427 OA 
HETATM    2  C   UNL     1      -9.603   8.988  67.365  1.00  0.00    -0.152 C  
HETATM    3  H   UNL     1     -10.139   8.904  65.456  1.00  0.00     0.000 HD 
ENDROOT
BRANCH   2   4
HETATM    4  C   UNL     1      -9.087   8.031  68.448  1.00  0.00    -0.136 C  
HETATM    5  O   UNL     1      -9.669   8.429  69.710  1.00  0.00    -0.177 OA 
HETATM    6  C   UNL     1     -10.904   8.000  70.056  1.00  0.00    -0.235 C  
HETATM    7  C   UNL     1     -11.248   6.551  69.745  1.00  0.00    -0.395 C  
HETATM    8  O   UNL     1     -11.634   8.690  70.766  1.00  0.00    -0.278 OA 
HETATM    9  O   UNL     1     -10.751   5.709  70.794  1.00  0.00    -0.260 OA 
HETATM   10  C   UNL     1     -10.709   6.061  68.403  1.00  0.00    -0.280 C  
HETATM   11  C   UNL     1      -9.277   6.540  68.143  1.00  0.00    -0.112 C  
HETATM   12  H   UNL     1     -10.966   4.804  70.600  1.00  0.00     0.000 HD 
HETATM   13  O   UNL     1     -11.590   6.389  67.326  1.00  0.00    -0.695 OA 
HETATM   14  H   UNL     1     -11.254   6.084  66.491  1.00  0.00     0.000 HD 
HETATM   15  O   UNL     1      -8.337   5.822  68.959  1.00  0.00    -0.100 OA 
HETATM   16  H   UNL     1      -8.454   4.898  68.771  1.00  0.00     0.000 HD 
ENDBRANCH   2   4
TORSDOF 1
ENDMDL
MODEL      123
REMARK 921   NORMALIZED FREE ENERGY PREDICTED BY IDOCK:   -3.05 KCAL/MOL
REMARK 922        TOTAL FREE ENERGY PREDICTED BY IDOCK:   -3.46 KCAL/MOL
REMARK 923 INTER-LIGAND FREE ENERGY PREDICTED BY IDOCK:   -3.40 KCAL/MOL
REMARK 924 INTRA-LIGAND FREE ENERGY PREDICTED BY IDOCK:   -0.05 KCAL/MOL
REMARK 927      BINDING AFFINITY PREDICTED BY RF-SCORE:    0.00 PKD
ROOT
HETATM    1  O   UNL     1     -10.530  18.326  69.110  1.00  0.00    -0.445 OA 
HETATM    2  C   UNL     1      -9.667  19.241  68.434  1.00  0.00    -0.403 C  
HETATM    3  H   UNL     1     -10.753  18.634  69.980  1.00  0.00     0.000 HD 
ENDROOT
BRANCH   2   4
HETATM    4  C   UNL     1      -9.307  18.742  67.028  1.00  0.00    -0.297 C  
HETATM    5  O   UNL     1      -8.681  19.833  66.314  1.00  0.00    -0.353 OA 
HETATM    6  C   UNL     1      -7.360  20.075  66.462  1.00  0.00    -0.267 C  
HETATM    7  C   UNL     1      -6.433  18.868  66.506  1.00  0.00    -0.191 C  
HETATM    8  O   UNL     1      -6.913  21.217  66.362  1.00  0.00    -0.142 OA 
HETATM    9  O   UNL     1      -6.125  18.457  65.167  1.00  0.00    -0.243 OA 
HETATM   10  C   UNL     1      -6.999  17.682  67.283  1.00  0.00    -0.166 C  
HETATM   11  C   UNL     1      -8.484  17.448  66.987  1.00  0.00    -0.225 C  
HETATM   12  H   UNL     1      -5.547  17.704  65.195  1.00  0.00     0.000 HD 
HETATM   13  O   UNL     1      -6.743  17.796  68.685  1.00  0.00    -0.211 OA 
HETATM   14  H   UNL     1      -7.095  17.058  69.169  1.00  0.00     0.000 HD 
HETATM   15  O   UNL     1      -8.665  16.878  65.680  1.00  0.00    -0.460 OA 
HETATM   16  H   UNL     1      -8.156  16.076  65.654  1.00  0.00     0.000 HD 
ENDBRANCH   2   4
TORSDOF 1
ENDMDL
MODEL      124
REMARK 921   NORMALIZED FREE ENERGY PREDICTED BY IDOCK:   -3.02 KCAL/MOL
REMARK 922        TOTAL FREE ENERGY PREDICTED BY IDOCK:   -3.43 KCAL/MOL
REMARK 923 INTER-LIGAND FREE ENERGY PREDICTED BY IDOCK:   -3.59 KCAL/MOL
REMARK 924 INTRA-LIGAND FREE ENERGY PREDICTED BY IDOCK:    0.16 KCAL/MOL
REMARK 927      BINDING AFFINITY PREDICTED BY RF-SCORE:    0.00 PKD
ROOT
HETATM    1  O   UNL     1     -11.737  14.319  67.104  1.00  0.00    -0.366 OA 
HETATM    2  C   UNL     1     -11.339  14.945  65.884  1.00  0.00    -0.306 C  
HETATM    3  H   UNL     1     -12.273  13.551  66.944  1.00  0.00     0.000 HD 
ENDROOT
BRANCH   2   4
HETATM    4  C   UNL     1     -10.474  16.186  66.143  1.00  0.00    -0.325 C  
HETATM    5  O   UNL     1     -10.910  16.783  67.385  1.00  0.00    -0.283 OA 
HETATM    6  C   UNL     1     -10.436  16.325  68.565  1.00  0.00    -0.278 C  
HETATM    7  C   UNL     1      -8.955  15.982  68.633  1.00  0.00    -0.210 C  
HETATM    8  O   UNL     1     -11.125  16.376  69.583  1.00  0.00    -0.333 OA 
HETATM    9  O   UNL     1      -8.202  17.175  68.887  1.00  0.00    -0.255 OA 
HETATM   10  C   UNL     1      -8.420  15.302  67.375  1.00  0.00    -0.179 C  
HETATM   11  C   UNL     1      -8.959  15.946  66.093  1.00  0.00    -0.341 C  
HETATM   12  H   UNL     1      -7.278  16.961  68.929  1.00  0.00     0.000 HD 
HETATM   13  O   UNL     1      -8.639  13.890  67.400  1.00  0.00    -0.178 OA 
HETATM   14  H   UNL     1      -8.306  13.467  66.617  1.00  0.00     0.000 HD 
HETATM   15  O   UNL     1      -8.341  17.221  65.856  1.00  0.00    -0.533 OA 
HETATM   16  H   UNL     1      -7.402  17.073  65.824  1.00  0.00     0.000 HD 
ENDBRANCH   2   4
TORSDOF 1
ENDMDL
MODEL      125
REMARK 921   NORMALIZED FREE ENERGY PREDICTED BY IDOCK:   -2.99 KCAL/MOL
REMARK 922        TOTAL FREE ENERGY PREDICTED BY IDOCK:   -3.40 KCAL/MOL
REMARK 923 INTER-LIGAND FREE ENERGY PREDICTED BY IDOCK:   -3.38 KCAL/MOL
REMARK 924 INTRA-LIGAND FREE ENERGY PREDICTED BY IDOCK:   -0.02 KCAL/MOL
REMARK 927      BINDING AFFINITY PREDICTED BY RF-SCORE:    0.00 PKD
ROOT
HETATM    1  O   UNL     1      -6.141  17.881  68.432  1.00  0.00    -0.173 OA 
HETATM    2  C   UNL     1      -7.550  17.755  68.619  1.00  0.00    -0.276 C  
HETATM    3  H   UNL     1      -5.818  18.712  68.760  1.00  0.00     0.000 HD 
ENDROOT
BRANCH   2   4
HETATM    4  C   UNL     1      -8.071  16.412  68.089  1.00  0.00    -0.165 C  
HETATM    5  O   UNL     1      -8.950  15.849  69.090  1.00  0.00    -0.229 OA 
HETATM    6  C   UNL     1     -10.248  16.220  69.145  1.00  0.00    -0.266 C  
HETATM    7  C   UNL     1     -10.982  16.377  67.821  1.00  0.00    -0.261 C  
HETATM    8  O   UNL     1     -10.855  16.234  70.215  1.00  0.00    -0.319 OA 
HETATM    9  O   UNL     1     -11.453  15.094  67.385  1.00  0.00    -0.332 OA 
HETATM   10  C   UNL     1     -10.139  17.010  66.717  1.00  0.00    -0.300 C  
HETATM   11  C   UNL     1      -8.707  16.464  66.694  1.00  0.00    -0.256 C  
HETATM   12  H   UNL     1     -11.911  15.192  66.559  1.00  0.00     0.000 HD 
HETATM   13  O   UNL     1     -10.169  18.438  66.780  1.00  0.00    -0.346 OA 
HETATM   14  H   UNL     1      -9.644  18.832  66.093  1.00  0.00     0.000 HD 
HETATM   15  O   UNL     1      -8.673  15.127  66.168  1.00  0.00    -0.455 OA 
HETATM   16  H   UNL     1      -9.067  15.159  65.304  1.00  0.00     0.000 HD 
ENDBRANCH   2   4
TORSDOF 1
ENDMDL
MODEL      126
REMARK 921   NORMALIZED FREE ENERGY PREDICTED BY IDOCK:   -2.99 KCAL/MOL
REMARK 922        TOTAL FREE ENERGY PREDICTED BY IDOCK:   -3.40 KCAL/MOL
REMARK 923 INTER-LIGAND FREE ENERGY PREDICTED BY IDOCK:   -3.37 KCAL/MOL
REMARK 924 INTRA-LIGAND FREE ENERGY PREDICTED BY IDOCK:   -0.02 KCAL/MOL
REMARK 927      BINDING AFFINITY PREDICTED BY RF-SCORE:    0.00 PKD
ROOT
HETATM    1  O   UNL     1      -8.762  12.058  67.351  1.00  0.00    -0.156 OA 
HETATM    2  C   UNL     1      -9.769  13.041  67.112  1.00  0.00    -0.230 C  
HETATM    3  H   UNL     1      -9.102  11.322  67.847  1.00  0.00     0.000 HD 
ENDROOT
BRANCH   2   4
HETATM    4  C   UNL     1      -9.219  14.228  66.311  1.00  0.00    -0.151 C  
HETATM    5  O   UNL     1      -9.927  14.283  65.051  1.00  0.00    -0.338 OA 
HETATM    6  C   UNL     1     -11.124  14.906  64.968  1.00  0.00    -0.414 C  
HETATM    7  C   UNL     1     -11.277  16.220  65.720  1.00  0.00     0.199 C  
HETATM    8  O   UNL     1     -11.975  14.530  64.163  1.00  0.00    -0.413 OA 
HETATM    9  O   UNL     1     -10.757  17.289  64.919  1.00  0.00    -0.723 OA 
HETATM   10  C   UNL     1     -10.596  16.233  67.087  1.00  0.00    -0.291 C  
HETATM   11  C   UNL     1      -9.215  15.570  67.054  1.00  0.00    -0.225 C  
HETATM   12  H   UNL     1     -10.852  18.109  65.388  1.00  0.00     0.000 HD 
HETATM   13  O   UNL     1     -11.435  15.677  68.103  1.00  0.00    -0.352 OA 
HETATM   14  H   UNL     1     -11.011  15.685  68.953  1.00  0.00     0.000 HD 
HETATM   15  O   UNL     1      -8.254  16.411  66.394  1.00  0.00    -0.282 OA 
HETATM   16  H   UNL     1      -8.251  17.243  66.855  1.00  0.00     0.000 HD 
ENDBRANCH   2   4
TORSDOF 1
ENDMDL
MODEL      127
REMARK 921   NORMALIZED FREE ENERGY PREDICTED BY IDOCK:   -2.98 KCAL/MOL
REMARK 922        TOTAL FREE ENERGY PREDICTED BY IDOCK:   -3.39 KCAL/MOL
REMARK 923 INTER-LIGAND FREE ENERGY PREDICTED BY IDOCK:   -3.36 KCAL/MOL
REMARK 924 INTRA-LIGAND FREE ENERGY PREDICTED BY IDOCK:   -0.03 KCAL/MOL
REMARK 927      BINDING AFFINITY PREDICTED BY RF-SCORE:    0.00 PKD
ROOT
HETATM    1  O   UNL     1      -7.743   4.943  71.763  1.00  0.00    -0.096 OA 
HETATM    2  C   UNL     1      -8.792   5.831  72.148  1.00  0.00    -0.137 C  
HETATM    3  H   UNL     1      -7.746   4.150  72.286  1.00  0.00     0.000 HD 
ENDROOT
BRANCH   2   4
HETATM    4  C   UNL     1      -8.786   7.112  71.302  1.00  0.00    -0.128 C  
HETATM    5  O   UNL     1      -9.497   6.839  70.073  1.00  0.00    -0.158 OA 
HETATM    6  C   UNL     1     -10.845   6.933  70.031  1.00  0.00    -0.262 C  
HETATM    7  C   UNL     1     -11.483   8.103  70.765  1.00  0.00    -0.261 C  
HETATM    8  O   UNL     1     -11.502   6.224  69.270  1.00  0.00    -0.411 OA 
HETATM    9  O   UNL     1     -11.457   9.263  69.923  1.00  0.00    -0.423 OA 
HETATM   10  C   UNL     1     -10.820   8.431  72.101  1.00  0.00    -0.337 C  
HETATM   11  C   UNL     1      -9.291   8.370  72.021  1.00  0.00    -0.262 C  
HETATM   12  H   UNL     1     -11.855   9.994  70.381  1.00  0.00     0.000 HD 
HETATM   13  O   UNL     1     -11.336   7.623  73.161  1.00  0.00    -0.573 OA 
HETATM   14  H   UNL     1     -10.923   7.827  73.993  1.00  0.00     0.000 HD 
HETATM   15  O   UNL     1      -8.766   9.500  71.305  1.00  0.00    -0.311 OA 
HETATM   16  H   UNL     1      -9.079  10.280  71.750  1.00  0.00     0.000 HD 
ENDBRANCH   2   4
TORSDOF 1
ENDMDL
MODEL      128
REMARK 921   NORMALIZED FREE ENERGY PREDICTED BY IDOCK:   -2.98 KCAL/MOL
REMARK 922        TOTAL FREE ENERGY PREDICTED BY IDOCK:   -3.38 KCAL/MOL
REMARK 923 INTER-LIGAND FREE ENERGY PREDICTED BY IDOCK:   -3.30 KCAL/MOL
REMARK 924 INTRA-LIGAND FREE ENERGY PREDICTED BY IDOCK:   -0.09 KCAL/MOL
REMARK 927      BINDING AFFINITY PREDICTED BY RF-SCORE:    0.00 PKD
ROOT
HETATM    1  O   UNL     1     -11.554   4.673  65.425  1.00  0.00    -1.015 OA 
HETATM    2  C   UNL     1     -10.218   4.677  65.926  1.00  0.00    -0.276 C  
HETATM    3  H   UNL     1     -11.579   4.462  64.499  1.00  0.00     0.000 HD 
ENDROOT
BRANCH   2   4
HETATM    4  C   UNL     1     -10.178   5.018  67.422  1.00  0.00    -0.148 C  
HETATM    5  O   UNL     1      -8.793   5.073  67.831  1.00  0.00    -0.103 OA 
HETATM    6  C   UNL     1      -8.074   6.204  67.654  1.00  0.00    -0.113 C  
HETATM    7  C   UNL     1      -8.769   7.524  67.955  1.00  0.00    -0.121 C  
HETATM    8  O   UNL     1      -6.861   6.155  67.453  1.00  0.00    -0.059 OA 
HETATM    9  O   UNL     1      -8.690   7.791  69.362  1.00  0.00    -0.134 OA 
HETATM   10  C   UNL     1     -10.229   7.569  67.512  1.00  0.00    -0.223 C  
HETATM   11  C   UNL     1     -10.973   6.266  67.827  1.00  0.00    -0.332 C  
HETATM   12  H   UNL     1      -9.124   8.615  69.550  1.00  0.00     0.000 HD 
HETATM   13  O   UNL     1     -10.355   7.940  66.137  1.00  0.00    -0.390 OA 
HETATM   14  H   UNL     1     -11.264   7.968  65.861  1.00  0.00     0.000 HD 
HETATM   15  O   UNL     1     -11.241   6.154  69.235  1.00  0.00    -0.387 OA 
HETATM   16  H   UNL     1     -11.734   6.927  69.486  1.00  0.00     0.000 HD 
ENDBRANCH   2   4
TORSDOF 1
ENDMDL
MODEL      129
REMARK 921   NORMALIZED FREE ENERGY PREDICTED BY IDOCK:   -2.97 KCAL/MOL
REMARK 922        TOTAL FREE ENERGY PREDICTED BY IDOCK:   -3.38 KCAL/MOL
REMARK 923 INTER-LIGAND FREE ENERGY PREDICTED BY IDOCK:   -3.37 KCAL/MOL
REMARK 924 INTRA-LIGAND FREE ENERGY PREDICTED BY IDOCK:   -0.01 KCAL/MOL
REMARK 927      BINDING AFFINITY PREDICTED BY RF-SCORE:    0.00 PKD
ROOT
HETATM    1  O   UNL     1     -10.169   5.167  71.883  1.00  0.00    -0.196 OA 
HETATM    2  C   UNL     1      -9.715   5.412  70.552  1.00  0.00    -0.185 C  
HETATM    3  H   UNL     1      -9.499   4.748  72.409  1.00  0.00     0.000 HD 
ENDROOT
BRANCH   2   4
HETATM    4  C   UNL     1     -10.799   6.089  69.702  1.00  0.00    -0.369 C  
HETATM    5  O   UNL     1     -11.586   6.933  70.573  1.00  0.00    -0.318 OA 
HETATM    6  C   UNL     1     -11.170   8.186  70.866  1.00  0.00    -0.266 C  
HETATM    7  C   UNL     1     -10.574   9.004  69.730  1.00  0.00    -0.228 C  
HETATM    8  O   UNL     1     -11.446   8.704  71.947  1.00  0.00    -0.302 OA 
HETATM    9  O   UNL     1     -11.632   9.618  68.982  1.00  0.00    -0.454 OA 
HETATM   10  C   UNL     1      -9.687   8.196  68.785  1.00  0.00    -0.153 C  
HETATM   11  C   UNL     1     -10.286   6.824  68.457  1.00  0.00    -0.175 C  
HETATM   12  H   UNL     1     -11.260  10.129  68.272  1.00  0.00     0.000 HD 
HETATM   13  O   UNL     1      -8.347   8.095  69.273  1.00  0.00    -0.126 OA 
HETATM   14  H   UNL     1      -7.795   7.593  68.685  1.00  0.00     0.000 HD 
HETATM   15  O   UNL     1     -11.399   6.950  67.556  1.00  0.00    -0.597 OA 
HETATM   16  H   UNL     1     -11.081   7.405  66.785  1.00  0.00     0.000 HD 
ENDBRANCH   2   4
TORSDOF 1
ENDMDL
MODEL      130
REMARK 921   NORMALIZED FREE ENERGY PREDICTED BY IDOCK:   -2.97 KCAL/MOL
REMARK 922        TOTAL FREE ENERGY PREDICTED BY IDOCK:   -3.38 KCAL/MOL
REMARK 923 INTER-LIGAND FREE ENERGY PREDICTED BY IDOCK:   -3.13 KCAL/MOL
REMARK 924 INTRA-LIGAND FREE ENERGY PREDICTED BY IDOCK:   -0.25 KCAL/MOL
REMARK 927      BINDING AFFINITY PREDICTED BY RF-SCORE:    0.00 PKD
ROOT
HETATM    1  O   UNL     1     -11.273   4.478  73.473  1.00  0.00    -0.305 OA 
HETATM    2  C   UNL     1     -10.358   4.619  72.386  1.00  0.00    -0.199 C  
HETATM    3  H   UNL     1     -11.639   3.602  73.510  1.00  0.00     0.000 HD 
ENDROOT
BRANCH   2   4
HETATM    4  C   UNL     1      -9.767   6.033  72.327  1.00  0.00    -0.156 C  
HETATM    5  O   UNL     1      -9.518   6.355  70.940  1.00  0.00    -0.173 OA 
HETATM    6  C   UNL     1     -10.511   6.843  70.164  1.00  0.00    -0.209 C  
HETATM    7  C   UNL     1     -11.439   7.875  70.790  1.00  0.00    -0.263 C  
HETATM    8  O   UNL     1     -10.538   6.613  68.955  1.00  0.00    -0.203 OA 
HETATM    9  O   UNL     1     -10.838   9.173  70.695  1.00  0.00    -0.230 OA 
HETATM   10  C   UNL     1     -11.792   7.585  72.247  1.00  0.00    -0.289 C  
HETATM   11  C   UNL     1     -10.580   7.111  73.056  1.00  0.00    -0.308 C  
HETATM   12  H   UNL     1     -11.417   9.817  71.086  1.00  0.00     0.000 HD 
HETATM   13  O   UNL     1     -12.896   6.684  72.356  1.00  0.00    -0.527 OA 
HETATM   14  H   UNL     1     -13.116   6.503  73.262  1.00  0.00     0.000 HD 
HETATM   15  O   UNL     1      -9.683   8.201  73.327  1.00  0.00    -0.269 OA 
HETATM   16  H   UNL     1     -10.186   8.868  73.779  1.00  0.00     0.000 HD 
ENDBRANCH   2   4
TORSDOF 1
ENDMDL
MODEL      131
REMARK 921   NORMALIZED FREE ENERGY PREDICTED BY IDOCK:   -2.96 KCAL/MOL
REMARK 922        TOTAL FREE ENERGY PREDICTED BY IDOCK:   -3.36 KCAL/MOL
REMARK 923 INTER-LIGAND FREE ENERGY PREDICTED BY IDOCK:   -3.53 KCAL/MOL
REMARK 924 INTRA-LIGAND FREE ENERGY PREDICTED BY IDOCK:    0.17 KCAL/MOL
REMARK 927      BINDING AFFINITY PREDICTED BY RF-SCORE:    0.00 PKD
ROOT
HETATM    1  O   UNL     1     -11.011  18.399  67.772  1.00  0.00    -0.323 OA 
HETATM    2  C   UNL     1      -9.997  18.267  68.768  1.00  0.00    -0.370 C  
HETATM    3  H   UNL     1     -11.431  19.251  67.812  1.00  0.00     0.000 HD 
ENDROOT
BRANCH   2   4
HETATM    4  C   UNL     1      -9.320  16.892  68.704  1.00  0.00    -0.268 C  
HETATM    5  O   UNL     1     -10.332  15.910  68.383  1.00  0.00    -0.230 OA 
HETATM    6  C   UNL     1     -10.683  15.690  67.096  1.00  0.00    -0.314 C  
HETATM    7  C   UNL     1      -9.563  15.655  66.066  1.00  0.00    -0.351 C  
HETATM    8  O   UNL     1     -11.825  15.336  66.806  1.00  0.00    -0.089 OA 
HETATM    9  O   UNL     1      -8.978  14.346  66.046  1.00  0.00    -0.484 OA 
HETATM   10  C   UNL     1      -8.470  16.694  66.305  1.00  0.00    -0.320 C  
HETATM   11  C   UNL     1      -8.094  16.812  67.786  1.00  0.00    -0.179 C  
HETATM   12  H   UNL     1      -8.279  14.323  65.403  1.00  0.00     0.000 HD 
HETATM   13  O   UNL     1      -8.810  17.961  65.735  1.00  0.00    -0.495 OA 
HETATM   14  H   UNL     1      -8.130  18.608  65.883  1.00  0.00     0.000 HD 
HETATM   15  O   UNL     1      -7.323  15.676  68.213  1.00  0.00    -0.111 OA 
HETATM   16  H   UNL     1      -6.563  15.626  67.645  1.00  0.00     0.000 HD 
ENDBRANCH   2   4
TORSDOF 1
ENDMDL
MODEL      132
REMARK 921   NORMALIZED FREE ENERGY PREDICTED BY IDOCK:   -2.95 KCAL/MOL
REMARK 922        TOTAL FREE ENERGY PREDICTED BY IDOCK:   -3.36 KCAL/MOL
REMARK 923 INTER-LIGAND FREE ENERGY PREDICTED BY IDOCK:   -3.34 KCAL/MOL
REMARK 924 INTRA-LIGAND FREE ENERGY PREDICTED BY IDOCK:   -0.02 KCAL/MOL
REMARK 927      BINDING AFFINITY PREDICTED BY RF-SCORE:    0.00 PKD
ROOT
HETATM    1  O   UNL     1     -13.071   8.964  71.900  1.00  0.00    -0.335 OA 
HETATM    2  C   UNL     1     -12.184   9.812  71.171  1.00  0.00    -0.362 C  
HETATM    3  H   UNL     1     -13.949   9.325  71.936  1.00  0.00     0.000 HD 
ENDROOT
BRANCH   2   4
HETATM    4  C   UNL     1     -10.766   9.229  71.114  1.00  0.00    -0.333 C  
HETATM    5  O   UNL     1     -10.878   7.788  71.062  1.00  0.00    -0.233 OA 
HETATM    6  C   UNL     1     -11.079   7.162  69.881  1.00  0.00    -0.235 C  
HETATM    7  C   UNL     1     -10.300   7.678  68.679  1.00  0.00    -0.200 C  
HETATM    8  O   UNL     1     -11.707   6.105  69.827  1.00  0.00    -0.340 OA 
HETATM    9  O   UNL     1      -8.992   7.091  68.675  1.00  0.00    -0.131 OA 
HETATM   10  C   UNL     1     -10.174   9.199  68.631  1.00  0.00    -0.204 C  
HETATM   11  C   UNL     1      -9.871   9.801  70.007  1.00  0.00    -0.251 C  
HETATM   12  H   UNL     1      -8.506   7.412  67.925  1.00  0.00     0.000 HD 
HETATM   13  O   UNL     1     -11.313   9.806  68.017  1.00  0.00    -0.524 OA 
HETATM   14  H   UNL     1     -11.234  10.753  67.987  1.00  0.00     0.000 HD 
HETATM   15  O   UNL     1      -8.511   9.544  70.394  1.00  0.00    -0.191 OA 
HETATM   16  H   UNL     1      -7.955   9.898  69.709  1.00  0.00     0.000 HD 
ENDBRANCH   2   4
TORSDOF 1
ENDMDL
MODEL      133
REMARK 921   NORMALIZED FREE ENERGY PREDICTED BY IDOCK:   -2.95 KCAL/MOL
REMARK 922        TOTAL FREE ENERGY PREDICTED BY IDOCK:   -3.35 KCAL/MOL
REMARK 923 INTER-LIGAND FREE ENERGY PREDICTED BY IDOCK:   -3.33 KCAL/MOL
REMARK 924 INTRA-LIGAND FREE ENERGY PREDICTED BY IDOCK:   -0.02 KCAL/MOL
REMARK 927      BINDING AFFINITY PREDICTED BY RF-SCORE:    0.00 PKD
ROOT
HETATM    1  O   UNL     1      -5.888  17.339  69.895  1.00  0.00    -0.228 OA 
HETATM    2  C   UNL     1      -6.552  18.096  68.883  1.00  0.00    -0.241 C  
HETATM    3  H   UNL     1      -4.981  17.604  69.991  1.00  0.00     0.000 HD 
ENDROOT
BRANCH   2   4
HETATM    4  C   UNL     1      -8.017  17.667  68.729  1.00  0.00    -0.244 C  
HETATM    5  O   UNL     1      -8.839  18.855  68.787  1.00  0.00    -0.339 OA 
HETATM    6  C   UNL     1      -9.041  19.599  67.677  1.00  0.00    -0.329 C  
HETATM    7  C   UNL     1      -9.281  18.851  66.373  1.00  0.00    -0.313 C  
HETATM    8  O   UNL     1      -9.222  20.813  67.756  1.00  0.00    -0.187 OA 
HETATM    9  O   UNL     1     -10.665  18.487  66.282  1.00  0.00    -0.355 OA 
HETATM   10  C   UNL     1      -8.416  17.603  66.209  1.00  0.00    -0.202 C  
HETATM   11  C   UNL     1      -8.314  16.792  67.504  1.00  0.00    -0.188 C  
HETATM   12  H   UNL     1     -10.814  18.020  65.469  1.00  0.00     0.000 HD 
HETATM   13  O   UNL     1      -7.130  17.916  65.668  1.00  0.00    -0.485 OA 
HETATM   14  H   UNL     1      -6.592  17.140  65.565  1.00  0.00     0.000 HD 
HETATM   15  O   UNL     1      -9.542  16.095  67.775  1.00  0.00    -0.221 OA 
HETATM   16  H   UNL     1      -9.726  15.553  67.016  1.00  0.00     0.000 HD 
ENDBRANCH   2   4
TORSDOF 1
ENDMDL
MODEL      134
REMARK 921   NORMALIZED FREE ENERGY PREDICTED BY IDOCK:   -2.92 KCAL/MOL
REMARK 922        TOTAL FREE ENERGY PREDICTED BY IDOCK:   -3.32 KCAL/MOL
REMARK 923 INTER-LIGAND FREE ENERGY PREDICTED BY IDOCK:   -3.30 KCAL/MOL
REMARK 924 INTRA-LIGAND FREE ENERGY PREDICTED BY IDOCK:   -0.02 KCAL/MOL
REMARK 927      BINDING AFFINITY PREDICTED BY RF-SCORE:    0.00 PKD
ROOT
HETATM    1  O   UNL     1      -6.241  18.763  63.970  1.00  0.00    -0.238 OA 
HETATM    2  C   UNL     1      -6.469  18.455  65.345  1.00  0.00    -0.214 C  
HETATM    3  H   UNL     1      -5.448  18.352  63.647  1.00  0.00     0.000 HD 
ENDROOT
BRANCH   2   4
HETATM    4  C   UNL     1      -7.751  19.120  65.866  1.00  0.00    -0.179 C  
HETATM    5  O   UNL     1      -8.606  18.084  66.400  1.00  0.00    -0.300 OA 
HETATM    6  C   UNL     1      -8.434  17.644  67.666  1.00  0.00    -0.224 C  
HETATM    7  C   UNL     1      -8.140  18.690  68.732  1.00  0.00    -0.276 C  
HETATM    8  O   UNL     1      -8.703  16.482  67.972  1.00  0.00    -0.183 OA 
HETATM    9  O   UNL     1      -9.372  19.265  69.185  1.00  0.00    -0.323 OA 
HETATM   10  C   UNL     1      -7.203  19.801  68.265  1.00  0.00    -0.306 C  
HETATM   11  C   UNL     1      -7.530  20.280  66.846  1.00  0.00    -0.294 C  
HETATM   12  H   UNL     1      -9.188  19.919  69.851  1.00  0.00     0.000 HD 
HETATM   13  O   UNL     1      -5.829  19.429  68.402  1.00  0.00    -0.209 OA 
HETATM   14  H   UNL     1      -5.246  20.121  68.112  1.00  0.00     0.000 HD 
HETATM   15  O   UNL     1      -8.729  21.072  66.834  1.00  0.00    -0.553 OA 
HETATM   16  H   UNL     1      -8.593  21.791  67.441  1.00  0.00     0.000 HD 
ENDBRANCH   2   4
TORSDOF 1
ENDMDL
MODEL      135
REMARK 921   NORMALIZED FREE ENERGY PREDICTED BY IDOCK:   -2.92 KCAL/MOL
REMARK 922        TOTAL FREE ENERGY PREDICTED BY IDOCK:   -3.32 KCAL/MOL
REMARK 923 INTER-LIGAND FREE ENERGY PREDICTED BY IDOCK:   -3.08 KCAL/MOL
REMARK 924 INTRA-LIGAND FREE ENERGY PREDICTED BY IDOCK:   -0.24 KCAL/MOL
REMARK 927      BINDING AFFINITY PREDICTED BY RF-SCORE:    0.00 PKD
ROOT
HETATM    1  O   UNL     1      -8.826   5.321  69.633  1.00  0.00    -0.105 OA 
HETATM    2  C   UNL     1      -8.476   6.644  70.040  1.00  0.00    -0.139 C  
HETATM    3  H   UNL     1      -8.386   5.075  68.828  1.00  0.00     0.000 HD 
ENDROOT
BRANCH   2   4
HETATM    4  C   UNL     1      -9.187   7.041  71.341  1.00  0.00    -0.151 C  
HETATM    5  O   UNL     1      -9.243   8.485  71.396  1.00  0.00    -0.170 OA 
HETATM    6  C   UNL     1     -10.233   9.153  70.765  1.00  0.00    -0.260 C  
HETATM    7  C   UNL     1     -11.634   8.564  70.851  1.00  0.00    -0.263 C  
HETATM    8  O   UNL     1     -10.044  10.284  70.317  1.00  0.00    -0.169 OA 
HETATM    9  O   UNL     1     -12.248   8.977  72.079  1.00  0.00    -0.350 OA 
HETATM   10  C   UNL     1     -11.671   7.041  70.753  1.00  0.00    -0.349 C  
HETATM   11  C   UNL     1     -10.552   6.379  71.565  1.00  0.00    -0.231 C  
HETATM   12  H   UNL     1     -13.123   8.610  72.132  1.00  0.00     0.000 HD 
HETATM   13  O   UNL     1     -11.683   6.597  69.394  1.00  0.00    -0.643 OA 
HETATM   14  H   UNL     1     -11.706   5.649  69.333  1.00  0.00     0.000 HD 
HETATM   15  O   UNL     1     -10.827   6.451  72.974  1.00  0.00    -0.244 OA 
HETATM   16  H   UNL     1     -11.673   6.041  73.113  1.00  0.00     0.000 HD 
ENDBRANCH   2   4
TORSDOF 1
ENDMDL
MODEL      136
REMARK 921   NORMALIZED FREE ENERGY PREDICTED BY IDOCK:   -2.90 KCAL/MOL
REMARK 922        TOTAL FREE ENERGY PREDICTED BY IDOCK:   -3.30 KCAL/MOL
REMARK 923 INTER-LIGAND FREE ENERGY PREDICTED BY IDOCK:   -3.47 KCAL/MOL
REMARK 924 INTRA-LIGAND FREE ENERGY PREDICTED BY IDOCK:    0.17 KCAL/MOL
REMARK 927      BINDING AFFINITY PREDICTED BY RF-SCORE:    0.00 PKD
ROOT
HETATM    1  O   UNL     1      -9.898  17.968  68.733  1.00  0.00    -0.349 OA 
HETATM    2  C   UNL     1      -9.338  19.257  68.479  1.00  0.00    -0.388 C  
HETATM    3  H   UNL     1     -10.822  18.025  68.946  1.00  0.00     0.000 HD 
ENDROOT
BRANCH   2   4
HETATM    4  C   UNL     1      -7.846  19.164  68.135  1.00  0.00    -0.300 C  
HETATM    5  O   UNL     1      -7.265  18.116  68.944  1.00  0.00    -0.273 OA 
HETATM    6  C   UNL     1      -7.338  16.827  68.544  1.00  0.00    -0.205 C  
HETATM    7  C   UNL     1      -7.111  16.545  67.066  1.00  0.00    -0.212 C  
HETATM    8  O   UNL     1      -7.385  15.913  69.366  1.00  0.00    -0.215 OA 
HETATM    9  O   UNL     1      -5.702  16.460  66.810  1.00  0.00    -0.340 OA 
HETATM   10  C   UNL     1      -7.733  17.583  66.135  1.00  0.00    -0.268 C  
HETATM   11  C   UNL     1      -7.529  19.014  66.642  1.00  0.00    -0.228 C  
HETATM   12  H   UNL     1      -5.560  16.283  65.887  1.00  0.00     0.000 HD 
HETATM   13  O   UNL     1      -9.109  17.298  65.868  1.00  0.00    -0.516 OA 
HETATM   14  H   UNL     1      -9.497  17.944  65.289  1.00  0.00     0.000 HD 
HETATM   15  O   UNL     1      -6.168  19.437  66.457  1.00  0.00    -0.173 OA 
HETATM   16  H   UNL     1      -5.971  19.345  65.532  1.00  0.00     0.000 HD 
ENDBRANCH   2   4
TORSDOF 1
ENDMDL
MODEL      137
REMARK 921   NORMALIZED FREE ENERGY PREDICTED BY IDOCK:   -2.90 KCAL/MOL
REMARK 922        TOTAL FREE ENERGY PREDICTED BY IDOCK:   -3.30 KCAL/MOL
REMARK 923 INTER-LIGAND FREE ENERGY PREDICTED BY IDOCK:   -3.04 KCAL/MOL
REMARK 924 INTRA-LIGAND FREE ENERGY PREDICTED BY IDOCK:   -0.25 KCAL/MOL
REMARK 927      BINDING AFFINITY PREDICTED BY RF-SCORE:    0.00 PKD
ROOT
HETATM    1  O   UNL     1      -6.992  10.769  65.577  1.00  0.00    -0.313 OA 
HETATM    2  C   UNL     1      -7.860  11.249  66.604  1.00  0.00    -0.152 C  
HETATM    3  H   UNL     1      -6.798  11.446  64.939  1.00  0.00     0.000 HD 
ENDROOT
BRANCH   2   4
HETATM    4  C   UNL     1      -8.172  10.156  67.635  1.00  0.00    -0.110 C  
HETATM    5  O   UNL     1      -9.458  10.453  68.225  1.00  0.00    -0.143 OA 
HETATM    6  C   UNL     1     -10.597  10.064  67.611  1.00  0.00    -0.270 C  
HETATM    7  C   UNL     1     -10.609   8.677  66.983  1.00  0.00    -0.223 C  
HETATM    8  O   UNL     1     -11.632  10.717  67.729  1.00  0.00    -0.521 OA 
HETATM    9  O   UNL     1     -10.915   7.703  67.990  1.00  0.00    -0.459 OA 
HETATM   10  C   UNL     1      -9.300   8.299  66.295  1.00  0.00    -0.204 C  
HETATM   11  C   UNL     1      -8.072   8.718  67.110  1.00  0.00    -0.100 C  
HETATM   12  H   UNL     1     -10.923   6.838  67.599  1.00  0.00     0.000 HD 
HETATM   13  O   UNL     1      -9.246   8.788  64.952  1.00  0.00    -0.433 OA 
HETATM   14  H   UNL     1      -8.432   8.553  64.523  1.00  0.00     0.000 HD 
HETATM   15  O   UNL     1      -7.897   7.865  68.254  1.00  0.00    -0.115 OA 
HETATM   16  H   UNL     1      -7.835   6.974  67.929  1.00  0.00     0.000 HD 
ENDBRANCH   2   4
TORSDOF 1
ENDMDL
MODEL      138
REMARK 921   NORMALIZED FREE ENERGY PREDICTED BY IDOCK:   -2.89 KCAL/MOL
REMARK 922        TOTAL FREE ENERGY PREDICTED BY IDOCK:   -3.29 KCAL/MOL
REMARK 923 INTER-LIGAND FREE ENERGY PREDICTED BY IDOCK:   -3.55 KCAL/MOL
REMARK 924 INTRA-LIGAND FREE ENERGY PREDICTED BY IDOCK:    0.26 KCAL/MOL
REMARK 927      BINDING AFFINITY PREDICTED BY RF-SCORE:    0.00 PKD
ROOT
HETATM    1  O   UNL     1     -11.548  10.312  68.367  1.00  0.00    -0.564 OA 
HETATM    2  C   UNL     1     -10.497  10.935  69.107  1.00  0.00    -0.221 C  
HETATM    3  H   UNL     1     -12.135   9.827  68.935  1.00  0.00     0.000 HD 
ENDROOT
BRANCH   2   4
HETATM    4  C   UNL     1      -9.549  11.718  68.189  1.00  0.00    -0.193 C  
HETATM    5  O   UNL     1      -9.196  10.863  67.078  1.00  0.00    -0.151 OA 
HETATM    6  C   UNL     1     -10.008  10.774  66.001  1.00  0.00    -0.242 C  
HETATM    7  C   UNL     1     -10.640  12.064  65.499  1.00  0.00    -0.273 C  
HETATM    8  O   UNL     1     -10.071   9.736  65.343  1.00  0.00    -0.305 OA 
HETATM    9  O   UNL     1      -9.714  12.744  64.641  1.00  0.00    -0.522 OA 
HETATM   10  C   UNL     1     -11.087  13.008  66.612  1.00  0.00    -0.289 C  
HETATM   11  C   UNL     1     -10.061  13.095  67.747  1.00  0.00    -0.226 C  
HETATM   12  H   UNL     1     -10.108  13.549  64.327  1.00  0.00     0.000 HD 
HETATM   13  O   UNL     1     -12.393  12.682  67.092  1.00  0.00    -0.370 OA 
HETATM   14  H   UNL     1     -12.672  13.269  67.785  1.00  0.00     0.000 HD 
HETATM   15  O   UNL     1      -8.912  13.860  67.346  1.00  0.00    -0.189 OA 
HETATM   16  H   UNL     1      -9.229  14.714  67.072  1.00  0.00     0.000 HD 
ENDBRANCH   2   4
TORSDOF 1
ENDMDL
MODEL      139
REMARK 921   NORMALIZED FREE ENERGY PREDICTED BY IDOCK:   -2.88 KCAL/MOL
REMARK 922        TOTAL FREE ENERGY PREDICTED BY IDOCK:   -3.28 KCAL/MOL
REMARK 923 INTER-LIGAND FREE ENERGY PREDICTED BY IDOCK:   -3.26 KCAL/MOL
REMARK 924 INTRA-LIGAND FREE ENERGY PREDICTED BY IDOCK:   -0.02 KCAL/MOL
REMARK 927      BINDING AFFINITY PREDICTED BY RF-SCORE:    0.00 PKD
ROOT
HETATM    1  O   UNL     1      -7.669   9.024  71.762  1.00  0.00    -0.327 OA 
HETATM    2  C   UNL     1      -8.522   7.965  71.326  1.00  0.00    -0.117 C  
HETATM    3  H   UNL     1      -7.143   8.763  72.508  1.00  0.00     0.000 HD 
ENDROOT
BRANCH   2   4
HETATM    4  C   UNL     1      -9.373   8.386  70.120  1.00  0.00    -0.163 C  
HETATM    5  O   UNL     1      -8.898   7.660  68.964  1.00  0.00    -0.135 OA 
HETATM    6  C   UNL     1      -9.341   6.407  68.716  1.00  0.00    -0.125 C  
HETATM    7  C   UNL     1     -10.822   6.137  68.941  1.00  0.00    -0.340 C  
HETATM    8  O   UNL     1      -8.623   5.586  68.146  1.00  0.00    -0.101 OA 
HETATM    9  O   UNL     1     -11.560   6.540  67.780  1.00  0.00    -0.646 OA 
HETATM   10  C   UNL     1     -11.396   6.831  70.174  1.00  0.00    -0.350 C  
HETATM   11  C   UNL     1     -10.889   8.270  70.319  1.00  0.00    -0.240 C  
HETATM   12  H   UNL     1     -12.484   6.371  67.920  1.00  0.00     0.000 HD 
HETATM   13  O   UNL     1     -11.186   6.064  71.361  1.00  0.00    -0.284 OA 
HETATM   14  H   UNL     1     -11.543   6.496  72.128  1.00  0.00     0.000 HD 
HETATM   15  O   UNL     1     -11.507   9.135  69.352  1.00  0.00    -0.430 OA 
HETATM   16  H   UNL     1     -12.446   9.063  69.475  1.00  0.00     0.000 HD 
ENDBRANCH   2   4
TORSDOF 1
ENDMDL
MODEL      140
REMARK 921   NORMALIZED FREE ENERGY PREDICTED BY IDOCK:   -2.87 KCAL/MOL
REMARK 922        TOTAL FREE ENERGY PREDICTED BY IDOCK:   -3.27 KCAL/MOL
REMARK 923 INTER-LIGAND FREE ENERGY PREDICTED BY IDOCK:   -3.03 KCAL/MOL
REMARK 924 INTRA-LIGAND FREE ENERGY PREDICTED BY IDOCK:   -0.24 KCAL/MOL
REMARK 927      BINDING AFFINITY PREDICTED BY RF-SCORE:    0.00 PKD
ROOT
HETATM    1  O   UNL     1      -7.586   7.418  72.827  1.00  0.00    -0.074 OA 
HETATM    2  C   UNL     1      -8.877   7.494  73.431  1.00  0.00    -0.192 C  
HETATM    3  H   UNL     1      -6.977   8.026  73.229  1.00  0.00     0.000 HD 
ENDROOT
BRANCH   2   4
HETATM    4  C   UNL     1      -9.861   6.511  72.781  1.00  0.00    -0.169 C  
HETATM    5  O   UNL     1     -11.202   6.987  73.038  1.00  0.00    -0.270 OA 
HETATM    6  C   UNL     1     -11.759   7.923  72.237  1.00  0.00    -0.355 C  
HETATM    7  C   UNL     1     -11.521   7.786  70.740  1.00  0.00    -0.272 C  
HETATM    8  O   UNL     1     -12.579   8.725  72.681  1.00  0.00    -0.371 OA 
HETATM    9  O   UNL     1     -12.474   6.867  70.191  1.00  0.00    -0.602 OA 
HETATM   10  C   UNL     1     -10.110   7.331  70.377  1.00  0.00    -0.192 C  
HETATM   11  C   UNL     1      -9.604   6.216  71.298  1.00  0.00    -0.171 C  
HETATM   12  H   UNL     1     -12.327   6.781  69.256  1.00  0.00     0.000 HD 
HETATM   13  O   UNL     1      -9.198   8.430  70.312  1.00  0.00    -0.148 OA 
HETATM   14  H   UNL     1      -8.320   8.147  70.086  1.00  0.00     0.000 HD 
HETATM   15  O   UNL     1     -10.251   4.968  71.001  1.00  0.00    -0.217 OA 
HETATM   16  H   UNL     1     -10.091   4.784  70.082  1.00  0.00     0.000 HD 
ENDBRANCH   2   4
TORSDOF 1
ENDMDL
MODEL      141
REMARK 921   NORMALIZED FREE ENERGY PREDICTED BY IDOCK:   -2.87 KCAL/MOL
REMARK 922        TOTAL FREE ENERGY PREDICTED BY IDOCK:   -3.27 KCAL/MOL
REMARK 923 INTER-LIGAND FREE ENERGY PREDICTED BY IDOCK:   -3.03 KCAL/MOL
REMARK 924 INTRA-LIGAND FREE ENERGY PREDICTED BY IDOCK:   -0.25 KCAL/MOL
REMARK 927      BINDING AFFINITY PREDICTED BY RF-SCORE:    0.00 PKD
ROOT
HETATM    1  O   UNL     1     -12.009   6.526  69.774  1.00  0.00    -0.625 OA 
HETATM    2  C   UNL     1     -10.684   6.465  70.301  1.00  0.00    -0.266 C  
HETATM    3  H   UNL     1     -12.373   5.658  69.640  1.00  0.00     0.000 HD 
ENDROOT
BRANCH   2   4
HETATM    4  C   UNL     1     -10.098   7.866  70.517  1.00  0.00    -0.192 C  
HETATM    5  O   UNL     1      -8.670   7.791  70.302  1.00  0.00    -0.140 OA 
HETATM    6  C   UNL     1      -8.163   7.877  69.052  1.00  0.00    -0.126 C  
HETATM    7  C   UNL     1      -8.787   8.904  68.119  1.00  0.00    -0.134 C  
HETATM    8  O   UNL     1      -7.121   7.295  68.753  1.00  0.00    -0.078 OA 
HETATM    9  O   UNL     1      -8.193  10.187  68.360  1.00  0.00    -0.107 OA 
HETATM   10  C   UNL     1     -10.304   9.016  68.247  1.00  0.00    -0.209 C  
HETATM   11  C   UNL     1     -10.768   8.984  69.708  1.00  0.00    -0.225 C  
HETATM   12  H   UNL     1      -8.582  10.828  67.777  1.00  0.00     0.000 HD 
HETATM   13  O   UNL     1     -10.977   8.040  67.448  1.00  0.00    -0.512 OA 
HETATM   14  H   UNL     1     -11.922   8.109  67.528  1.00  0.00     0.000 HD 
HETATM   15  O   UNL     1     -10.464  10.222  70.372  1.00  0.00    -0.414 OA 
HETATM   16  H   UNL     1     -10.879  10.915  69.871  1.00  0.00     0.000 HD 
ENDBRANCH   2   4
TORSDOF 1
ENDMDL
MODEL      142
REMARK 921   NORMALIZED FREE ENERGY PREDICTED BY IDOCK:   -2.86 KCAL/MOL
REMARK 922        TOTAL FREE ENERGY PREDICTED BY IDOCK:   -3.26 KCAL/MOL
REMARK 923 INTER-LIGAND FREE ENERGY PREDICTED BY IDOCK:   -3.21 KCAL/MOL
REMARK 924 INTRA-LIGAND FREE ENERGY PREDICTED BY IDOCK:   -0.05 KCAL/MOL
REMARK 927      BINDING AFFINITY PREDICTED BY RF-SCORE:    0.00 PKD
ROOT
HETATM    1  O   UNL     1      -6.398  11.941  66.423  1.00  0.00    -0.429 OA 
HETATM    2  C   UNL     1      -7.311  10.885  66.121  1.00  0.00    -0.103 C  
HETATM    3  H   UNL     1      -5.634  11.913  65.860  1.00  0.00     0.000 HD 
ENDROOT
BRANCH   2   4
HETATM    4  C   UNL     1      -8.546  10.930  67.031  1.00  0.00    -0.136 C  
HETATM    5  O   UNL     1      -8.983  12.305  67.122  1.00  0.00    -0.178 OA 
HETATM    6  C   UNL     1      -9.786  12.830  66.170  1.00  0.00    -0.267 C  
HETATM    7  C   UNL     1     -10.911  11.948  65.647  1.00  0.00    -0.304 C  
HETATM    8  O   UNL     1      -9.732  14.026  65.888  1.00  0.00    -0.285 OA 
HETATM    9  O   UNL     1     -12.036  12.041  66.531  1.00  0.00    -0.617 OA 
HETATM   10  C   UNL     1     -10.519  10.482  65.476  1.00  0.00    -0.150 C  
HETATM   11  C   UNL     1      -9.675   9.966  66.646  1.00  0.00    -0.198 C  
HETATM   12  H   UNL     1     -12.739  11.490  66.204  1.00  0.00     0.000 HD 
HETATM   13  O   UNL     1      -9.891  10.245  64.214  1.00  0.00    -0.329 OA 
HETATM   14  H   UNL     1      -9.648   9.333  64.107  1.00  0.00     0.000 HD 
HETATM   15  O   UNL     1     -10.482   9.775  67.819  1.00  0.00    -0.213 OA 
HETATM   16  H   UNL     1     -11.182   9.178  67.581  1.00  0.00     0.000 HD 
ENDBRANCH   2   4
TORSDOF 1
ENDMDL
MODEL      143
REMARK 921   NORMALIZED FREE ENERGY PREDICTED BY IDOCK:   -2.84 KCAL/MOL
REMARK 922        TOTAL FREE ENERGY PREDICTED BY IDOCK:   -3.24 KCAL/MOL
REMARK 923 INTER-LIGAND FREE ENERGY PREDICTED BY IDOCK:   -3.00 KCAL/MOL
REMARK 924 INTRA-LIGAND FREE ENERGY PREDICTED BY IDOCK:   -0.24 KCAL/MOL
REMARK 927      BINDING AFFINITY PREDICTED BY RF-SCORE:    0.00 PKD
ROOT
HETATM    1  O   UNL     1      -5.529  17.980  70.649  1.00  0.00    -0.254 OA 
HETATM    2  C   UNL     1      -5.321  19.255  70.040  1.00  0.00    -0.210 C  
HETATM    3  H   UNL     1      -4.728  17.642  71.033  1.00  0.00     0.000 HD 
ENDROOT
BRANCH   2   4
HETATM    4  C   UNL     1      -6.615  19.801  69.421  1.00  0.00    -0.355 C  
HETATM    5  O   UNL     1      -6.252  20.769  68.411  1.00  0.00    -0.323 OA 
HETATM    6  C   UNL     1      -5.938  20.364  67.160  1.00  0.00    -0.182 C  
HETATM    7  C   UNL     1      -6.790  19.259  66.553  1.00  0.00    -0.199 C  
HETATM    8  O   UNL     1      -5.135  20.997  66.475  1.00  0.00    -0.170 OA 
HETATM    9  O   UNL     1      -7.975  19.831  65.984  1.00  0.00    -0.336 OA 
HETATM   10  C   UNL     1      -7.181  18.165  67.545  1.00  0.00    -0.200 C  
HETATM   11  C   UNL     1      -7.591  18.735  68.907  1.00  0.00    -0.278 C  
HETATM   12  H   UNL     1      -8.507  19.140  65.605  1.00  0.00     0.000 HD 
HETATM   13  O   UNL     1      -6.163  17.169  67.664  1.00  0.00    -0.133 OA 
HETATM   14  H   UNL     1      -6.406  16.488  68.281  1.00  0.00     0.000 HD 
HETATM   15  O   UNL     1      -8.887  19.353  68.838  1.00  0.00    -0.364 OA 
HETATM   16  H   UNL     1      -9.493  18.693  68.520  1.00  0.00     0.000 HD 
ENDBRANCH   2   4
TORSDOF 1
ENDMDL
MODEL      144
REMARK 921   NORMALIZED FREE ENERGY PREDICTED BY IDOCK:   -2.84 KCAL/MOL
REMARK 922        TOTAL FREE ENERGY PREDICTED BY IDOCK:   -3.24 KCAL/MOL
REMARK 923 INTER-LIGAND FREE ENERGY PREDICTED BY IDOCK:   -3.21 KCAL/MOL
REMARK 924 INTRA-LIGAND FREE ENERGY PREDICTED BY IDOCK:   -0.03 KCAL/MOL
REMARK 927      BINDING AFFINITY PREDICTED BY RF-SCORE:    0.00 PKD
ROOT
HETATM    1  O   UNL     1      -9.258   9.055  71.761  1.00  0.00    -0.329 OA 
HETATM    2  C   UNL     1     -10.123   9.551  70.739  1.00  0.00    -0.282 C  
HETATM    3  H   UNL     1      -9.748   8.762  72.520  1.00  0.00     0.000 HD 
ENDROOT
BRANCH   2   4
HETATM    4  C   UNL     1      -9.331  10.025  69.512  1.00  0.00    -0.229 C  
HETATM    5  O   UNL     1      -9.084   8.876  68.670  1.00  0.00    -0.137 OA 
HETATM    6  C   UNL     1     -10.020   8.464  67.786  1.00  0.00    -0.186 C  
HETATM    7  C   UNL     1     -10.764   9.541  67.010  1.00  0.00    -0.149 C  
HETATM    8  O   UNL     1     -10.121   7.276  67.482  1.00  0.00    -0.163 OA 
HETATM    9  O   UNL     1      -9.982   9.933  65.874  1.00  0.00    -0.261 OA 
HETATM   10  C   UNL     1     -11.108  10.776  67.840  1.00  0.00    -0.308 C  
HETATM   11  C   UNL     1      -9.952  11.203  68.751  1.00  0.00    -0.198 C  
HETATM   12  H   UNL     1     -10.446  10.605  65.389  1.00  0.00     0.000 HD 
HETATM   13  O   UNL     1     -12.329  10.605  68.564  1.00  0.00    -0.814 OA 
HETATM   14  H   UNL     1     -12.542  11.374  69.080  1.00  0.00     0.000 HD 
HETATM   15  O   UNL     1      -8.896  11.815  67.992  1.00  0.00    -0.151 OA 
HETATM   16  H   UNL     1      -9.280  12.545  67.521  1.00  0.00     0.000 HD 
ENDBRANCH   2   4
TORSDOF 1
ENDMDL
MODEL      145
REMARK 921   NORMALIZED FREE ENERGY PREDICTED BY IDOCK:   -2.84 KCAL/MOL
REMARK 922        TOTAL FREE ENERGY PREDICTED BY IDOCK:   -3.24 KCAL/MOL
REMARK 923 INTER-LIGAND FREE ENERGY PREDICTED BY IDOCK:   -2.98 KCAL/MOL
REMARK 924 INTRA-LIGAND FREE ENERGY PREDICTED BY IDOCK:   -0.25 KCAL/MOL
REMARK 927      BINDING AFFINITY PREDICTED BY RF-SCORE:    0.00 PKD
ROOT
HETATM    1  O   UNL     1     -12.039  12.273  67.700  1.00  0.00    -0.502 OA 
HETATM    2  C   UNL     1     -10.686  12.140  67.263  1.00  0.00    -0.229 C  
HETATM    3  H   UNL     1     -12.304  13.184  67.743  1.00  0.00     0.000 HD 
ENDROOT
BRANCH   2   4
HETATM    4  C   UNL     1     -10.259  10.667  67.194  1.00  0.00    -0.216 C  
HETATM    5  O   UNL     1      -8.825  10.610  67.368  1.00  0.00    -0.132 OA 
HETATM    6  C   UNL     1      -8.289  10.606  68.609  1.00  0.00    -0.137 C  
HETATM    7  C   UNL     1      -8.986   9.760  69.664  1.00  0.00    -0.215 C  
HETATM    8  O   UNL     1      -7.182  11.100  68.818  1.00  0.00    -0.083 OA 
HETATM    9  O   UNL     1      -8.540   8.402  69.556  1.00  0.00    -0.126 OA 
HETATM   10  C   UNL     1     -10.510   9.801  69.581  1.00  0.00    -0.242 C  
HETATM   11  C   UNL     1     -11.016   9.724  68.137  1.00  0.00    -0.175 C  
HETATM   12  H   UNL     1      -8.975   7.874  70.215  1.00  0.00     0.000 HD 
HETATM   13  O   UNL     1     -11.049  10.926  70.280  1.00  0.00    -0.441 OA 
HETATM   14  H   UNL     1     -11.998  10.952  70.229  1.00  0.00     0.000 HD 
HETATM   15  O   UNL     1     -10.868   8.395  67.609  1.00  0.00    -0.483 OA 
HETATM   16  H   UNL     1     -11.337   7.811  68.193  1.00  0.00     0.000 HD 
ENDBRANCH   2   4
TORSDOF 1
ENDMDL
MODEL      146
REMARK 921   NORMALIZED FREE ENERGY PREDICTED BY IDOCK:   -2.83 KCAL/MOL
REMARK 922        TOTAL FREE ENERGY PREDICTED BY IDOCK:   -3.23 KCAL/MOL
REMARK 923 INTER-LIGAND FREE ENERGY PREDICTED BY IDOCK:   -3.19 KCAL/MOL
REMARK 924 INTRA-LIGAND FREE ENERGY PREDICTED BY IDOCK:   -0.04 KCAL/MOL
REMARK 927      BINDING AFFINITY PREDICTED BY RF-SCORE:    0.00 PKD
ROOT
HETATM    1  O   UNL     1      -7.925  10.471  67.083  1.00  0.00    -0.113 OA 
HETATM    2  C   UNL     1      -8.461   9.281  67.661  1.00  0.00    -0.116 C  
HETATM    3  H   UNL     1      -6.982  10.416  66.982  1.00  0.00     0.000 HD 
ENDROOT
BRANCH   2   4
HETATM    4  C   UNL     1      -9.984   9.371  67.823  1.00  0.00    -0.184 C  
HETATM    5  O   UNL     1     -10.498   8.026  67.960  1.00  0.00    -0.215 OA 
HETATM    6  C   UNL     1     -10.503   7.418  69.167  1.00  0.00    -0.213 C  
HETATM    7  C   UNL     1     -10.898   8.263  70.370  1.00  0.00    -0.235 C  
HETATM    8  O   UNL     1     -10.388   6.196  69.258  1.00  0.00    -0.182 OA 
HETATM    9  O   UNL     1     -12.327   8.300  70.475  1.00  0.00    -0.479 OA 
HETATM   10  C   UNL     1     -10.355   9.689  70.328  1.00  0.00    -0.280 C  
HETATM   11  C   UNL     1     -10.467  10.313  68.933  1.00  0.00    -0.211 C  
HETATM   12  H   UNL     1     -12.574   8.827  71.225  1.00  0.00     0.000 HD 
HETATM   13  O   UNL     1      -9.025   9.766  70.847  1.00  0.00    -0.349 OA 
HETATM   14  H   UNL     1      -8.688  10.654  70.821  1.00  0.00     0.000 HD 
HETATM   15  O   UNL     1     -11.829  10.656  68.629  1.00  0.00    -0.612 OA 
HETATM   16  H   UNL     1     -12.129  11.240  69.316  1.00  0.00     0.000 HD 
ENDBRANCH   2   4
TORSDOF 1
ENDMDL
MODEL      147
REMARK 921   NORMALIZED FREE ENERGY PREDICTED BY IDOCK:   -2.79 KCAL/MOL
REMARK 922        TOTAL FREE ENERGY PREDICTED BY IDOCK:   -3.19 KCAL/MOL
REMARK 923 INTER-LIGAND FREE ENERGY PREDICTED BY IDOCK:   -3.36 KCAL/MOL
REMARK 924 INTRA-LIGAND FREE ENERGY PREDICTED BY IDOCK:    0.17 KCAL/MOL
REMARK 927      BINDING AFFINITY PREDICTED BY RF-SCORE:    0.00 PKD
ROOT
HETATM    1  O   UNL     1      -9.611  10.549  69.821  1.00  0.00    -0.418 OA 
HETATM    2  C   UNL     1      -8.722   9.880  68.927  1.00  0.00    -0.140 C  
HETATM    3  H   UNL     1      -9.406  10.354  70.728  1.00  0.00     0.000 HD 
ENDROOT
BRANCH   2   4
HETATM    4  C   UNL     1      -9.054  10.194  67.462  1.00  0.00    -0.134 C  
HETATM    5  O   UNL     1     -10.492  10.278  67.338  1.00  0.00    -0.217 OA 
HETATM    6  C   UNL     1     -11.134  11.431  67.630  1.00  0.00    -0.268 C  
HETATM    7  C   UNL     1     -10.484  12.726  67.164  1.00  0.00    -0.233 C  
HETATM    8  O   UNL     1     -12.283  11.418  68.071  1.00  0.00    -0.607 OA 
HETATM    9  O   UNL     1     -10.839  12.970  65.796  1.00  0.00    -0.270 OA 
HETATM   10  C   UNL     1      -8.964  12.740  67.304  1.00  0.00    -0.199 C  
HETATM   11  C   UNL     1      -8.329  11.412  66.876  1.00  0.00    -0.159 C  
HETATM   12  H   UNL     1     -10.433  13.778  65.505  1.00  0.00     0.000 HD 
HETATM   13  O   UNL     1      -8.556  13.133  68.617  1.00  0.00    -0.339 OA 
HETATM   14  H   UNL     1      -7.610  13.141  68.704  1.00  0.00     0.000 HD 
HETATM   15  O   UNL     1      -8.352  11.267  65.447  1.00  0.00    -0.373 OA 
HETATM   16  H   UNL     1      -7.903  12.022  65.084  1.00  0.00     0.000 HD 
ENDBRANCH   2   4
TORSDOF 1
ENDMDL
MODEL      148
REMARK 921   NORMALIZED FREE ENERGY PREDICTED BY IDOCK:   -2.78 KCAL/MOL
REMARK 922        TOTAL FREE ENERGY PREDICTED BY IDOCK:   -3.18 KCAL/MOL
REMARK 923 INTER-LIGAND FREE ENERGY PREDICTED BY IDOCK:   -3.02 KCAL/MOL
REMARK 924 INTRA-LIGAND FREE ENERGY PREDICTED BY IDOCK:   -0.16 KCAL/MOL
REMARK 927      BINDING AFFINITY PREDICTED BY RF-SCORE:    0.00 PKD
ROOT
HETATM    1  O   UNL     1     -11.482   4.147  64.834  1.00  0.00    -0.933 OA 
HETATM    2  C   UNL     1     -10.128   4.085  64.386  1.00  0.00    -0.190 C  
HETATM    3  H   UNL     1     -12.090   4.171  64.105  1.00  0.00     0.000 HD 
ENDROOT
BRANCH   2   4
HETATM    4  C   UNL     1      -9.145   4.045  65.564  1.00  0.00    -0.142 C  
HETATM    5  O   UNL     1      -8.040   4.924  65.254  1.00  0.00    -0.108 OA 
HETATM    6  C   UNL     1      -8.134   6.250  65.503  1.00  0.00    -0.129 C  
HETATM    7  C   UNL     1      -8.794   6.667  66.809  1.00  0.00    -0.130 C  
HETATM    8  O   UNL     1      -7.535   7.066  64.803  1.00  0.00    -0.082 OA 
HETATM    9  O   UNL     1      -7.827   6.620  67.866  1.00  0.00    -0.109 OA 
HETATM   10  C   UNL     1     -10.003   5.816  67.190  1.00  0.00    -0.159 C  
HETATM   11  C   UNL     1      -9.765   4.323  66.939  1.00  0.00    -0.214 C  
HETATM   12  H   UNL     1      -8.239   6.880  68.681  1.00  0.00     0.000 HD 
HETATM   13  O   UNL     1     -11.199   6.282  66.561  1.00  0.00    -0.726 OA 
HETATM   14  H   UNL     1     -11.952   5.753  66.797  1.00  0.00     0.000 HD 
HETATM   15  O   UNL     1      -8.872   3.772  67.921  1.00  0.00    -0.099 OA 
HETATM   16  H   UNL     1      -9.256   3.944  68.773  1.00  0.00     0.000 HD 
ENDBRANCH   2   4
TORSDOF 1
ENDMDL
MODEL      149
REMARK 921   NORMALIZED FREE ENERGY PREDICTED BY IDOCK:   -2.77 KCAL/MOL
REMARK 922        TOTAL FREE ENERGY PREDICTED BY IDOCK:   -3.17 KCAL/MOL
REMARK 923 INTER-LIGAND FREE ENERGY PREDICTED BY IDOCK:   -3.44 KCAL/MOL
REMARK 924 INTRA-LIGAND FREE ENERGY PREDICTED BY IDOCK:    0.27 KCAL/MOL
REMARK 927      BINDING AFFINITY PREDICTED BY RF-SCORE:    0.00 PKD
ROOT
HETATM    1  O   UNL     1      -9.570   5.764  71.077  1.00  0.00    -0.163 OA 
HETATM    2  C   UNL     1      -9.643   5.675  69.654  1.00  0.00    -0.151 C  
HETATM    3  H   UNL     1      -8.931   5.158  71.433  1.00  0.00     0.000 HD 
ENDROOT
BRANCH   2   4
HETATM    4  C   UNL     1     -10.677   6.654  69.081  1.00  0.00    -0.264 C  
HETATM    5  O   UNL     1     -11.910   6.483  69.817  1.00  0.00    -0.345 OA 
HETATM    6  C   UNL     1     -12.097   7.125  70.992  1.00  0.00    -0.350 C  
HETATM    7  C   UNL     1     -11.623   8.568  71.078  1.00  0.00    -0.279 C  
HETATM    8  O   UNL     1     -12.795   6.630  71.876  1.00  0.00    -0.328 OA 
HETATM    9  O   UNL     1     -12.632   9.433  70.539  1.00  0.00    -0.494 OA 
HETATM   10  C   UNL     1     -10.298   8.828  70.364  1.00  0.00    -0.199 C  
HETATM   11  C   UNL     1     -10.220   8.117  69.009  1.00  0.00    -0.220 C  
HETATM   12  H   UNL     1     -12.336  10.334  70.593  1.00  0.00     0.000 HD 
HETATM   13  O   UNL     1      -9.178   8.523  71.197  1.00  0.00    -0.164 OA 
HETATM   14  H   UNL     1      -8.353   8.684  70.753  1.00  0.00     0.000 HD 
HETATM   15  O   UNL     1     -11.051   8.768  68.035  1.00  0.00    -0.477 OA 
HETATM   16  H   UNL     1     -10.768   9.674  67.990  1.00  0.00     0.000 HD 
ENDBRANCH   2   4
TORSDOF 1
ENDMDL
MODEL      150
REMARK 921   NORMALIZED FREE ENERGY PREDICTED BY IDOCK:   -2.75 KCAL/MOL
REMARK 922        TOTAL FREE ENERGY PREDICTED BY IDOCK:   -3.15 KCAL/MOL
REMARK 923 INTER-LIGAND FREE ENERGY PREDICTED BY IDOCK:   -3.12 KCAL/MOL
REMARK 924 INTRA-LIGAND FREE ENERGY PREDICTED BY IDOCK:   -0.02 KCAL/MOL
REMARK 927      BINDING AFFINITY PREDICTED BY RF-SCORE:    0.00 PKD
ROOT
HETATM    1  O   UNL     1     -12.056  11.516  67.572  1.00  0.00    -0.614 OA 
HETATM    2  C   UNL     1     -10.792  12.004  67.123  1.00  0.00    -0.253 C  
HETATM    3  H   UNL     1     -12.549  11.119  66.863  1.00  0.00     0.000 HD 
ENDROOT
BRANCH   2   4
HETATM    4  C   UNL     1      -9.996  12.645  68.268  1.00  0.00    -0.229 C  
HETATM    5  O   UNL     1      -8.698  12.010  68.320  1.00  0.00    -0.174 OA 
HETATM    6  C   UNL     1      -7.699  12.437  67.516  1.00  0.00    -0.161 C  
HETATM    7  C   UNL     1      -7.548  13.940  67.333  1.00  0.00    -0.142 C  
HETATM    8  O   UNL     1      -6.834  11.657  67.117  1.00  0.00    -0.119 OA 
HETATM    9  O   UNL     1      -6.789  14.477  68.424  1.00  0.00    -0.090 OA 
HETATM   10  C   UNL     1      -8.875  14.686  67.222  1.00  0.00    -0.207 C  
HETATM   11  C   UNL     1      -9.914  14.176  68.227  1.00  0.00    -0.241 C  
HETATM   12  H   UNL     1      -6.695  15.416  68.310  1.00  0.00     0.000 HD 
HETATM   13  O   UNL     1      -9.376  14.681  65.883  1.00  0.00    -0.478 OA 
HETATM   14  H   UNL     1     -10.202  15.145  65.814  1.00  0.00     0.000 HD 
HETATM   15  O   UNL     1      -9.600  14.615  69.559  1.00  0.00    -0.415 OA 
HETATM   16  H   UNL     1      -9.549  15.564  69.534  1.00  0.00     0.000 HD 
ENDBRANCH   2   4
TORSDOF 1
ENDMDL
MODEL      151
REMARK 921   NORMALIZED FREE ENERGY PREDICTED BY IDOCK:   -2.75 KCAL/MOL
REMARK 922        TOTAL FREE ENERGY PREDICTED BY IDOCK:   -3.14 KCAL/MOL
REMARK 923 INTER-LIGAND FREE ENERGY PREDICTED BY IDOCK:   -3.12 KCAL/MOL
REMARK 924 INTRA-LIGAND FREE ENERGY PREDICTED BY IDOCK:   -0.03 KCAL/MOL
REMARK 927      BINDING AFFINITY PREDICTED BY RF-SCORE:    0.00 PKD
ROOT
HETATM    1  O   UNL     1     -10.236   7.540  66.474  1.00  0.00    -0.445 OA 
HETATM    2  C   UNL     1     -10.594   8.274  67.645  1.00  0.00    -0.194 C  
HETATM    3  H   UNL     1     -10.456   8.016  65.683  1.00  0.00     0.000 HD 
ENDROOT
BRANCH   2   4
HETATM    4  C   UNL     1     -10.238   7.504  68.924  1.00  0.00    -0.208 C  
HETATM    5  O   UNL     1      -9.003   8.047  69.443  1.00  0.00    -0.147 OA 
HETATM    6  C   UNL     1      -9.019   9.149  70.226  1.00  0.00    -0.217 C  
HETATM    7  C   UNL     1     -10.120   9.242  71.272  1.00  0.00    -0.291 C  
HETATM    8  O   UNL     1      -8.073   9.936  70.226  1.00  0.00    -0.181 OA 
HETATM    9  O   UNL     1      -9.726   8.514  72.443  1.00  0.00    -0.288 OA 
HETATM   10  C   UNL     1     -11.476   8.730  70.790  1.00  0.00    -0.270 C  
HETATM   11  C   UNL     1     -11.353   7.437  69.976  1.00  0.00    -0.127 C  
HETATM   12  H   UNL     1     -10.414   8.573  73.096  1.00  0.00     0.000 HD 
HETATM   13  O   UNL     1     -12.205   9.740  70.088  1.00  0.00    -0.470 OA 
HETATM   14  H   UNL     1     -13.048   9.422  69.787  1.00  0.00     0.000 HD 
HETATM   15  O   UNL     1     -11.059   6.318  70.828  1.00  0.00    -0.279 OA 
HETATM   16  H   UNL     1     -11.749   6.276  71.480  1.00  0.00     0.000 HD 
ENDBRANCH   2   4
TORSDOF 1
ENDMDL
MODEL      152
REMARK 921   NORMALIZED FREE ENERGY PREDICTED BY IDOCK:   -2.75 KCAL/MOL
REMARK 922        TOTAL FREE ENERGY PREDICTED BY IDOCK:   -3.14 KCAL/MOL
REMARK 923 INTER-LIGAND FREE ENERGY PREDICTED BY IDOCK:   -3.30 KCAL/MOL
REMARK 924 INTRA-LIGAND FREE ENERGY PREDICTED BY IDOCK:    0.16 KCAL/MOL
REMARK 927      BINDING AFFINITY PREDICTED BY RF-SCORE:    0.00 PKD
ROOT
HETATM    1  O   UNL     1      -6.849  15.622  66.933  1.00  0.00    -0.245 OA 
HETATM    2  C   UNL     1      -7.126  14.660  67.951  1.00  0.00    -0.158 C  
HETATM    3  H   UNL     1      -6.311  15.254  66.241  1.00  0.00     0.000 HD 
ENDROOT
BRANCH   2   4
HETATM    4  C   UNL     1      -7.994  15.255  69.068  1.00  0.00    -0.195 C  
HETATM    5  O   UNL     1      -7.651  16.654  69.202  1.00  0.00    -0.233 OA 
HETATM    6  C   UNL     1      -8.224  17.576  68.397  1.00  0.00    -0.278 C  
HETATM    7  C   UNL     1      -9.710  17.419  68.109  1.00  0.00    -0.291 C  
HETATM    8  O   UNL     1      -7.619  18.600  68.081  1.00  0.00    -0.256 OA 
HETATM    9  O   UNL     1     -10.466  18.001  69.179  1.00  0.00    -0.442 OA 
HETATM   10  C   UNL     1     -10.151  15.971  67.906  1.00  0.00    -0.241 C  
HETATM   11  C   UNL     1      -9.502  15.019  68.917  1.00  0.00    -0.211 C  
HETATM   12  H   UNL     1     -11.394  17.903  68.999  1.00  0.00     0.000 HD 
HETATM   13  O   UNL     1      -9.953  15.540  66.558  1.00  0.00    -0.249 OA 
HETATM   14  H   UNL     1     -10.227  14.639  66.431  1.00  0.00     0.000 HD 
HETATM   15  O   UNL     1     -10.083  15.178  70.221  1.00  0.00    -0.501 OA 
HETATM   16  H   UNL     1     -11.018  15.031  70.128  1.00  0.00     0.000 HD 
ENDBRANCH   2   4
TORSDOF 1
ENDMDL
MODEL      153
REMARK 921   NORMALIZED FREE ENERGY PREDICTED BY IDOCK:   -2.73 KCAL/MOL
REMARK 922        TOTAL FREE ENERGY PREDICTED BY IDOCK:   -3.12 KCAL/MOL
REMARK 923 INTER-LIGAND FREE ENERGY PREDICTED BY IDOCK:   -3.09 KCAL/MOL
REMARK 924 INTRA-LIGAND FREE ENERGY PREDICTED BY IDOCK:   -0.02 KCAL/MOL
REMARK 927      BINDING AFFINITY PREDICTED BY RF-SCORE:    0.00 PKD
ROOT
HETATM    1  O   UNL     1     -10.539   3.187  74.224  1.00  0.00    -0.174 OA 
HETATM    2  C   UNL     1     -10.073   4.333  73.513  1.00  0.00    -0.146 C  
HETATM    3  H   UNL     1      -9.903   2.481  74.205  1.00  0.00     0.000 HD 
ENDROOT
BRANCH   2   4
HETATM    4  C   UNL     1     -11.100   5.473  73.544  1.00  0.00    -0.167 C  
HETATM    5  O   UNL     1     -10.497   6.599  74.221  1.00  0.00    -0.344 OA 
HETATM    6  C   UNL     1      -9.708   7.460  73.541  1.00  0.00    -0.288 C  
HETATM    7  C   UNL     1     -10.158   7.859  72.143  1.00  0.00    -0.220 C  
HETATM    8  O   UNL     1      -8.782   8.044  74.102  1.00  0.00    -0.258 OA 
HETATM    9  O   UNL     1     -11.106   8.931  72.237  1.00  0.00    -0.339 OA 
HETATM   10  C   UNL     1     -10.766   6.713  71.338  1.00  0.00    -0.229 C  
HETATM   11  C   UNL     1     -11.704   5.843  72.183  1.00  0.00    -0.227 C  
HETATM   12  H   UNL     1     -11.386   9.180  71.364  1.00  0.00     0.000 HD 
HETATM   13  O   UNL     1      -9.763   5.937  70.678  1.00  0.00    -0.169 OA 
HETATM   14  H   UNL     1     -10.142   5.224  70.177  1.00  0.00     0.000 HD 
HETATM   15  O   UNL     1     -12.942   6.524  72.445  1.00  0.00    -0.533 OA 
HETATM   16  H   UNL     1     -13.316   6.754  71.602  1.00  0.00     0.000 HD 
ENDBRANCH   2   4
TORSDOF 1
ENDMDL
MODEL      154
REMARK 921   NORMALIZED FREE ENERGY PREDICTED BY IDOCK:   -2.71 KCAL/MOL
REMARK 922        TOTAL FREE ENERGY PREDICTED BY IDOCK:   -3.10 KCAL/MOL
REMARK 923 INTER-LIGAND FREE ENERGY PREDICTED BY IDOCK:   -3.08 KCAL/MOL
REMARK 924 INTRA-LIGAND FREE ENERGY PREDICTED BY IDOCK:   -0.02 KCAL/MOL
REMARK 927      BINDING AFFINITY PREDICTED BY RF-SCORE:    0.00 PKD
ROOT
HETATM    1  O   UNL     1     -10.959  18.231  68.784  1.00  0.00    -0.101 OA 
HETATM    2  C   UNL     1     -10.298  17.604  67.685  1.00  0.00    -0.368 C  
HETATM    3  H   UNL     1     -10.671  19.129  68.899  1.00  0.00     0.000 HD 
ENDROOT
BRANCH   2   4
HETATM    4  C   UNL     1     -10.763  16.153  67.500  1.00  0.00    -0.304 C  
HETATM    5  O   UNL     1     -11.520  16.080  66.271  1.00  0.00     0.181 OA 
HETATM    6  C   UNL     1     -10.885  15.925  65.088  1.00  0.00    -0.421 C  
HETATM    7  C   UNL     1      -9.715  14.953  65.049  1.00  0.00     0.142 C  
HETATM    8  O   UNL     1     -11.357  16.394  64.053  1.00  0.00    -0.964 OA 
HETATM    9  O   UNL     1     -10.211  13.620  64.865  1.00  0.00    -0.471 OA 
HETATM   10  C   UNL     1      -8.832  14.998  66.295  1.00  0.00    -0.124 C  
HETATM   11  C   UNL     1      -9.653  15.098  67.585  1.00  0.00    -0.206 C  
HETATM   12  H   UNL     1      -9.480  13.013  64.841  1.00  0.00     0.000 HD 
HETATM   13  O   UNL     1      -7.842  16.026  66.206  1.00  0.00    -0.208 OA 
HETATM   14  H   UNL     1      -7.293  16.054  66.981  1.00  0.00     0.000 HD 
HETATM   15  O   UNL     1     -10.288  13.845  67.890  1.00  0.00    -0.233 OA 
HETATM   16  H   UNL     1      -9.601  13.191  67.942  1.00  0.00     0.000 HD 
ENDBRANCH   2   4
TORSDOF 1
ENDMDL
MODEL      155
REMARK 921   NORMALIZED FREE ENERGY PREDICTED BY IDOCK:   -2.70 KCAL/MOL
REMARK 922        TOTAL FREE ENERGY PREDICTED BY IDOCK:   -3.09 KCAL/MOL
REMARK 923 INTER-LIGAND FREE ENERGY PREDICTED BY IDOCK:   -3.25 KCAL/MOL
REMARK 924 INTRA-LIGAND FREE ENERGY PREDICTED BY IDOCK:    0.16 KCAL/MOL
REMARK 927      BINDING AFFINITY PREDICTED BY RF-SCORE:    0.00 PKD
ROOT
HETATM    1  O   UNL     1      -8.203   6.859  71.090  1.00  0.00    -0.116 OA 
HETATM    2  C   UNL     1      -9.030   7.354  70.038  1.00  0.00    -0.144 C  
HETATM    3  H   UNL     1      -7.327   7.225  71.048  1.00  0.00     0.000 HD 
ENDROOT
BRANCH   2   4
HETATM    4  C   UNL     1     -10.445   6.763  70.106  1.00  0.00    -0.209 C  
HETATM    5  O   UNL     1     -10.342   5.422  70.637  1.00  0.00    -0.236 OA 
HETATM    6  C   UNL     1     -10.297   5.219  71.972  1.00  0.00    -0.215 C  
HETATM    7  C   UNL     1     -11.226   6.062  72.835  1.00  0.00    -0.230 C  
HETATM    8  O   UNL     1      -9.684   4.262  72.444  1.00  0.00    -0.139 OA 
HETATM    9  O   UNL     1     -12.524   5.454  72.869  1.00  0.00    -0.472 OA 
HETATM   10  C   UNL     1     -11.355   7.510  72.370  1.00  0.00    -0.312 C  
HETATM   11  C   UNL     1     -11.476   7.624  70.847  1.00  0.00    -0.282 C  
HETATM   12  H   UNL     1     -13.104   5.981  73.407  1.00  0.00     0.000 HD 
HETATM   13  O   UNL     1     -10.305   8.330  72.889  1.00  0.00    -0.302 OA 
HETATM   14  H   UNL     1     -10.385   9.231  72.600  1.00  0.00     0.000 HD 
HETATM   15  O   UNL     1     -12.774   7.200  70.400  1.00  0.00    -0.591 OA 
HETATM   16  H   UNL     1     -13.414   7.734  70.858  1.00  0.00     0.000 HD 
ENDBRANCH   2   4
TORSDOF 1
ENDMDL
MODEL      156
REMARK 921   NORMALIZED FREE ENERGY PREDICTED BY IDOCK:   -2.69 KCAL/MOL
REMARK 922        TOTAL FREE ENERGY PREDICTED BY IDOCK:   -3.08 KCAL/MOL
REMARK 923 INTER-LIGAND FREE ENERGY PREDICTED BY IDOCK:   -3.05 KCAL/MOL
REMARK 924 INTRA-LIGAND FREE ENERGY PREDICTED BY IDOCK:   -0.02 KCAL/MOL
REMARK 927      BINDING AFFINITY PREDICTED BY RF-SCORE:    0.00 PKD
ROOT
HETATM    1  O   UNL     1      -7.961   9.343  71.012  1.00  0.00    -0.303 OA 
HETATM    2  C   UNL     1      -9.054   9.125  70.121  1.00  0.00    -0.206 C  
HETATM    3  H   UNL     1      -8.190   9.953  71.704  1.00  0.00     0.000 HD 
ENDROOT
BRANCH   2   4
HETATM    4  C   UNL     1      -8.683   8.141  69.003  1.00  0.00    -0.144 C  
HETATM    5  O   UNL     1      -9.406   6.910  69.233  1.00  0.00    -0.145 OA 
HETATM    6  C   UNL     1     -10.679   6.776  68.796  1.00  0.00    -0.239 C  
HETATM    7  C   UNL     1     -11.002   7.332  67.417  1.00  0.00    -0.186 C  
HETATM    8  O   UNL     1     -11.480   6.063  69.399  1.00  0.00    -0.372 OA 
HETATM    9  O   UNL     1     -10.643   6.366  66.420  1.00  0.00    -0.471 OA 
HETATM   10  C   UNL     1     -10.313   8.659  67.109  1.00  0.00    -0.299 C  
HETATM   11  C   UNL     1      -8.854   8.679  67.577  1.00  0.00    -0.135 C  
HETATM   12  H   UNL     1     -10.845   6.714  65.559  1.00  0.00     0.000 HD 
HETATM   13  O   UNL     1     -11.055   9.772  67.614  1.00  0.00    -0.449 OA 
HETATM   14  H   UNL     1     -10.626  10.598  67.422  1.00  0.00     0.000 HD 
HETATM   15  O   UNL     1      -8.027   7.873  66.723  1.00  0.00    -0.104 OA 
HETATM   16  H   UNL     1      -8.133   8.206  65.839  1.00  0.00     0.000 HD 
ENDBRANCH   2   4
TORSDOF 1
ENDMDL
MODEL      157
REMARK 921   NORMALIZED FREE ENERGY PREDICTED BY IDOCK:   -2.67 KCAL/MOL
REMARK 922        TOTAL FREE ENERGY PREDICTED BY IDOCK:   -3.06 KCAL/MOL
REMARK 923 INTER-LIGAND FREE ENERGY PREDICTED BY IDOCK:   -3.02 KCAL/MOL
REMARK 924 INTRA-LIGAND FREE ENERGY PREDICTED BY IDOCK:   -0.05 KCAL/MOL
REMARK 927      BINDING AFFINITY PREDICTED BY RF-SCORE:    0.00 PKD
ROOT
HETATM    1  O   UNL     1     -11.773   6.671  69.202  1.00  0.00    -0.629 OA 
HETATM    2  C   UNL     1     -10.439   6.963  69.619  1.00  0.00    -0.218 C  
HETATM    3  H   UNL     1     -11.785   6.167  68.397  1.00  0.00     0.000 HD 
ENDROOT
BRANCH   2   4
HETATM    4  C   UNL     1     -10.420   7.777  70.919  1.00  0.00    -0.206 C  
HETATM    5  O   UNL     1     -11.446   7.249  71.791  1.00  0.00    -0.254 OA 
HETATM    6  C   UNL     1     -11.191   6.177  72.573  1.00  0.00    -0.287 C  
HETATM    7  C   UNL     1      -9.833   6.123  73.258  1.00  0.00    -0.166 C  
HETATM    8  O   UNL     1     -12.087   5.388  72.873  1.00  0.00    -0.172 OA 
HETATM    9  O   UNL     1      -9.882   6.891  74.468  1.00  0.00    -0.433 OA 
HETATM   10  C   UNL     1      -8.682   6.621  72.387  1.00  0.00    -0.128 C  
HETATM   11  C   UNL     1      -9.051   7.884  71.601  1.00  0.00    -0.138 C  
HETATM   12  H   UNL     1      -9.034   6.858  74.896  1.00  0.00     0.000 HD 
HETATM   13  O   UNL     1      -8.174   5.588  71.539  1.00  0.00    -0.115 OA 
HETATM   14  H   UNL     1      -7.457   5.898  70.997  1.00  0.00     0.000 HD 
HETATM   15  O   UNL     1      -9.100   9.032  72.464  1.00  0.00    -0.273 OA 
HETATM   16  H   UNL     1      -8.252   9.098  72.887  1.00  0.00     0.000 HD 
ENDBRANCH   2   4
TORSDOF 1
ENDMDL
MODEL      158
REMARK 921   NORMALIZED FREE ENERGY PREDICTED BY IDOCK:   -2.66 KCAL/MOL
REMARK 922        TOTAL FREE ENERGY PREDICTED BY IDOCK:   -3.05 KCAL/MOL
REMARK 923 INTER-LIGAND FREE ENERGY PREDICTED BY IDOCK:   -2.96 KCAL/MOL
REMARK 924 INTRA-LIGAND FREE ENERGY PREDICTED BY IDOCK:   -0.09 KCAL/MOL
REMARK 927      BINDING AFFINITY PREDICTED BY RF-SCORE:    0.00 PKD
ROOT
HETATM    1  O   UNL     1      -7.861  10.846  65.095  1.00  0.00    -0.356 OA 
HETATM    2  C   UNL     1      -7.615  10.475  66.452  1.00  0.00    -0.132 C  
HETATM    3  H   UNL     1      -7.367  11.619  64.850  1.00  0.00     0.000 HD 
ENDROOT
BRANCH   2   4
HETATM    4  C   UNL     1      -8.415   9.227  66.848  1.00  0.00    -0.127 C  
HETATM    5  O   UNL     1      -8.215   8.999  68.262  1.00  0.00    -0.114 OA 
HETATM    6  C   UNL     1      -8.972   9.654  69.171  1.00  0.00    -0.154 C  
HETATM    7  C   UNL     1     -10.455   9.805  68.861  1.00  0.00    -0.214 C  
HETATM    8  O   UNL     1      -8.522   9.934  70.281  1.00  0.00    -0.178 OA 
HETATM    9  O   UNL     1     -11.147   8.615  69.262  1.00  0.00    -0.432 OA 
HETATM   10  C   UNL     1     -10.753  10.094  67.392  1.00  0.00    -0.277 C  
HETATM   11  C   UNL     1      -9.895   9.246  66.447  1.00  0.00    -0.277 C  
HETATM   12  H   UNL     1     -12.072   8.709  69.069  1.00  0.00     0.000 HD 
HETATM   13  O   UNL     1     -10.659  11.489  67.096  1.00  0.00    -0.217 OA 
HETATM   14  H   UNL     1     -10.844  11.670  66.182  1.00  0.00     0.000 HD 
HETATM   15  O   UNL     1     -10.342   7.880  66.430  1.00  0.00    -0.482 OA 
HETATM   16  H   UNL     1     -11.260   7.891  66.182  1.00  0.00     0.000 HD 
ENDBRANCH   2   4
TORSDOF 1
ENDMDL
MODEL      159
REMARK 921   NORMALIZED FREE ENERGY PREDICTED BY IDOCK:   -2.65 KCAL/MOL
REMARK 922        TOTAL FREE ENERGY PREDICTED BY IDOCK:   -3.04 KCAL/MOL
REMARK 923 INTER-LIGAND FREE ENERGY PREDICTED BY IDOCK:   -2.80 KCAL/MOL
REMARK 924 INTRA-LIGAND FREE ENERGY PREDICTED BY IDOCK:   -0.24 KCAL/MOL
REMARK 927      BINDING AFFINITY PREDICTED BY RF-SCORE:    0.00 PKD
ROOT
HETATM    1  O   UNL     1      -9.440   8.940  71.252  1.00  0.00    -0.225 OA 
HETATM    2  C   UNL     1     -10.320   9.828  70.562  1.00  0.00    -0.283 C  
HETATM    3  H   UNL     1      -9.035   9.362  72.001  1.00  0.00     0.000 HD 
ENDROOT
BRANCH   2   4
HETATM    4  C   UNL     1     -10.973   9.146  69.353  1.00  0.00    -0.092 C  
HETATM    5  O   UNL     1     -11.163  10.146  68.326  1.00  0.00    -0.255 OA 
HETATM    6  C   UNL     1     -10.154  10.457  67.482  1.00  0.00    -0.192 C  
HETATM    7  C   UNL     1      -9.311   9.306  66.953  1.00  0.00    -0.151 C  
HETATM    8  O   UNL     1     -10.052  11.590  67.012  1.00  0.00    -0.204 OA 
HETATM    9  O   UNL     1      -9.966   8.719  65.821  1.00  0.00    -0.459 OA 
HETATM   10  C   UNL     1      -9.022   8.223  67.990  1.00  0.00    -0.138 C  
HETATM   11  C   UNL     1     -10.252   7.892  68.842  1.00  0.00    -0.205 C  
HETATM   12  H   UNL     1      -9.440   8.000  65.491  1.00  0.00     0.000 HD 
HETATM   13  O   UNL     1      -7.884   8.547  68.792  1.00  0.00    -0.106 OA 
HETATM   14  H   UNL     1      -7.704   7.873  69.438  1.00  0.00     0.000 HD 
HETATM   15  O   UNL     1     -11.212   7.133  68.089  1.00  0.00    -0.485 OA 
HETATM   16  H   UNL     1     -10.766   6.356  67.773  1.00  0.00     0.000 HD 
ENDBRANCH   2   4
TORSDOF 1
ENDMDL
MODEL      160
REMARK 921   NORMALIZED FREE ENERGY PREDICTED BY IDOCK:   -2.65 KCAL/MOL
REMARK 922        TOTAL FREE ENERGY PREDICTED BY IDOCK:   -3.04 KCAL/MOL
REMARK 923 INTER-LIGAND FREE ENERGY PREDICTED BY IDOCK:   -2.98 KCAL/MOL
REMARK 924 INTRA-LIGAND FREE ENERGY PREDICTED BY IDOCK:   -0.05 KCAL/MOL
REMARK 927      BINDING AFFINITY PREDICTED BY RF-SCORE:    0.00 PKD
ROOT
HETATM    1  O   UNL     1      -6.998   4.991  67.801  1.00  0.00    -0.059 OA 
HETATM    2  C   UNL     1      -7.769   6.184  67.659  1.00  0.00    -0.098 C  
HETATM    3  H   UNL     1      -6.068   5.179  67.844  1.00  0.00     0.000 HD 
ENDROOT
BRANCH   2   4
HETATM    4  C   UNL     1      -9.272   5.880  67.589  1.00  0.00    -0.104 C  
HETATM    5  O   UNL     1      -9.634   5.146  68.782  1.00  0.00    -0.126 OA 
HETATM    6  C   UNL     1      -9.919   5.806  69.927  1.00  0.00    -0.194 C  
HETATM    7  C   UNL     1     -10.752   7.074  69.809  1.00  0.00    -0.241 C  
HETATM    8  O   UNL     1      -9.687   5.296  71.022  1.00  0.00    -0.166 OA 
HETATM    9  O   UNL     1     -12.142   6.726  69.760  1.00  0.00    -0.648 OA 
HETATM   10  C   UNL     1     -10.401   7.934  68.598  1.00  0.00    -0.201 C  
HETATM   11  C   UNL     1     -10.172   7.095  67.336  1.00  0.00    -0.226 C  
HETATM   12  H   UNL     1     -12.662   7.518  69.686  1.00  0.00     0.000 HD 
HETATM   13  O   UNL     1      -9.303   8.809  68.869  1.00  0.00    -0.144 OA 
HETATM   14  H   UNL     1      -9.084   9.344  68.115  1.00  0.00     0.000 HD 
HETATM   15  O   UNL     1     -11.415   6.595  66.817  1.00  0.00    -0.776 OA 
HETATM   16  H   UNL     1     -11.973   7.348  66.659  1.00  0.00     0.000 HD 
ENDBRANCH   2   4
TORSDOF 1
ENDMDL
MODEL      161
REMARK 921   NORMALIZED FREE ENERGY PREDICTED BY IDOCK:   -2.61 KCAL/MOL
REMARK 922        TOTAL FREE ENERGY PREDICTED BY IDOCK:   -3.00 KCAL/MOL
REMARK 923 INTER-LIGAND FREE ENERGY PREDICTED BY IDOCK:   -3.16 KCAL/MOL
REMARK 924 INTRA-LIGAND FREE ENERGY PREDICTED BY IDOCK:    0.17 KCAL/MOL
REMARK 927      BINDING AFFINITY PREDICTED BY RF-SCORE:    0.00 PKD
ROOT
HETATM    1  O   UNL     1     -10.986  18.133  68.221  1.00  0.00    -0.239 OA 
HETATM    2  C   UNL     1     -10.257  17.575  67.127  1.00  0.00    -0.323 C  
HETATM    3  H   UNL     1     -10.741  19.037  68.379  1.00  0.00     0.000 HD 
ENDROOT
BRANCH   2   4
HETATM    4  C   UNL     1     -10.653  16.114  66.873  1.00  0.00    -0.283 C  
HETATM    5  O   UNL     1      -9.453  15.310  66.934  1.00  0.00    -0.217 OA 
HETATM    6  C   UNL     1      -8.984  14.874  68.124  1.00  0.00    -0.176 C  
HETATM    7  C   UNL     1     -10.008  14.378  69.135  1.00  0.00    -0.069 C  
HETATM    8  O   UNL     1      -7.779  14.701  68.302  1.00  0.00    -0.110 OA 
HETATM    9  O   UNL     1     -10.329  13.009  68.852  1.00  0.00    -0.402 OA 
HETATM   10  C   UNL     1     -11.293  15.203  69.170  1.00  0.00    -0.298 C  
HETATM   11  C   UNL     1     -11.780  15.579  67.766  1.00  0.00    -0.088 C  
HETATM   12  H   UNL     1     -10.968  12.699  69.483  1.00  0.00     0.000 HD 
HETATM   13  O   UNL     1     -11.167  16.345  70.020  1.00  0.00    -0.360 OA 
HETATM   14  H   UNL     1     -11.966  16.859  70.042  1.00  0.00     0.000 HD 
HETATM   15  O   UNL     1     -12.344  14.442  67.093  1.00  0.00    -0.598 OA 
HETATM   16  H   UNL     1     -13.042  14.110  67.646  1.00  0.00     0.000 HD 
ENDBRANCH   2   4
TORSDOF 1
ENDMDL
MODEL      162
REMARK 921   NORMALIZED FREE ENERGY PREDICTED BY IDOCK:   -2.58 KCAL/MOL
REMARK 922        TOTAL FREE ENERGY PREDICTED BY IDOCK:   -2.97 KCAL/MOL
REMARK 923 INTER-LIGAND FREE ENERGY PREDICTED BY IDOCK:   -2.94 KCAL/MOL
REMARK 924 INTRA-LIGAND FREE ENERGY PREDICTED BY IDOCK:   -0.02 KCAL/MOL
REMARK 927      BINDING AFFINITY PREDICTED BY RF-SCORE:    0.00 PKD
ROOT
HETATM    1  O   UNL     1      -7.362  10.513  70.418  1.00  0.00    -0.451 OA 
HETATM    2  C   UNL     1      -8.227  10.251  69.313  1.00  0.00    -0.162 C  
HETATM    3  H   UNL     1      -6.851   9.746  70.650  1.00  0.00     0.000 HD 
ENDROOT
BRANCH   2   4
HETATM    4  C   UNL     1      -9.052  11.490  68.938  1.00  0.00     0.027 C  
HETATM    5  O   UNL     1      -8.927  11.695  67.513  1.00  0.00    -0.158 OA 
HETATM    6  C   UNL     1      -9.726  11.023  66.654  1.00  0.00    -0.195 C  
HETATM    7  C   UNL     1     -11.189  10.870  67.042  1.00  0.00    -0.137 C  
HETATM    8  O   UNL     1      -9.332  10.727  65.527  1.00  0.00    -0.188 OA 
HETATM    9  O   UNL     1     -11.907  12.051  66.658  1.00  0.00    -0.583 OA 
HETATM   10  C   UNL     1     -11.411  10.604  68.529  1.00  0.00    -0.284 C  
HETATM   11  C   UNL     1     -10.510  11.471  69.415  1.00  0.00     0.049 C  
HETATM   12  H   UNL     1     -12.821  11.956  66.900  1.00  0.00     0.000 HD 
HETATM   13  O   UNL     1     -11.294   9.213  68.841  1.00  0.00    -0.429 OA 
HETATM   14  H   UNL     1     -11.432   9.047  69.767  1.00  0.00     0.000 HD 
HETATM   15  O   UNL     1     -10.963  12.835  69.433  1.00  0.00    -0.432 OA 
HETATM   16  H   UNL     1     -11.867  12.823  69.728  1.00  0.00     0.000 HD 
ENDBRANCH   2   4
TORSDOF 1
ENDMDL
MODEL      163
REMARK 921   NORMALIZED FREE ENERGY PREDICTED BY IDOCK:   -2.58 KCAL/MOL
REMARK 922        TOTAL FREE ENERGY PREDICTED BY IDOCK:   -2.96 KCAL/MOL
REMARK 923 INTER-LIGAND FREE ENERGY PREDICTED BY IDOCK:   -3.69 KCAL/MOL
REMARK 924 INTRA-LIGAND FREE ENERGY PREDICTED BY IDOCK:    0.73 KCAL/MOL
REMARK 927      BINDING AFFINITY PREDICTED BY RF-SCORE:    0.00 PKD
ROOT
HETATM    1  O   UNL     1     -12.137  11.984  66.238  1.00  0.00    -0.596 OA 
HETATM    2  C   UNL     1     -12.068  13.222  66.946  1.00  0.00    -0.332 C  
HETATM    3  H   UNL     1     -12.775  12.019  65.536  1.00  0.00     0.000 HD 
ENDROOT
BRANCH   2   4
HETATM    4  C   UNL     1     -11.036  13.166  68.081  1.00  0.00    -0.255 C  
HETATM    5  O   UNL     1     -11.690  12.624  69.251  1.00  0.00    -0.292 OA 
HETATM    6  C   UNL     1     -11.798  11.286  69.413  1.00  0.00    -0.355 C  
HETATM    7  C   UNL     1     -10.588  10.441  69.041  1.00  0.00    -0.221 C  
HETATM    8  O   UNL     1     -12.752  10.800  70.019  1.00  0.00    -0.283 OA 
HETATM    9  O   UNL     1      -9.669  10.418  70.142  1.00  0.00    -0.386 OA 
HETATM   10  C   UNL     1      -9.863  10.918  67.785  1.00  0.00    -0.175 C  
HETATM   11  C   UNL     1      -9.727  12.443  67.736  1.00  0.00    -0.201 C  
HETATM   12  H   UNL     1      -8.914   9.890  69.910  1.00  0.00     0.000 HD 
HETATM   13  O   UNL     1     -10.461  10.393  66.597  1.00  0.00    -0.240 OA 
HETATM   14  H   UNL     1     -10.010  10.690  65.815  1.00  0.00     0.000 HD 
HETATM   15  O   UNL     1      -8.737  12.903  68.671  1.00  0.00    -0.351 OA 
HETATM   16  H   UNL     1      -7.926  12.456  68.458  1.00  0.00     0.000 HD 
ENDBRANCH   2   4
TORSDOF 1
ENDMDL
MODEL      164
REMARK 921   NORMALIZED FREE ENERGY PREDICTED BY IDOCK:   -2.55 KCAL/MOL
REMARK 922        TOTAL FREE ENERGY PREDICTED BY IDOCK:   -2.93 KCAL/MOL
REMARK 923 INTER-LIGAND FREE ENERGY PREDICTED BY IDOCK:   -2.69 KCAL/MOL
REMARK 924 INTRA-LIGAND FREE ENERGY PREDICTED BY IDOCK:   -0.24 KCAL/MOL
REMARK 927      BINDING AFFINITY PREDICTED BY RF-SCORE:    0.00 PKD
ROOT
HETATM    1  O   UNL     1      -8.786  17.263  67.002  1.00  0.00    -0.218 OA 
HETATM    2  C   UNL     1      -8.717  15.911  66.550  1.00  0.00    -0.315 C  
HETATM    3  H   UNL     1      -8.650  17.877  66.290  1.00  0.00     0.000 HD 
ENDROOT
BRANCH   2   4
HETATM    4  C   UNL     1      -8.935  14.920  67.701  1.00  0.00    -0.180 C  
HETATM    5  O   UNL     1      -8.126  13.750  67.442  1.00  0.00    -0.171 OA 
HETATM    6  C   UNL     1      -6.823  13.729  67.800  1.00  0.00    -0.173 C  
HETATM    7  C   UNL     1      -6.464  14.335  69.149  1.00  0.00    -0.109 C  
HETATM    8  O   UNL     1      -6.003  13.075  67.158  1.00  0.00    -0.326 OA 
HETATM    9  O   UNL     1      -6.678  13.361  70.179  1.00  0.00    -0.368 OA 
HETATM   10  C   UNL     1      -7.242  15.606  69.483  1.00  0.00    -0.198 C  
HETATM   11  C   UNL     1      -8.723  15.496  69.106  1.00  0.00    -0.247 C  
HETATM   12  H   UNL     1      -6.454  13.739  71.022  1.00  0.00     0.000 HD 
HETATM   13  O   UNL     1      -6.628  16.767  68.919  1.00  0.00    -0.166 OA 
HETATM   14  H   UNL     1      -7.112  17.558  69.127  1.00  0.00     0.000 HD 
HETATM   15  O   UNL     1      -9.426  14.639  70.021  1.00  0.00    -0.222 OA 
HETATM   16  H   UNL     1      -9.295  14.996  70.892  1.00  0.00     0.000 HD 
ENDBRANCH   2   4
TORSDOF 1
ENDMDL
MODEL      165
REMARK 921   NORMALIZED FREE ENERGY PREDICTED BY IDOCK:   -2.55 KCAL/MOL
REMARK 922        TOTAL FREE ENERGY PREDICTED BY IDOCK:   -2.93 KCAL/MOL
REMARK 923 INTER-LIGAND FREE ENERGY PREDICTED BY IDOCK:   -2.90 KCAL/MOL
REMARK 924 INTRA-LIGAND FREE ENERGY PREDICTED BY IDOCK:   -0.03 KCAL/MOL
REMARK 927      BINDING AFFINITY PREDICTED BY RF-SCORE:    0.00 PKD
ROOT
HETATM    1  O   UNL     1     -10.417  13.338  69.001  1.00  0.00    -0.405 OA 
HETATM    2  C   UNL     1      -9.426  12.646  68.241  1.00  0.00    -0.203 C  
HETATM    3  H   UNL     1     -10.161  14.236  69.173  1.00  0.00     0.000 HD 
ENDROOT
BRANCH   2   4
HETATM    4  C   UNL     1      -9.840  11.195  67.963  1.00  0.00    -0.174 C  
HETATM    5  O   UNL     1     -10.714  11.192  66.811  1.00  0.00    -0.256 OA 
HETATM    6  C   UNL     1     -10.196  11.181  65.563  1.00  0.00    -0.263 C  
HETATM    7  C   UNL     1      -8.993  10.282  65.318  1.00  0.00    -0.186 C  
HETATM    8  O   UNL     1     -10.793  11.715  64.628  1.00  0.00    -0.296 OA 
HETATM    9  O   UNL     1      -9.443   8.947  65.055  1.00  0.00    -0.436 OA 
HETATM   10  C   UNL     1      -7.992  10.262  66.471  1.00  0.00    -0.118 C  
HETATM   11  C   UNL     1      -8.681  10.198  67.838  1.00  0.00    -0.122 C  
HETATM   12  H   UNL     1      -8.692   8.386  64.902  1.00  0.00     0.000 HD 
HETATM   13  O   UNL     1      -7.064  11.347  66.386  1.00  0.00    -0.300 OA 
HETATM   14  H   UNL     1      -6.441  11.335  67.103  1.00  0.00     0.000 HD 
HETATM   15  O   UNL     1      -9.224   8.890  68.081  1.00  0.00    -0.139 OA 
HETATM   16  H   UNL     1      -8.505   8.273  68.004  1.00  0.00     0.000 HD 
ENDBRANCH   2   4
TORSDOF 1
ENDMDL
MODEL      166
REMARK 921   NORMALIZED FREE ENERGY PREDICTED BY IDOCK:   -2.54 KCAL/MOL
REMARK 922        TOTAL FREE ENERGY PREDICTED BY IDOCK:   -2.92 KCAL/MOL
REMARK 923 INTER-LIGAND FREE ENERGY PREDICTED BY IDOCK:   -2.87 KCAL/MOL
REMARK 924 INTRA-LIGAND FREE ENERGY PREDICTED BY IDOCK:   -0.06 KCAL/MOL
REMARK 927      BINDING AFFINITY PREDICTED BY RF-SCORE:    0.00 PKD
ROOT
HETATM    1  O   UNL     1     -10.825   5.026  73.697  1.00  0.00    -0.265 OA 
HETATM    2  C   UNL     1      -9.967   6.035  73.164  1.00  0.00    -0.178 C  
HETATM    3  H   UNL     1     -10.912   5.103  74.640  1.00  0.00     0.000 HD 
ENDROOT
BRANCH   2   4
HETATM    4  C   UNL     1      -9.827   5.910  71.641  1.00  0.00    -0.165 C  
HETATM    5  O   UNL     1     -11.156   5.834  71.076  1.00  0.00    -0.264 OA 
HETATM    6  C   UNL     1     -11.853   6.964  70.821  1.00  0.00    -0.377 C  
HETATM    7  C   UNL     1     -11.086   8.134  70.222  1.00  0.00    -0.221 C  
HETATM    8  O   UNL     1     -13.082   6.974  70.885  1.00  0.00    -0.240 OA 
HETATM    9  O   UNL     1     -10.998   7.966  68.801  1.00  0.00    -0.419 OA 
HETATM   10  C   UNL     1      -9.684   8.315  70.799  1.00  0.00    -0.172 C  
HETATM   11  C   UNL     1      -8.952   6.980  70.977  1.00  0.00    -0.151 C  
HETATM   12  H   UNL     1     -10.520   8.696  68.427  1.00  0.00     0.000 HD 
HETATM   13  O   UNL     1      -9.702   9.083  72.005  1.00  0.00    -0.290 OA 
HETATM   14  H   UNL     1      -8.829   9.196  72.364  1.00  0.00     0.000 HD 
HETATM   15  O   UNL     1      -8.531   6.450  69.709  1.00  0.00    -0.124 OA 
HETATM   16  H   UNL     1      -7.989   7.113  69.297  1.00  0.00     0.000 HD 
ENDBRANCH   2   4
TORSDOF 1
ENDMDL
MODEL      167
REMARK 921   NORMALIZED FREE ENERGY PREDICTED BY IDOCK:   -2.52 KCAL/MOL
REMARK 922        TOTAL FREE ENERGY PREDICTED BY IDOCK:   -2.90 KCAL/MOL
REMARK 923 INTER-LIGAND FREE ENERGY PREDICTED BY IDOCK:   -2.88 KCAL/MOL
REMARK 924 INTRA-LIGAND FREE ENERGY PREDICTED BY IDOCK:   -0.02 KCAL/MOL
REMARK 927      BINDING AFFINITY PREDICTED BY RF-SCORE:    0.00 PKD
ROOT
HETATM    1  O   UNL     1      -7.473   7.796  70.869  1.00  0.00    -0.071 OA 
HETATM    2  C   UNL     1      -8.092   8.390  69.727  1.00  0.00    -0.117 C  
HETATM    3  H   UNL     1      -6.598   7.485  70.669  1.00  0.00     0.000 HD 
ENDROOT
BRANCH   2   4
HETATM    4  C   UNL     1      -9.505   8.893  70.050  1.00  0.00    -0.178 C  
HETATM    5  O   UNL     1      -9.511  10.331  69.903  1.00  0.00    -0.169 OA 
HETATM    6  C   UNL     1      -9.694  10.892  68.687  1.00  0.00    -0.185 C  
HETATM    7  C   UNL     1     -10.743  10.261  67.783  1.00  0.00    -0.275 C  
HETATM    8  O   UNL     1      -9.181  11.975  68.408  1.00  0.00    -0.189 OA 
HETATM    9  O   UNL     1     -12.037  10.777  68.125  1.00  0.00    -0.802 OA 
HETATM   10  C   UNL     1     -10.774   8.736  67.841  1.00  0.00    -0.107 C  
HETATM   11  C   UNL     1     -10.635   8.206  69.272  1.00  0.00    -0.182 C  
HETATM   12  H   UNL     1     -12.692  10.383  67.560  1.00  0.00     0.000 HD 
HETATM   13  O   UNL     1      -9.815   8.151  66.956  1.00  0.00    -0.187 OA 
HETATM   14  H   UNL     1      -9.834   7.202  66.992  1.00  0.00     0.000 HD 
HETATM   15  O   UNL     1     -11.845   8.415  70.019  1.00  0.00    -0.414 OA 
HETATM   16  H   UNL     1     -12.545   7.989  69.538  1.00  0.00     0.000 HD 
ENDBRANCH   2   4
TORSDOF 1
ENDMDL
MODEL      168
REMARK 921   NORMALIZED FREE ENERGY PREDICTED BY IDOCK:   -2.50 KCAL/MOL
REMARK 922        TOTAL FREE ENERGY PREDICTED BY IDOCK:   -2.88 KCAL/MOL
REMARK 923 INTER-LIGAND FREE ENERGY PREDICTED BY IDOCK:   -3.09 KCAL/MOL
REMARK 924 INTRA-LIGAND FREE ENERGY PREDICTED BY IDOCK:    0.21 KCAL/MOL
REMARK 927      BINDING AFFINITY PREDICTED BY RF-SCORE:    0.00 PKD
ROOT
HETATM    1  O   UNL     1      -7.425  10.531  70.532  1.00  0.00    -0.439 OA 
HETATM    2  C   UNL     1      -7.674  10.311  69.143  1.00  0.00    -0.119 C  
HETATM    3  H   UNL     1      -6.828  11.257  70.669  1.00  0.00     0.000 HD 
ENDROOT
BRANCH   2   4
HETATM    4  C   UNL     1      -8.638   9.137  68.922  1.00  0.00    -0.131 C  
HETATM    5  O   UNL     1      -8.874   8.507  70.201  1.00  0.00    -0.132 OA 
HETATM    6  C   UNL     1      -9.816   8.996  71.039  1.00  0.00    -0.282 C  
HETATM    7  C   UNL     1     -11.130   9.449  70.418  1.00  0.00    -0.261 C  
HETATM    8  O   UNL     1      -9.690   8.893  72.258  1.00  0.00    -0.284 OA 
HETATM    9  O   UNL     1     -11.989   8.314  70.247  1.00  0.00    -0.464 OA 
HETATM   10  C   UNL     1     -10.967  10.168  69.081  1.00  0.00    -0.230 C  
HETATM   11  C   UNL     1      -9.932   9.489  68.178  1.00  0.00    -0.165 C  
HETATM   12  H   UNL     1     -12.810   8.596  69.860  1.00  0.00     0.000 HD 
HETATM   13  O   UNL     1     -10.695  11.561  69.258  1.00  0.00    -0.337 OA 
HETATM   14  H   UNL     1     -10.594  12.009  68.426  1.00  0.00     0.000 HD 
HETATM   15  O   UNL     1     -10.449   8.264  67.633  1.00  0.00    -0.245 OA 
HETATM   16  H   UNL     1     -11.251   8.481  67.172  1.00  0.00     0.000 HD 
ENDBRANCH   2   4
TORSDOF 1
ENDMDL
MODEL      169
REMARK 921   NORMALIZED FREE ENERGY PREDICTED BY IDOCK:   -2.49 KCAL/MOL
REMARK 922        TOTAL FREE ENERGY PREDICTED BY IDOCK:   -2.87 KCAL/MOL
REMARK 923 INTER-LIGAND FREE ENERGY PREDICTED BY IDOCK:   -2.82 KCAL/MOL
REMARK 924 INTRA-LIGAND FREE ENERGY PREDICTED BY IDOCK:   -0.05 KCAL/MOL
REMARK 927      BINDING AFFINITY PREDICTED BY RF-SCORE:    0.00 PKD
ROOT
HETATM    1  O   UNL     1      -8.337   9.228  71.343  1.00  0.00    -0.323 OA 
HETATM    2  C   UNL     1      -9.501   8.765  70.658  1.00  0.00    -0.197 C  
HETATM    3  H   UNL     1      -8.564   9.759  72.098  1.00  0.00     0.000 HD 
ENDROOT
BRANCH   2   4
HETATM    4  C   UNL     1      -9.134   7.907  69.440  1.00  0.00    -0.145 C  
HETATM    5  O   UNL     1      -8.389   6.761  69.909  1.00  0.00    -0.131 OA 
HETATM    6  C   UNL     1      -9.038   5.666  70.364  1.00  0.00    -0.144 C  
HETATM    7  C   UNL     1     -10.271   5.218  69.591  1.00  0.00    -0.278 C  
HETATM    8  O   UNL     1      -8.540   4.954  71.235  1.00  0.00    -0.118 OA 
HETATM    9  O   UNL     1      -9.865   4.415  68.475  1.00  0.00    -0.144 OA 
HETATM   10  C   UNL     1     -11.142   6.370  69.097  1.00  0.00    -0.365 C  
HETATM   11  C   UNL     1     -10.311   7.527  68.533  1.00  0.00    -0.199 C  
HETATM   12  H   UNL     1     -10.634   4.135  67.993  1.00  0.00     0.000 HD 
HETATM   13  O   UNL     1     -12.062   6.807  70.100  1.00  0.00    -0.631 OA 
HETATM   14  H   UNL     1     -12.605   7.524  69.792  1.00  0.00     0.000 HD 
HETATM   15  O   UNL     1      -9.759   7.189  67.250  1.00  0.00    -0.140 OA 
HETATM   16  H   UNL     1     -10.488   6.953  66.687  1.00  0.00     0.000 HD 
ENDBRANCH   2   4
TORSDOF 1
ENDMDL
MODEL      170
REMARK 921   NORMALIZED FREE ENERGY PREDICTED BY IDOCK:   -2.49 KCAL/MOL
REMARK 922        TOTAL FREE ENERGY PREDICTED BY IDOCK:   -2.87 KCAL/MOL
REMARK 923 INTER-LIGAND FREE ENERGY PREDICTED BY IDOCK:   -2.81 KCAL/MOL
REMARK 924 INTRA-LIGAND FREE ENERGY PREDICTED BY IDOCK:   -0.05 KCAL/MOL
REMARK 927      BINDING AFFINITY PREDICTED BY RF-SCORE:    0.00 PKD
ROOT
HETATM    1  O   UNL     1     -11.118   5.747  69.372  1.00  0.00    -0.346 OA 
HETATM    2  C   UNL     1     -10.973   6.038  67.982  1.00  0.00    -0.245 C  
HETATM    3  H   UNL     1     -11.998   5.933  69.677  1.00  0.00     0.000 HD 
ENDROOT
BRANCH   2   4
HETATM    4  C   UNL     1      -9.551   5.738  67.489  1.00  0.00    -0.114 C  
HETATM    5  O   UNL     1      -9.129   4.487  68.078  1.00  0.00    -0.112 OA 
HETATM    6  C   UNL     1      -9.472   3.313  67.502  1.00  0.00    -0.162 C  
HETATM    7  C   UNL     1      -9.399   3.237  65.984  1.00  0.00    -0.117 C  
HETATM    8  O   UNL     1      -9.638   2.302  68.183  1.00  0.00    -0.210 OA 
HETATM    9  O   UNL     1      -8.053   2.945  65.587  1.00  0.00    -0.085 OA 
HETATM   10  C   UNL     1      -9.873   4.505  65.278  1.00  0.00    -0.169 C  
HETATM   11  C   UNL     1      -9.367   5.777  65.967  1.00  0.00    -0.117 C  
HETATM   12  H   UNL     1      -8.008   2.897  64.639  1.00  0.00     0.000 HD 
HETATM   13  O   UNL     1     -11.292   4.517  65.102  1.00  0.00    -1.034 OA 
HETATM   14  H   UNL     1     -11.586   5.306  64.663  1.00  0.00     0.000 HD 
HETATM   15  O   UNL     1      -7.965   5.975  65.719  1.00  0.00    -0.103 OA 
HETATM   16  H   UNL     1      -7.851   5.999  64.776  1.00  0.00     0.000 HD 
ENDBRANCH   2   4
TORSDOF 1
ENDMDL
MODEL      171
REMARK 921   NORMALIZED FREE ENERGY PREDICTED BY IDOCK:   -2.47 KCAL/MOL
REMARK 922        TOTAL FREE ENERGY PREDICTED BY IDOCK:   -2.85 KCAL/MOL
REMARK 923 INTER-LIGAND FREE ENERGY PREDICTED BY IDOCK:   -2.83 KCAL/MOL
REMARK 924 INTRA-LIGAND FREE ENERGY PREDICTED BY IDOCK:   -0.02 KCAL/MOL
REMARK 927      BINDING AFFINITY PREDICTED BY RF-SCORE:    0.00 PKD
ROOT
HETATM    1  O   UNL     1      -6.282  11.572  67.053  1.00  0.00    -0.104 OA 
HETATM    2  C   UNL     1      -7.631  11.319  66.660  1.00  0.00    -0.140 C  
HETATM    3  H   UNL     1      -5.704  10.867  66.790  1.00  0.00     0.000 HD 
ENDROOT
BRANCH   2   4
HETATM    4  C   UNL     1      -8.566  12.459  67.085  1.00  0.00    -0.189 C  
HETATM    5  O   UNL     1      -9.420  12.779  65.963  1.00  0.00    -0.219 OA 
HETATM    6  C   UNL     1     -10.547  12.068  65.740  1.00  0.00    -0.263 C  
HETATM    7  C   UNL     1     -11.385  11.694  66.955  1.00  0.00    -0.295 C  
HETATM    8  O   UNL     1     -10.976  11.906  64.598  1.00  0.00    -0.295 OA 
HETATM    9  O   UNL     1     -12.242  12.792  67.296  1.00  0.00    -0.387 OA 
HETATM   10  C   UNL     1     -10.559  11.297  68.176  1.00  0.00    -0.192 C  
HETATM   11  C   UNL     1      -9.347  12.212  68.382  1.00  0.00    -0.170 C  
HETATM   12  H   UNL     1     -12.765  12.559  68.054  1.00  0.00     0.000 HD 
HETATM   13  O   UNL     1     -10.190   9.916  68.141  1.00  0.00    -0.162 OA 
HETATM   14  H   UNL     1      -9.676   9.669  68.901  1.00  0.00     0.000 HD 
HETATM   15  O   UNL     1      -9.751  13.499  68.879  1.00  0.00    -0.410 OA 
HETATM   16  H   UNL     1     -10.236  13.346  69.683  1.00  0.00     0.000 HD 
ENDBRANCH   2   4
TORSDOF 1
ENDMDL
MODEL      172
REMARK 921   NORMALIZED FREE ENERGY PREDICTED BY IDOCK:   -2.47 KCAL/MOL
REMARK 922        TOTAL FREE ENERGY PREDICTED BY IDOCK:   -2.85 KCAL/MOL
REMARK 923 INTER-LIGAND FREE ENERGY PREDICTED BY IDOCK:   -2.79 KCAL/MOL
REMARK 924 INTRA-LIGAND FREE ENERGY PREDICTED BY IDOCK:   -0.06 KCAL/MOL
REMARK 927      BINDING AFFINITY PREDICTED BY RF-SCORE:    0.00 PKD
ROOT
HETATM    1  O   UNL     1     -10.410   8.437  71.762  1.00  0.00    -0.218 OA 
HETATM    2  C   UNL     1     -11.150   9.637  71.536  1.00  0.00    -0.264 C  
HETATM    3  H   UNL     1     -10.047   8.410  72.639  1.00  0.00     0.000 HD 
ENDROOT
BRANCH   2   4
HETATM    4  C   UNL     1     -11.735   9.681  70.118  1.00  0.00    -0.089 C  
HETATM    5  O   UNL     1     -12.630  10.813  70.039  1.00  0.00    -0.308 OA 
HETATM    6  C   UNL     1     -12.146  12.047  69.773  1.00  0.00    -0.248 C  
HETATM    7  C   UNL     1     -11.060  12.153  68.712  1.00  0.00    -0.250 C  
HETATM    8  O   UNL     1     -12.698  13.051  70.221  1.00  0.00    -0.078 OA 
HETATM    9  O   UNL     1     -11.667  12.200  67.414  1.00  0.00    -0.431 OA 
HETATM   10  C   UNL     1     -10.041  11.016  68.754  1.00  0.00    -0.203 C  
HETATM   11  C   UNL     1     -10.701   9.653  68.986  1.00  0.00    -0.211 C  
HETATM   12  H   UNL     1     -10.989  12.266  66.751  1.00  0.00     0.000 HD 
HETATM   13  O   UNL     1      -8.996  11.275  69.696  1.00  0.00    -0.129 OA 
HETATM   14  H   UNL     1      -8.362  10.568  69.722  1.00  0.00     0.000 HD 
HETATM   15  O   UNL     1     -11.385   9.204  67.804  1.00  0.00    -0.357 OA 
HETATM   16  H   UNL     1     -10.745   9.187  67.102  1.00  0.00     0.000 HD 
ENDBRANCH   2   4
TORSDOF 1
ENDMDL
MODEL      173
REMARK 921   NORMALIZED FREE ENERGY PREDICTED BY IDOCK:   -2.46 KCAL/MOL
REMARK 922        TOTAL FREE ENERGY PREDICTED BY IDOCK:   -2.84 KCAL/MOL
REMARK 923 INTER-LIGAND FREE ENERGY PREDICTED BY IDOCK:   -3.05 KCAL/MOL
REMARK 924 INTRA-LIGAND FREE ENERGY PREDICTED BY IDOCK:    0.21 KCAL/MOL
REMARK 927      BINDING AFFINITY PREDICTED BY RF-SCORE:    0.00 PKD
ROOT
HETATM    1  O   UNL     1     -11.605   4.436  64.958  1.00  0.00    -1.067 OA 
HETATM    2  C   UNL     1     -10.345   3.911  64.539  1.00  0.00    -0.220 C  
HETATM    3  H   UNL     1     -12.328   3.988  64.535  1.00  0.00     0.000 HD 
ENDROOT
BRANCH   2   4
HETATM    4  C   UNL     1      -9.178   4.637  65.223  1.00  0.00    -0.156 C  
HETATM    5  O   UNL     1      -9.721   5.740  65.982  1.00  0.00    -0.121 OA 
HETATM    6  C   UNL     1     -10.199   5.539  67.230  1.00  0.00    -0.212 C  
HETATM    7  C   UNL     1      -9.405   4.610  68.137  1.00  0.00    -0.135 C  
HETATM    8  O   UNL     1     -11.117   6.228  67.673  1.00  0.00    -0.341 OA 
HETATM    9  O   UNL     1      -8.339   5.345  68.753  1.00  0.00    -0.096 OA 
HETATM   10  C   UNL     1      -8.832   3.389  67.422  1.00  0.00    -0.130 C  
HETATM   11  C   UNL     1      -8.248   3.740  66.050  1.00  0.00    -0.101 C  
HETATM   12  H   UNL     1      -7.843   4.765  69.319  1.00  0.00     0.000 HD 
HETATM   13  O   UNL     1      -9.784   2.324  67.345  1.00  0.00    -0.405 OA 
HETATM   14  H   UNL     1      -9.427   1.564  66.900  1.00  0.00     0.000 HD 
HETATM   15  O   UNL     1      -7.000   4.440  66.184  1.00  0.00    -0.063 OA 
HETATM   16  H   UNL     1      -6.424   3.885  66.697  1.00  0.00     0.000 HD 
ENDBRANCH   2   4
TORSDOF 1
ENDMDL
MODEL      174
REMARK 921   NORMALIZED FREE ENERGY PREDICTED BY IDOCK:   -2.43 KCAL/MOL
REMARK 922        TOTAL FREE ENERGY PREDICTED BY IDOCK:   -2.81 KCAL/MOL
REMARK 923 INTER-LIGAND FREE ENERGY PREDICTED BY IDOCK:   -2.56 KCAL/MOL
REMARK 924 INTRA-LIGAND FREE ENERGY PREDICTED BY IDOCK:   -0.25 KCAL/MOL
REMARK 927      BINDING AFFINITY PREDICTED BY RF-SCORE:    0.00 PKD
ROOT
HETATM    1  O   UNL     1      -9.087   4.915  67.146  1.00  0.00    -0.116 OA 
HETATM    2  C   UNL     1      -8.407   5.615  68.188  1.00  0.00    -0.099 C  
HETATM    3  H   UNL     1      -8.476   4.513  66.539  1.00  0.00     0.000 HD 
ENDROOT
BRANCH   2   4
HETATM    4  C   UNL     1      -9.394   6.263  69.169  1.00  0.00    -0.131 C  
HETATM    5  O   UNL     1      -8.733   7.392  69.786  1.00  0.00    -0.139 OA 
HETATM    6  C   UNL     1      -8.712   8.592  69.165  1.00  0.00    -0.136 C  
HETATM    7  C   UNL     1      -9.991   9.039  68.472  1.00  0.00    -0.176 C  
HETATM    8  O   UNL     1      -7.770   9.368  69.325  1.00  0.00    -0.077 OA 
HETATM    9  O   UNL     1     -10.865   9.644  69.435  1.00  0.00    -0.224 OA 
HETATM   10  C   UNL     1     -10.731   7.913  67.753  1.00  0.00    -0.119 C  
HETATM   11  C   UNL     1     -10.762   6.620  68.575  1.00  0.00    -0.256 C  
HETATM   12  H   UNL     1     -11.664   9.923  69.003  1.00  0.00     0.000 HD 
HETATM   13  O   UNL     1     -10.219   7.700  66.435  1.00  0.00    -0.474 OA 
HETATM   14  H   UNL     1     -10.679   7.000  65.987  1.00  0.00     0.000 HD 
HETATM   15  O   UNL     1     -11.680   6.731  69.675  1.00  0.00    -0.609 OA 
HETATM   16  H   UNL     1     -12.529   6.952  69.308  1.00  0.00     0.000 HD 
ENDBRANCH   2   4
TORSDOF 1
ENDMDL
MODEL      175
REMARK 921   NORMALIZED FREE ENERGY PREDICTED BY IDOCK:   -2.42 KCAL/MOL
REMARK 922        TOTAL FREE ENERGY PREDICTED BY IDOCK:   -2.79 KCAL/MOL
REMARK 923 INTER-LIGAND FREE ENERGY PREDICTED BY IDOCK:   -2.75 KCAL/MOL
REMARK 924 INTRA-LIGAND FREE ENERGY PREDICTED BY IDOCK:   -0.05 KCAL/MOL
REMARK 927      BINDING AFFINITY PREDICTED BY RF-SCORE:    0.00 PKD
ROOT
HETATM    1  O   UNL     1      -7.523   9.901  66.131  1.00  0.00    -0.098 OA 
HETATM    2  C   UNL     1      -8.707  10.614  65.773  1.00  0.00    -0.182 C  
HETATM    3  H   UNL     1      -7.015   9.661  65.364  1.00  0.00     0.000 HD 
ENDROOT
BRANCH   2   4
HETATM    4  C   UNL     1      -9.527  11.001  67.012  1.00  0.00    -0.173 C  
HETATM    5  O   UNL     1      -8.605  11.419  68.044  1.00  0.00    -0.135 OA 
HETATM    6  C   UNL     1      -8.143  12.689  68.073  1.00  0.00    -0.161 C  
HETATM    7  C   UNL     1      -9.140  13.798  67.771  1.00  0.00    -0.193 C  
HETATM    8  O   UNL     1      -7.023  12.942  68.517  1.00  0.00    -0.085 OA 
HETATM    9  O   UNL     1      -9.865  14.122  68.965  1.00  0.00    -0.386 OA 
HETATM   10  C   UNL     1     -10.125  13.457  66.656  1.00  0.00    -0.275 C  
HETATM   11  C   UNL     1     -10.646  12.019  66.760  1.00  0.00    -0.227 C  
HETATM   12  H   UNL     1     -10.488  14.814  68.776  1.00  0.00     0.000 HD 
HETATM   13  O   UNL     1      -9.583  13.740  65.364  1.00  0.00    -0.530 OA 
HETATM   14  H   UNL     1     -10.196  13.528  64.669  1.00  0.00     0.000 HD 
HETATM   15  O   UNL     1     -11.584  11.887  67.841  1.00  0.00    -0.304 OA 
HETATM   16  H   UNL     1     -12.277  12.518  67.685  1.00  0.00     0.000 HD 
ENDBRANCH   2   4
TORSDOF 1
ENDMDL
MODEL      176
REMARK 921   NORMALIZED FREE ENERGY PREDICTED BY IDOCK:   -2.41 KCAL/MOL
REMARK 922        TOTAL FREE ENERGY PREDICTED BY IDOCK:   -2.78 KCAL/MOL
REMARK 923 INTER-LIGAND FREE ENERGY PREDICTED BY IDOCK:   -2.76 KCAL/MOL
REMARK 924 INTRA-LIGAND FREE ENERGY PREDICTED BY IDOCK:   -0.03 KCAL/MOL
REMARK 927      BINDING AFFINITY PREDICTED BY RF-SCORE:    0.00 PKD
ROOT
HETATM    1  O   UNL     1      -9.226  13.848  65.514  1.00  0.00    -0.384 OA 
HETATM    2  C   UNL     1      -9.205  13.409  66.872  1.00  0.00    -0.248 C  
HETATM    3  H   UNL     1      -8.515  14.452  65.331  1.00  0.00     0.000 HD 
ENDROOT
BRANCH   2   4
HETATM    4  C   UNL     1     -10.353  12.434  67.167  1.00  0.00    -0.219 C  
HETATM    5  O   UNL     1     -10.575  11.636  65.983  1.00  0.00    -0.242 OA 
HETATM    6  C   UNL     1      -9.827  10.533  65.753  1.00  0.00    -0.237 C  
HETATM    7  C   UNL     1      -9.523   9.640  66.947  1.00  0.00    -0.153 C  
HETATM    8  O   UNL     1      -9.578  10.169  64.605  1.00  0.00    -0.278 OA 
HETATM    9  O   UNL     1     -10.624   8.747  67.165  1.00  0.00    -0.291 OA 
HETATM   10  C   UNL     1      -9.229  10.406  68.234  1.00  0.00    -0.149 C  
HETATM   11  C   UNL     1     -10.181  11.590  68.436  1.00  0.00    -0.205 C  
HETATM   12  H   UNL     1     -10.434   8.189  67.910  1.00  0.00     0.000 HD 
HETATM   13  O   UNL     1      -7.857  10.800  68.316  1.00  0.00    -0.106 OA 
HETATM   14  H   UNL     1      -7.674  11.277  69.117  1.00  0.00     0.000 HD 
HETATM   15  O   UNL     1     -11.491  11.139  68.820  1.00  0.00    -0.246 OA 
HETATM   16  H   UNL     1     -11.385  10.615  69.606  1.00  0.00     0.000 HD 
ENDBRANCH   2   4
TORSDOF 1
ENDMDL
MODEL      177
REMARK 921   NORMALIZED FREE ENERGY PREDICTED BY IDOCK:   -2.37 KCAL/MOL
REMARK 922        TOTAL FREE ENERGY PREDICTED BY IDOCK:   -2.74 KCAL/MOL
REMARK 923 INTER-LIGAND FREE ENERGY PREDICTED BY IDOCK:   -2.72 KCAL/MOL
REMARK 924 INTRA-LIGAND FREE ENERGY PREDICTED BY IDOCK:   -0.02 KCAL/MOL
REMARK 927      BINDING AFFINITY PREDICTED BY RF-SCORE:    0.00 PKD
ROOT
HETATM    1  O   UNL     1     -12.027  11.505  67.607  1.00  0.00    -0.630 OA 
HETATM    2  C   UNL     1     -10.756  12.020  67.213  1.00  0.00    -0.232 C  
HETATM    3  H   UNL     1     -12.564  11.287  66.854  1.00  0.00     0.000 HD 
ENDROOT
BRANCH   2   4
HETATM    4  C   UNL     1      -9.889  12.372  68.430  1.00  0.00    -0.198 C  
HETATM    5  O   UNL     1     -10.175  11.414  69.474  1.00  0.00     0.017 OA 
HETATM    6  C   UNL     1      -9.545  10.218  69.493  1.00  0.00    -0.202 C  
HETATM    7  C   UNL     1      -8.061  10.210  69.156  1.00  0.00    -0.134 C  
HETATM    8  O   UNL     1     -10.099   9.221  69.955  1.00  0.00    -0.187 OA 
HETATM    9  O   UNL     1      -7.306  10.535  70.331  1.00  0.00    -0.451 OA 
HETATM   10  C   UNL     1      -7.677  11.163  68.027  1.00  0.00    -0.107 C  
HETATM   11  C   UNL     1      -8.389  12.516  68.142  1.00  0.00    -0.175 C  
HETATM   12  H   UNL     1      -6.379  10.529  70.121  1.00  0.00     0.000 HD 
HETATM   13  O   UNL     1      -7.863  10.565  66.742  1.00  0.00    -0.113 OA 
HETATM   14  H   UNL     1      -7.624  11.159  66.039  1.00  0.00     0.000 HD 
HETATM   15  O   UNL     1      -7.831  13.303  69.207  1.00  0.00    -0.305 OA 
HETATM   16  H   UNL     1      -6.902  13.392  69.029  1.00  0.00     0.000 HD 
ENDBRANCH   2   4
TORSDOF 1
ENDMDL
MODEL      178
REMARK 921   NORMALIZED FREE ENERGY PREDICTED BY IDOCK:   -2.36 KCAL/MOL
REMARK 922        TOTAL FREE ENERGY PREDICTED BY IDOCK:   -2.73 KCAL/MOL
REMARK 923 INTER-LIGAND FREE ENERGY PREDICTED BY IDOCK:   -2.58 KCAL/MOL
REMARK 924 INTRA-LIGAND FREE ENERGY PREDICTED BY IDOCK:   -0.15 KCAL/MOL
REMARK 927      BINDING AFFINITY PREDICTED BY RF-SCORE:    0.00 PKD
ROOT
HETATM    1  O   UNL     1      -8.605  12.715  67.805  1.00  0.00    -0.157 OA 
HETATM    2  C   UNL     1      -7.996  13.702  66.972  1.00  0.00     0.070 C  
HETATM    3  H   UNL     1      -9.146  12.119  67.301  1.00  0.00     0.000 HD 
ENDROOT
BRANCH   2   4
HETATM    4  C   UNL     1      -7.123  14.666  67.787  1.00  0.00    -0.177 C  
HETATM    5  O   UNL     1      -6.820  15.807  66.953  1.00  0.00    -0.248 OA 
HETATM    6  C   UNL     1      -7.695  16.834  66.859  1.00  0.00    -0.219 C  
HETATM    7  C   UNL     1      -8.383  17.280  68.141  1.00  0.00    -0.233 C  
HETATM    8  O   UNL     1      -7.776  17.500  65.827  1.00  0.00    -0.530 OA 
HETATM    9  O   UNL     1      -7.525  18.184  68.850  1.00  0.00    -0.282 OA 
HETATM   10  C   UNL     1      -8.780  16.129  69.062  1.00  0.00    -0.254 C  
HETATM   11  C   UNL     1      -7.689  15.058  69.158  1.00  0.00    -0.179 C  
HETATM   12  H   UNL     1      -7.954  18.462  69.650  1.00  0.00     0.000 HD 
HETATM   13  O   UNL     1     -10.048  15.575  68.701  1.00  0.00    -0.202 OA 
HETATM   14  H   UNL     1     -10.295  14.859  69.275  1.00  0.00     0.000 HD 
HETATM   15  O   UNL     1      -6.583  15.518  69.952  1.00  0.00    -0.170 OA 
HETATM   16  H   UNL     1      -6.934  15.761  70.801  1.00  0.00     0.000 HD 
ENDBRANCH   2   4
TORSDOF 1
ENDMDL
MODEL      179
REMARK 921   NORMALIZED FREE ENERGY PREDICTED BY IDOCK:   -2.33 KCAL/MOL
REMARK 922        TOTAL FREE ENERGY PREDICTED BY IDOCK:   -2.70 KCAL/MOL
REMARK 923 INTER-LIGAND FREE ENERGY PREDICTED BY IDOCK:   -2.62 KCAL/MOL
REMARK 924 INTRA-LIGAND FREE ENERGY PREDICTED BY IDOCK:   -0.08 KCAL/MOL
REMARK 927      BINDING AFFINITY PREDICTED BY RF-SCORE:    0.00 PKD
ROOT
HETATM    1  O   UNL     1      -8.298  10.175  70.000  1.00  0.00    -0.320 OA 
HETATM    2  C   UNL     1      -9.312   9.394  70.632  1.00  0.00    -0.252 C  
HETATM    3  H   UNL     1      -8.515  11.099  70.006  1.00  0.00     0.000 HD 
ENDROOT
BRANCH   2   4
HETATM    4  C   UNL     1      -8.961   7.900  70.622  1.00  0.00    -0.148 C  
HETATM    5  O   UNL     1     -10.036   7.184  71.271  1.00  0.00    -0.190 OA 
HETATM    6  C   UNL     1     -11.139   6.831  70.574  1.00  0.00    -0.298 C  
HETATM    7  C   UNL     1     -10.929   6.305  69.161  1.00  0.00    -0.377 C  
HETATM    8  O   UNL     1     -12.235   6.750  71.127  1.00  0.00    -0.368 OA 
HETATM    9  O   UNL     1     -10.616   4.907  69.217  1.00  0.00    -0.073 OA 
HETATM   10  C   UNL     1      -9.838   7.039  68.385  1.00  0.00    -0.146 C  
HETATM   11  C   UNL     1      -8.603   7.324  69.246  1.00  0.00    -0.137 C  
HETATM   12  H   UNL     1     -10.485   4.579  68.335  1.00  0.00     0.000 HD 
HETATM   13  O   UNL     1     -10.339   8.221  67.755  1.00  0.00    -0.216 OA 
HETATM   14  H   UNL     1      -9.661   8.678  67.272  1.00  0.00     0.000 HD 
HETATM   15  O   UNL     1      -7.848   6.123  69.477  1.00  0.00    -0.096 OA 
HETATM   16  H   UNL     1      -7.626   5.766  68.625  1.00  0.00     0.000 HD 
ENDBRANCH   2   4
TORSDOF 1
ENDMDL
MODEL      180
REMARK 921   NORMALIZED FREE ENERGY PREDICTED BY IDOCK:   -2.31 KCAL/MOL
REMARK 922        TOTAL FREE ENERGY PREDICTED BY IDOCK:   -2.68 KCAL/MOL
REMARK 923 INTER-LIGAND FREE ENERGY PREDICTED BY IDOCK:   -2.97 KCAL/MOL
REMARK 924 INTRA-LIGAND FREE ENERGY PREDICTED BY IDOCK:    0.29 KCAL/MOL
REMARK 927      BINDING AFFINITY PREDICTED BY RF-SCORE:    0.00 PKD
ROOT
HETATM    1  O   UNL     1      -8.779   9.271  66.792  1.00  0.00    -0.125 OA 
HETATM    2  C   UNL     1     -10.138   9.135  66.375  1.00  0.00    -0.274 C  
HETATM    3  H   UNL     1      -8.224   8.612  66.392  1.00  0.00     0.000 HD 
ENDROOT
BRANCH   2   4
HETATM    4  C   UNL     1     -11.034  10.200  67.022  1.00  0.00    -0.092 C  
HETATM    5  O   UNL     1     -10.851  10.127  68.455  1.00  0.00    -0.219 OA 
HETATM    6  C   UNL     1      -9.822  10.776  69.044  1.00  0.00    -0.194 C  
HETATM    7  C   UNL     1      -9.501  12.174  68.537  1.00  0.00    -0.122 C  
HETATM    8  O   UNL     1      -9.304  10.335  70.069  1.00  0.00    -0.111 OA 
HETATM    9  O   UNL     1     -10.361  13.122  69.184  1.00  0.00    -0.434 OA 
HETATM   10  C   UNL     1      -9.624  12.327  67.023  1.00  0.00    -0.208 C  
HETATM   11  C   UNL     1     -10.865  11.620  66.467  1.00  0.00    -0.284 C  
HETATM   12  H   UNL     1     -10.160  13.995  68.868  1.00  0.00     0.000 HD 
HETATM   13  O   UNL     1      -8.429  11.926  66.350  1.00  0.00    -0.327 OA 
HETATM   14  H   UNL     1      -8.506  12.021  65.408  1.00  0.00     0.000 HD 
HETATM   15  O   UNL     1     -12.062  12.344  66.795  1.00  0.00    -0.578 OA 
HETATM   16  H   UNL     1     -11.957  13.224  66.451  1.00  0.00     0.000 HD 
ENDBRANCH   2   4
TORSDOF 1
ENDMDL
MODEL      181
REMARK 921   NORMALIZED FREE ENERGY PREDICTED BY IDOCK:   -2.30 KCAL/MOL
REMARK 922        TOTAL FREE ENERGY PREDICTED BY IDOCK:   -2.67 KCAL/MOL
REMARK 923 INTER-LIGAND FREE ENERGY PREDICTED BY IDOCK:   -2.63 KCAL/MOL
REMARK 924 INTRA-LIGAND FREE ENERGY PREDICTED BY IDOCK:   -0.04 KCAL/MOL
REMARK 927      BINDING AFFINITY PREDICTED BY RF-SCORE:    0.00 PKD
ROOT
HETATM    1  O   UNL     1      -8.541  10.372  69.024  1.00  0.00    -0.139 OA 
HETATM    2  C   UNL     1      -7.948   9.955  67.794  1.00  0.00    -0.105 C  
HETATM    3  H   UNL     1      -8.541   9.672  69.666  1.00  0.00     0.000 HD 
ENDROOT
BRANCH   2   4
HETATM    4  C   UNL     1      -7.948  11.086  66.756  1.00  0.00    -0.152 C  
HETATM    5  O   UNL     1      -6.878  10.830  65.818  1.00  0.00    -0.124 OA 
HETATM    6  C   UNL     1      -7.075   9.999  64.770  1.00  0.00    -0.137 C  
HETATM    7  C   UNL     1      -8.407  10.104  64.041  1.00  0.00    -0.172 C  
HETATM    8  O   UNL     1      -6.147   9.337  64.308  1.00  0.00    -0.073 OA 
HETATM    9  O   UNL     1      -8.341  11.167  63.081  1.00  0.00    -0.400 OA 
HETATM   10  C   UNL     1      -9.602  10.328  64.966  1.00  0.00    -0.285 C  
HETATM   11  C   UNL     1      -9.297  11.343  66.073  1.00  0.00    -0.217 C  
HETATM   12  H   UNL     1      -9.173  11.232  62.627  1.00  0.00     0.000 HD 
HETATM   13  O   UNL     1     -10.106   9.097  65.489  1.00  0.00    -0.391 OA 
HETATM   14  H   UNL     1     -10.850   9.237  66.064  1.00  0.00     0.000 HD 
HETATM   15  O   UNL     1      -9.253  12.681  65.548  1.00  0.00    -0.438 OA 
HETATM   16  H   UNL     1     -10.088  12.840  65.125  1.00  0.00     0.000 HD 
ENDBRANCH   2   4
TORSDOF 1
ENDMDL
MODEL      182
REMARK 921   NORMALIZED FREE ENERGY PREDICTED BY IDOCK:   -2.30 KCAL/MOL
REMARK 922        TOTAL FREE ENERGY PREDICTED BY IDOCK:   -2.66 KCAL/MOL
REMARK 923 INTER-LIGAND FREE ENERGY PREDICTED BY IDOCK:   -2.87 KCAL/MOL
REMARK 924 INTRA-LIGAND FREE ENERGY PREDICTED BY IDOCK:    0.21 KCAL/MOL
REMARK 927      BINDING AFFINITY PREDICTED BY RF-SCORE:    0.00 PKD
ROOT
HETATM    1  O   UNL     1     -12.010   6.506  69.482  1.00  0.00    -0.601 OA 
HETATM    2  C   UNL     1     -10.762   6.351  68.807  1.00  0.00    -0.287 C  
HETATM    3  H   UNL     1     -12.704   6.024  69.048  1.00  0.00     0.000 HD 
ENDROOT
BRANCH   2   4
HETATM    4  C   UNL     1      -9.641   7.129  69.509  1.00  0.00    -0.154 C  
HETATM    5  O   UNL     1     -10.164   8.424  69.884  1.00  0.00    -0.192 OA 
HETATM    6  C   UNL     1     -10.856   8.573  71.035  1.00  0.00    -0.241 C  
HETATM    7  C   UNL     1     -10.332   7.837  72.260  1.00  0.00    -0.237 C  
HETATM    8  O   UNL     1     -11.744   9.419  71.132  1.00  0.00    -0.295 OA 
HETATM    9  O   UNL     1      -9.299   8.616  72.876  1.00  0.00    -0.241 OA 
HETATM   10  C   UNL     1      -9.802   6.437  71.961  1.00  0.00    -0.156 C  
HETATM   11  C   UNL     1      -8.968   6.394  70.675  1.00  0.00    -0.144 C  
HETATM   12  H   UNL     1      -8.972   8.157  73.641  1.00  0.00     0.000 HD 
HETATM   13  O   UNL     1     -10.848   5.463  71.955  1.00  0.00    -0.231 OA 
HETATM   14  H   UNL     1     -10.518   4.592  71.769  1.00  0.00     0.000 HD 
HETATM   15  O   UNL     1      -7.684   7.008  70.873  1.00  0.00    -0.092 OA 
HETATM   16  H   UNL     1      -7.267   6.553  71.595  1.00  0.00     0.000 HD 
ENDBRANCH   2   4
TORSDOF 1
ENDMDL
MODEL      183
REMARK 921   NORMALIZED FREE ENERGY PREDICTED BY IDOCK:   -2.28 KCAL/MOL
REMARK 922        TOTAL FREE ENERGY PREDICTED BY IDOCK:   -2.65 KCAL/MOL
REMARK 923 INTER-LIGAND FREE ENERGY PREDICTED BY IDOCK:   -2.45 KCAL/MOL
REMARK 924 INTRA-LIGAND FREE ENERGY PREDICTED BY IDOCK:   -0.20 KCAL/MOL
REMARK 927      BINDING AFFINITY PREDICTED BY RF-SCORE:    0.00 PKD
ROOT
HETATM    1  O   UNL     1      -6.382   8.110  66.510  1.00  0.00    -0.052 OA 
HETATM    2  C   UNL     1      -6.951   8.288  67.808  1.00  0.00    -0.078 C  
HETATM    3  H   UNL     1      -5.794   8.822  66.287  1.00  0.00     0.000 HD 
ENDROOT
BRANCH   2   4
HETATM    4  C   UNL     1      -7.900   7.138  68.169  1.00  0.00    -0.118 C  
HETATM    5  O   UNL     1      -9.029   7.697  68.878  1.00  0.00    -0.138 OA 
HETATM    6  C   UNL     1     -10.074   8.216  68.196  1.00  0.00    -0.198 C  
HETATM    7  C   UNL     1     -10.544   7.458  66.963  1.00  0.00    -0.344 C  
HETATM    8  O   UNL     1     -10.734   9.143  68.664  1.00  0.00    -0.197 OA 
HETATM    9  O   UNL     1     -11.433   6.407  67.362  1.00  0.00    -0.705 OA 
HETATM   10  C   UNL     1      -9.409   6.872  66.127  1.00  0.00    -0.042 C  
HETATM   11  C   UNL     1      -8.314   6.241  66.995  1.00  0.00    -0.109 C  
HETATM   12  H   UNL     1     -11.727   5.934  66.593  1.00  0.00     0.000 HD 
HETATM   13  O   UNL     1      -8.880   7.828  65.205  1.00  0.00    -0.364 OA 
HETATM   14  H   UNL     1      -8.173   7.463  64.685  1.00  0.00     0.000 HD 
HETATM   15  O   UNL     1      -8.755   4.994  67.555  1.00  0.00    -0.105 OA 
HETATM   16  H   UNL     1      -9.012   4.438  66.828  1.00  0.00     0.000 HD 
ENDBRANCH   2   4
TORSDOF 1
ENDMDL
MODEL      184
REMARK 921   NORMALIZED FREE ENERGY PREDICTED BY IDOCK:   -2.27 KCAL/MOL
REMARK 922        TOTAL FREE ENERGY PREDICTED BY IDOCK:   -2.64 KCAL/MOL
REMARK 923 INTER-LIGAND FREE ENERGY PREDICTED BY IDOCK:   -2.38 KCAL/MOL
REMARK 924 INTRA-LIGAND FREE ENERGY PREDICTED BY IDOCK:   -0.25 KCAL/MOL
REMARK 927      BINDING AFFINITY PREDICTED BY RF-SCORE:    0.00 PKD
ROOT
HETATM    1  O   UNL     1      -8.376   8.909  71.841  1.00  0.00    -0.349 OA 
HETATM    2  C   UNL     1      -9.487   9.208  70.996  1.00  0.00    -0.274 C  
HETATM    3  H   UNL     1      -7.851   9.681  72.013  1.00  0.00     0.000 HD 
ENDROOT
BRANCH   2   4
HETATM    4  C   UNL     1     -10.336   7.960  70.718  1.00  0.00    -0.203 C  
HETATM    5  O   UNL     1     -10.946   8.115  69.416  1.00  0.00    -0.146 OA 
HETATM    6  C   UNL     1     -10.262   7.780  68.299  1.00  0.00    -0.201 C  
HETATM    7  C   UNL     1      -9.433   6.505  68.349  1.00  0.00    -0.120 C  
HETATM    8  O   UNL     1     -10.462   8.368  67.237  1.00  0.00    -0.279 OA 
HETATM    9  O   UNL     1     -10.276   5.379  68.072  1.00  0.00    -0.173 OA 
HETATM   10  C   UNL     1      -8.714   6.285  69.678  1.00  0.00    -0.136 C  
HETATM   11  C   UNL     1      -9.602   6.623  70.881  1.00  0.00    -0.175 C  
HETATM   12  H   UNL     1      -9.759   4.583  68.102  1.00  0.00     0.000 HD 
HETATM   13  O   UNL     1      -7.462   6.974  69.724  1.00  0.00    -0.092 OA 
HETATM   14  H   UNL     1      -7.015   6.838  70.551  1.00  0.00     0.000 HD 
HETATM   15  O   UNL     1     -10.606   5.614  71.079  1.00  0.00    -0.237 OA 
HETATM   16  H   UNL     1     -10.152   4.786  71.180  1.00  0.00     0.000 HD 
ENDBRANCH   2   4
TORSDOF 1
ENDMDL
MODEL      185
REMARK 921   NORMALIZED FREE ENERGY PREDICTED BY IDOCK:   -2.26 KCAL/MOL
REMARK 922        TOTAL FREE ENERGY PREDICTED BY IDOCK:   -2.63 KCAL/MOL
REMARK 923 INTER-LIGAND FREE ENERGY PREDICTED BY IDOCK:   -2.37 KCAL/MOL
REMARK 924 INTRA-LIGAND FREE ENERGY PREDICTED BY IDOCK:   -0.25 KCAL/MOL
REMARK 927      BINDING AFFINITY PREDICTED BY RF-SCORE:    0.00 PKD
ROOT
HETATM    1  O   UNL     1     -11.847   6.486  69.683  1.00  0.00    -0.645 OA 
HETATM    2  C   UNL     1     -11.113   6.383  68.463  1.00  0.00    -0.300 C  
HETATM    3  H   UNL     1     -12.775   6.338  69.546  1.00  0.00     0.000 HD 
ENDROOT
BRANCH   2   4
HETATM    4  C   UNL     1      -9.613   6.624  68.686  1.00  0.00    -0.130 C  
HETATM    5  O   UNL     1      -9.064   7.174  67.467  1.00  0.00    -0.124 OA 
HETATM    6  C   UNL     1      -9.142   8.502  67.223  1.00  0.00    -0.133 C  
HETATM    7  C   UNL     1      -8.883   9.439  68.393  1.00  0.00    -0.128 C  
HETATM    8  O   UNL     1      -9.218   8.927  66.071  1.00  0.00    -0.196 OA 
HETATM    9  O   UNL     1      -7.470   9.632  68.544  1.00  0.00    -0.078 OA 
HETATM   10  C   UNL     1      -9.472   8.955  69.716  1.00  0.00    -0.170 C  
HETATM   11  C   UNL     1      -9.263   7.451  69.929  1.00  0.00    -0.144 C  
HETATM   12  H   UNL     1      -7.308  10.218  69.274  1.00  0.00     0.000 HD 
HETATM   13  O   UNL     1     -10.844   9.332  69.856  1.00  0.00    -0.229 OA 
HETATM   14  H   UNL     1     -11.210   9.031  70.679  1.00  0.00     0.000 HD 
HETATM   15  O   UNL     1      -7.894   7.162  70.254  1.00  0.00    -0.100 OA 
HETATM   16  H   UNL     1      -7.676   7.674  71.024  1.00  0.00     0.000 HD 
ENDBRANCH   2   4
TORSDOF 1
ENDMDL
MODEL      186
REMARK 921   NORMALIZED FREE ENERGY PREDICTED BY IDOCK:   -2.23 KCAL/MOL
REMARK 922        TOTAL FREE ENERGY PREDICTED BY IDOCK:   -2.60 KCAL/MOL
REMARK 923 INTER-LIGAND FREE ENERGY PREDICTED BY IDOCK:   -2.34 KCAL/MOL
REMARK 924 INTRA-LIGAND FREE ENERGY PREDICTED BY IDOCK:   -0.25 KCAL/MOL
REMARK 927      BINDING AFFINITY PREDICTED BY RF-SCORE:    0.00 PKD
ROOT
HETATM    1  O   UNL     1      -6.488   6.744  69.611  1.00  0.00    -0.041 OA 
HETATM    2  C   UNL     1      -7.166   7.430  68.559  1.00  0.00    -0.087 C  
HETATM    3  H   UNL     1      -5.914   6.066  69.274  1.00  0.00     0.000 HD 
ENDROOT
BRANCH   2   4
HETATM    4  C   UNL     1      -8.093   8.524  69.104  1.00  0.00    -0.117 C  
HETATM    5  O   UNL     1      -9.197   8.675  68.183  1.00  0.00    -0.137 OA 
HETATM    6  C   UNL     1     -10.271   7.859  68.267  1.00  0.00    -0.203 C  
HETATM    7  C   UNL     1     -10.784   7.527  69.661  1.00  0.00    -0.230 C  
HETATM    8  O   UNL     1     -10.919   7.564  67.264  1.00  0.00    -0.264 OA 
HETATM    9  O   UNL     1     -11.650   8.578  70.111  1.00  0.00    -0.463 OA 
HETATM   10  C   UNL     1      -9.678   7.306  70.691  1.00  0.00    -0.175 C  
HETATM   11  C   UNL     1      -8.546   8.330  70.557  1.00  0.00    -0.131 C  
HETATM   12  H   UNL     1     -11.970   8.371  70.981  1.00  0.00     0.000 HD 
HETATM   13  O   UNL     1      -9.193   5.961  70.667  1.00  0.00    -0.150 OA 
HETATM   14  H   UNL     1      -8.504   5.823  71.307  1.00  0.00     0.000 HD 
HETATM   15  O   UNL     1      -8.956   9.618  71.044  1.00  0.00    -0.345 OA 
HETATM   16  H   UNL     1      -9.237   9.498  71.944  1.00  0.00     0.000 HD 
ENDBRANCH   2   4
TORSDOF 1
ENDMDL
MODEL      187
REMARK 921   NORMALIZED FREE ENERGY PREDICTED BY IDOCK:   -2.23 KCAL/MOL
REMARK 922        TOTAL FREE ENERGY PREDICTED BY IDOCK:   -2.59 KCAL/MOL
REMARK 923 INTER-LIGAND FREE ENERGY PREDICTED BY IDOCK:   -2.36 KCAL/MOL
REMARK 924 INTRA-LIGAND FREE ENERGY PREDICTED BY IDOCK:   -0.23 KCAL/MOL
REMARK 927      BINDING AFFINITY PREDICTED BY RF-SCORE:    0.00 PKD
ROOT
HETATM    1  O   UNL     1     -11.749   8.650  71.921  1.00  0.00    -0.305 OA 
HETATM    2  C   UNL     1     -10.572   9.342  71.503  1.00  0.00    -0.335 C  
HETATM    3  H   UNL     1     -11.984   8.870  72.815  1.00  0.00     0.000 HD 
ENDROOT
BRANCH   2   4
HETATM    4  C   UNL     1     -10.192   8.986  70.059  1.00  0.00    -0.203 C  
HETATM    5  O   UNL     1      -8.749   8.983  69.965  1.00  0.00    -0.133 OA 
HETATM    6  C   UNL     1      -8.045   7.884  70.319  1.00  0.00    -0.115 C  
HETATM    7  C   UNL     1      -8.608   6.534  69.899  1.00  0.00    -0.139 C  
HETATM    8  O   UNL     1      -6.909   7.985  70.780  1.00  0.00    -0.037 OA 
HETATM    9  O   UNL     1      -8.211   6.253  68.550  1.00  0.00    -0.111 OA 
HETATM   10  C   UNL     1     -10.127   6.434  70.012  1.00  0.00    -0.172 C  
HETATM   11  C   UNL     1     -10.831   7.702  69.515  1.00  0.00    -0.165 C  
HETATM   12  H   UNL     1      -8.562   5.410  68.288  1.00  0.00     0.000 HD 
HETATM   13  O   UNL     1     -10.538   6.074  71.333  1.00  0.00    -0.228 OA 
HETATM   14  H   UNL     1     -11.484   6.013  71.404  1.00  0.00     0.000 HD 
HETATM   15  O   UNL     1     -10.787   7.787  68.081  1.00  0.00    -0.417 OA 
HETATM   16  H   UNL     1     -11.183   6.991  67.743  1.00  0.00     0.000 HD 
ENDBRANCH   2   4
TORSDOF 1
ENDMDL
MODEL      188
REMARK 921   NORMALIZED FREE ENERGY PREDICTED BY IDOCK:   -2.22 KCAL/MOL
REMARK 922        TOTAL FREE ENERGY PREDICTED BY IDOCK:   -2.58 KCAL/MOL
REMARK 923 INTER-LIGAND FREE ENERGY PREDICTED BY IDOCK:   -2.40 KCAL/MOL
REMARK 924 INTRA-LIGAND FREE ENERGY PREDICTED BY IDOCK:   -0.18 KCAL/MOL
REMARK 927      BINDING AFFINITY PREDICTED BY RF-SCORE:    0.00 PKD
ROOT
HETATM    1  O   UNL     1      -6.339   4.043  67.028  1.00  0.00    -0.038 OA 
HETATM    2  C   UNL     1      -7.542   4.571  67.588  1.00  0.00    -0.078 C  
HETATM    3  H   UNL     1      -5.589   4.589  67.234  1.00  0.00     0.000 HD 
ENDROOT
BRANCH   2   4
HETATM    4  C   UNL     1      -8.753   3.689  67.254  1.00  0.00    -0.115 C  
HETATM    5  O   UNL     1      -9.949   4.461  67.503  1.00  0.00    -0.154 OA 
HETATM    6  C   UNL     1     -10.425   5.304  66.559  1.00  0.00    -0.298 C  
HETATM    7  C   UNL     1     -10.396   4.820  65.117  1.00  0.00     0.069 C  
HETATM    8  O   UNL     1     -11.034   6.325  66.876  1.00  0.00    -0.358 OA 
HETATM    9  O   UNL     1     -11.554   4.013  64.864  1.00  0.00    -0.714 OA 
HETATM   10  C   UNL     1      -9.140   4.032  64.754  1.00  0.00    -0.141 C  
HETATM   11  C   UNL     1      -8.730   3.052  65.858  1.00  0.00    -0.131 C  
HETATM   12  H   UNL     1     -11.536   3.711  63.963  1.00  0.00     0.000 HD 
HETATM   13  O   UNL     1      -8.064   4.894  64.374  1.00  0.00    -0.101 OA 
HETATM   14  H   UNL     1      -7.282   4.404  64.148  1.00  0.00     0.000 HD 
HETATM   15  O   UNL     1      -9.616   1.921  65.899  1.00  0.00    -0.338 OA 
HETATM   16  H   UNL     1      -9.602   1.526  65.035  1.00  0.00     0.000 HD 
ENDBRANCH   2   4
TORSDOF 1
ENDMDL
MODEL      189
REMARK 921   NORMALIZED FREE ENERGY PREDICTED BY IDOCK:   -2.21 KCAL/MOL
REMARK 922        TOTAL FREE ENERGY PREDICTED BY IDOCK:   -2.57 KCAL/MOL
REMARK 923 INTER-LIGAND FREE ENERGY PREDICTED BY IDOCK:   -2.53 KCAL/MOL
REMARK 924 INTRA-LIGAND FREE ENERGY PREDICTED BY IDOCK:   -0.04 KCAL/MOL
REMARK 927      BINDING AFFINITY PREDICTED BY RF-SCORE:    0.00 PKD
ROOT
HETATM    1  O   UNL     1      -9.048   5.742  70.770  1.00  0.00    -0.145 OA 
HETATM    2  C   UNL     1     -10.046   6.543  70.137  1.00  0.00    -0.174 C  
HETATM    3  H   UNL     1      -9.435   5.031  71.268  1.00  0.00     0.000 HD 
ENDROOT
BRANCH   2   4
HETATM    4  C   UNL     1      -9.421   7.691  69.334  1.00  0.00    -0.152 C  
HETATM    5  O   UNL     1      -8.224   7.190  68.697  1.00  0.00    -0.123 OA 
HETATM    6  C   UNL     1      -8.302   6.536  67.517  1.00  0.00    -0.121 C  
HETATM    7  C   UNL     1      -9.264   7.092  66.477  1.00  0.00    -0.162 C  
HETATM    8  O   UNL     1      -7.490   5.657  67.228  1.00  0.00    -0.082 OA 
HETATM    9  O   UNL     1      -8.621   8.151  65.754  1.00  0.00    -0.141 OA 
HETATM   10  C   UNL     1     -10.579   7.603  67.061  1.00  0.00    -0.336 C  
HETATM   11  C   UNL     1     -10.371   8.395  68.356  1.00  0.00    -0.200 C  
HETATM   12  H   UNL     1      -9.221   8.498  65.105  1.00  0.00     0.000 HD 
HETATM   13  O   UNL     1     -11.532   6.549  67.222  1.00  0.00    -0.754 OA 
HETATM   14  H   UNL     1     -12.350   6.867  67.586  1.00  0.00     0.000 HD 
HETATM   15  O   UNL     1      -9.809   9.689  68.084  1.00  0.00    -0.144 OA 
HETATM   16  H   UNL     1     -10.397  10.125  67.478  1.00  0.00     0.000 HD 
ENDBRANCH   2   4
TORSDOF 1
ENDMDL
MODEL      190
REMARK 921   NORMALIZED FREE ENERGY PREDICTED BY IDOCK:   -2.21 KCAL/MOL
REMARK 922        TOTAL FREE ENERGY PREDICTED BY IDOCK:   -2.57 KCAL/MOL
REMARK 923 INTER-LIGAND FREE ENERGY PREDICTED BY IDOCK:   -2.51 KCAL/MOL
REMARK 924 INTRA-LIGAND FREE ENERGY PREDICTED BY IDOCK:   -0.06 KCAL/MOL
REMARK 927      BINDING AFFINITY PREDICTED BY RF-SCORE:    0.00 PKD
ROOT
HETATM    1  O   UNL     1      -6.682   4.867  70.793  1.00  0.00    -0.036 OA 
HETATM    2  C   UNL     1      -7.380   6.038  70.369  1.00  0.00    -0.088 C  
HETATM    3  H   UNL     1      -5.859   4.764  70.329  1.00  0.00     0.000 HD 
ENDROOT
BRANCH   2   4
HETATM    4  C   UNL     1      -8.709   6.205  71.117  1.00  0.00    -0.132 C  
HETATM    5  O   UNL     1      -9.267   7.489  70.756  1.00  0.00    -0.157 OA 
HETATM    6  C   UNL     1      -9.998   7.622  69.627  1.00  0.00    -0.185 C  
HETATM    7  C   UNL     1     -10.979   6.505  69.299  1.00  0.00    -0.331 C  
HETATM    8  O   UNL     1     -10.012   8.684  69.007  1.00  0.00    -0.182 OA 
HETATM    9  O   UNL     1     -12.201   6.721  70.018  1.00  0.00    -0.641 OA 
HETATM   10  C   UNL     1     -10.450   5.107  69.607  1.00  0.00    -0.191 C  
HETATM   11  C   UNL     1      -9.703   5.049  70.944  1.00  0.00    -0.190 C  
HETATM   12  H   UNL     1     -12.814   6.025  69.814  1.00  0.00     0.000 HD 
HETATM   13  O   UNL     1      -9.666   4.588  68.531  1.00  0.00    -0.157 OA 
HETATM   14  H   UNL     1      -9.336   3.717  68.722  1.00  0.00     0.000 HD 
HETATM   15  O   UNL     1     -10.619   5.116  72.050  1.00  0.00    -0.218 OA 
HETATM   16  H   UNL     1     -11.235   4.400  71.943  1.00  0.00     0.000 HD 
ENDBRANCH   2   4
TORSDOF 1
ENDMDL
MODEL      191
REMARK 921   NORMALIZED FREE ENERGY PREDICTED BY IDOCK:   -2.16 KCAL/MOL
REMARK 922        TOTAL FREE ENERGY PREDICTED BY IDOCK:   -2.52 KCAL/MOL
REMARK 923 INTER-LIGAND FREE ENERGY PREDICTED BY IDOCK:   -2.27 KCAL/MOL
REMARK 924 INTRA-LIGAND FREE ENERGY PREDICTED BY IDOCK:   -0.26 KCAL/MOL
REMARK 927      BINDING AFFINITY PREDICTED BY RF-SCORE:    0.00 PKD
ROOT
HETATM    1  O   UNL     1      -6.525  11.231  65.923  1.00  0.00    -0.364 OA 
HETATM    2  C   UNL     1      -7.704  10.433  65.815  1.00  0.00    -0.146 C  
HETATM    3  H   UNL     1      -5.843  10.927  65.336  1.00  0.00     0.000 HD 
ENDROOT
BRANCH   2   4
HETATM    4  C   UNL     1      -8.806  10.924  66.763  1.00  0.00    -0.145 C  
HETATM    5  O   UNL     1      -9.652   9.797  67.087  1.00  0.00    -0.159 OA 
HETATM    6  C   UNL     1      -9.307   8.951  68.083  1.00  0.00    -0.142 C  
HETATM    7  C   UNL     1      -8.734   9.567  69.351  1.00  0.00    -0.165 C  
HETATM    8  O   UNL     1      -9.628   7.764  68.041  1.00  0.00    -0.146 OA 
HETATM    9  O   UNL     1      -9.809   9.996  70.198  1.00  0.00    -0.330 OA 
HETATM   10  C   UNL     1      -7.790  10.740  69.097  1.00  0.00    -0.142 C  
HETATM   11  C   UNL     1      -8.311  11.678  68.003  1.00  0.00    -0.148 C  
HETATM   12  H   UNL     1      -9.452  10.380  70.989  1.00  0.00     0.000 HD 
HETATM   13  O   UNL     1      -6.455  10.299  68.836  1.00  0.00    -0.050 OA 
HETATM   14  H   UNL     1      -5.867  11.029  68.678  1.00  0.00     0.000 HD 
HETATM   15  O   UNL     1      -9.413  12.467  68.482  1.00  0.00    -0.327 OA 
HETATM   16  H   UNL     1      -9.106  12.935  69.251  1.00  0.00     0.000 HD 
ENDBRANCH   2   4
TORSDOF 1
ENDMDL
MODEL      192
REMARK 921   NORMALIZED FREE ENERGY PREDICTED BY IDOCK:   -2.16 KCAL/MOL
REMARK 922        TOTAL FREE ENERGY PREDICTED BY IDOCK:   -2.51 KCAL/MOL
REMARK 923 INTER-LIGAND FREE ENERGY PREDICTED BY IDOCK:   -2.26 KCAL/MOL
REMARK 924 INTRA-LIGAND FREE ENERGY PREDICTED BY IDOCK:   -0.25 KCAL/MOL
REMARK 927      BINDING AFFINITY PREDICTED BY RF-SCORE:    0.00 PKD
ROOT
HETATM    1  O   UNL     1     -10.606   9.217  66.956  1.00  0.00    -0.253 OA 
HETATM    2  C   UNL     1      -9.363   9.537  67.581  1.00  0.00    -0.123 C  
HETATM    3  H   UNL     1     -11.053   9.996  66.648  1.00  0.00     0.000 HD 
ENDROOT
BRANCH   2   4
HETATM    4  C   UNL     1      -8.642   8.277  68.079  1.00  0.00    -0.132 C  
HETATM    5  O   UNL     1      -7.857   8.641  69.237  1.00  0.00    -0.096 OA 
HETATM    6  C   UNL     1      -8.428   8.680  70.462  1.00  0.00    -0.150 C  
HETATM    7  C   UNL     1      -9.404   7.565  70.810  1.00  0.00    -0.162 C  
HETATM    8  O   UNL     1      -8.025   9.464  71.321  1.00  0.00    -0.328 OA 
HETATM    9  O   UNL     1      -8.673   6.424  71.277  1.00  0.00    -0.134 OA 
HETATM   10  C   UNL     1     -10.307   7.150  69.651  1.00  0.00    -0.215 C  
HETATM   11  C   UNL     1      -9.545   7.062  68.324  1.00  0.00    -0.134 C  
HETATM   12  H   UNL     1      -9.282   5.727  71.494  1.00  0.00     0.000 HD 
HETATM   13  O   UNL     1     -11.463   7.985  69.553  1.00  0.00    -0.423 OA 
HETATM   14  H   UNL     1     -12.025   7.727  68.832  1.00  0.00     0.000 HD 
HETATM   15  O   UNL     1      -8.702   5.899  68.288  1.00  0.00    -0.113 OA 
HETATM   16  H   UNL     1      -9.262   5.146  68.440  1.00  0.00     0.000 HD 
ENDBRANCH   2   4
TORSDOF 1
ENDMDL
MODEL      193
REMARK 921   NORMALIZED FREE ENERGY PREDICTED BY IDOCK:   -2.13 KCAL/MOL
REMARK 922        TOTAL FREE ENERGY PREDICTED BY IDOCK:   -2.48 KCAL/MOL
REMARK 923 INTER-LIGAND FREE ENERGY PREDICTED BY IDOCK:   -2.44 KCAL/MOL
REMARK 924 INTRA-LIGAND FREE ENERGY PREDICTED BY IDOCK:   -0.04 KCAL/MOL
REMARK 927      BINDING AFFINITY PREDICTED BY RF-SCORE:    0.00 PKD
ROOT
HETATM    1  O   UNL     1     -11.728   6.817  69.312  1.00  0.00    -0.618 OA 
HETATM    2  C   UNL     1     -11.141   6.222  68.154  1.00  0.00    -0.266 C  
HETATM    3  H   UNL     1     -12.677   6.793  69.274  1.00  0.00     0.000 HD 
ENDROOT
BRANCH   2   4
HETATM    4  C   UNL     1      -9.608   6.262  68.216  1.00  0.00    -0.119 C  
HETATM    5  O   UNL     1      -9.099   5.247  67.321  1.00  0.00    -0.112 OA 
HETATM    6  C   UNL     1      -8.957   5.509  66.003  1.00  0.00    -0.152 C  
HETATM    7  C   UNL     1      -8.408   6.877  65.622  1.00  0.00    -0.146 C  
HETATM    8  O   UNL     1      -9.076   4.615  65.165  1.00  0.00    -0.148 OA 
HETATM    9  O   UNL     1      -6.976   6.848  65.688  1.00  0.00    -0.060 OA 
HETATM   10  C   UNL     1      -8.932   8.017  66.491  1.00  0.00    -0.157 C  
HETATM   11  C   UNL     1      -8.983   7.642  67.975  1.00  0.00    -0.126 C  
HETATM   12  H   UNL     1      -6.633   7.702  65.450  1.00  0.00     0.000 HD 
HETATM   13  O   UNL     1     -10.189   8.509  66.018  1.00  0.00    -0.426 OA 
HETATM   14  H   UNL     1     -10.516   9.219  66.558  1.00  0.00     0.000 HD 
HETATM   15  O   UNL     1      -7.663   7.608  68.544  1.00  0.00    -0.113 OA 
HETATM   16  H   UNL     1      -7.275   8.463  68.395  1.00  0.00     0.000 HD 
ENDBRANCH   2   4
TORSDOF 1
ENDMDL
MODEL      194
REMARK 921   NORMALIZED FREE ENERGY PREDICTED BY IDOCK:   -2.09 KCAL/MOL
REMARK 922        TOTAL FREE ENERGY PREDICTED BY IDOCK:   -2.45 KCAL/MOL
REMARK 923 INTER-LIGAND FREE ENERGY PREDICTED BY IDOCK:   -2.21 KCAL/MOL
REMARK 924 INTRA-LIGAND FREE ENERGY PREDICTED BY IDOCK:   -0.24 KCAL/MOL
REMARK 927      BINDING AFFINITY PREDICTED BY RF-SCORE:    0.00 PKD
ROOT
HETATM    1  O   UNL     1      -8.720   9.766  64.171  1.00  0.00    -0.180 OA 
HETATM    2  C   UNL     1      -9.471   9.666  65.381  1.00  0.00    -0.278 C  
HETATM    3  H   UNL     1      -9.190  10.257  63.507  1.00  0.00     0.000 HD 
ENDROOT
BRANCH   2   4
HETATM    4  C   UNL     1      -8.710   8.873  66.452  1.00  0.00    -0.129 C  
HETATM    5  O   UNL     1      -9.679   8.152  67.247  1.00  0.00    -0.154 OA 
HETATM    6  C   UNL     1     -10.146   6.954  66.830  1.00  0.00    -0.218 C  
HETATM    7  C   UNL     1      -9.139   5.991  66.218  1.00  0.00    -0.150 C  
HETATM    8  O   UNL     1     -11.285   6.587  67.116  1.00  0.00    -0.388 OA 
HETATM    9  O   UNL     1      -8.471   5.275  67.264  1.00  0.00    -0.107 OA 
HETATM   10  C   UNL     1      -8.103   6.666  65.323  1.00  0.00    -0.130 C  
HETATM   11  C   UNL     1      -7.583   7.977  65.922  1.00  0.00    -0.086 C  
HETATM   12  H   UNL     1      -7.842   4.673  66.882  1.00  0.00     0.000 HD 
HETATM   13  O   UNL     1      -8.587   6.840  63.989  1.00  0.00    -0.325 OA 
HETATM   14  H   UNL     1      -7.942   7.260  63.432  1.00  0.00     0.000 HD 
HETATM   15  O   UNL     1      -6.696   7.724  67.024  1.00  0.00    -0.064 OA 
HETATM   16  H   UNL     1      -5.998   7.169  66.696  1.00  0.00     0.000 HD 
ENDBRANCH   2   4
TORSDOF 1
ENDMDL
MODEL      195
REMARK 921   NORMALIZED FREE ENERGY PREDICTED BY IDOCK:   -2.09 KCAL/MOL
REMARK 922        TOTAL FREE ENERGY PREDICTED BY IDOCK:   -2.45 KCAL/MOL
REMARK 923 INTER-LIGAND FREE ENERGY PREDICTED BY IDOCK:   -2.19 KCAL/MOL
REMARK 924 INTRA-LIGAND FREE ENERGY PREDICTED BY IDOCK:   -0.25 KCAL/MOL
REMARK 927      BINDING AFFINITY PREDICTED BY RF-SCORE:    0.00 PKD
ROOT
HETATM    1  O   UNL     1     -10.992  12.180  65.976  1.00  0.00    -0.271 OA 
HETATM    2  C   UNL     1     -10.016  11.676  65.065  1.00  0.00    -0.259 C  
HETATM    3  H   UNL     1     -11.151  13.107  65.841  1.00  0.00     0.000 HD 
ENDROOT
BRANCH   2   4
HETATM    4  C   UNL     1      -9.760  10.179  65.283  1.00  0.00    -0.300 C  
HETATM    5  O   UNL     1      -8.428   9.880  64.808  1.00  0.00    -0.150 OA 
HETATM    6  C   UNL     1      -7.358  10.081  65.609  1.00  0.00    -0.127 C  
HETATM    7  C   UNL     1      -7.501   9.687  67.072  1.00  0.00    -0.091 C  
HETATM    8  O   UNL     1      -6.262  10.378  65.134  1.00  0.00    -0.122 OA 
HETATM    9  O   UNL     1      -7.240   8.284  67.213  1.00  0.00    -0.081 OA 
HETATM   10  C   UNL     1      -8.868  10.012  67.669  1.00  0.00    -0.121 C  
HETATM   11  C   UNL     1     -10.015   9.676  66.710  1.00  0.00    -0.227 C  
HETATM   12  H   UNL     1      -7.329   8.038  68.126  1.00  0.00     0.000 HD 
HETATM   13  O   UNL     1      -8.935  11.361  68.137  1.00  0.00    -0.156 OA 
HETATM   14  H   UNL     1      -9.786  11.563  68.508  1.00  0.00     0.000 HD 
HETATM   15  O   UNL     1     -10.217   8.256  66.624  1.00  0.00    -0.290 OA 
HETATM   16  H   UNL     1     -10.375   7.944  67.508  1.00  0.00     0.000 HD 
ENDBRANCH   2   4
TORSDOF 1
ENDMDL
MODEL      196
REMARK 921   NORMALIZED FREE ENERGY PREDICTED BY IDOCK:   -2.06 KCAL/MOL
REMARK 922        TOTAL FREE ENERGY PREDICTED BY IDOCK:   -2.42 KCAL/MOL
REMARK 923 INTER-LIGAND FREE ENERGY PREDICTED BY IDOCK:   -2.18 KCAL/MOL
REMARK 924 INTRA-LIGAND FREE ENERGY PREDICTED BY IDOCK:   -0.24 KCAL/MOL
REMARK 927      BINDING AFFINITY PREDICTED BY RF-SCORE:    0.00 PKD
ROOT
HETATM    1  O   UNL     1      -6.350   7.494  69.609  1.00  0.00    -0.030 OA 
HETATM    2  C   UNL     1      -7.061   8.439  68.809  1.00  0.00    -0.068 C  
HETATM    3  H   UNL     1      -5.413   7.547  69.462  1.00  0.00     0.000 HD 
ENDROOT
BRANCH   2   4
HETATM    4  C   UNL     1      -8.574   8.353  69.047  1.00  0.00    -0.131 C  
HETATM    5  O   UNL     1      -9.240   8.914  67.892  1.00  0.00    -0.138 OA 
HETATM    6  C   UNL     1      -9.466   8.151  66.799  1.00  0.00    -0.198 C  
HETATM    7  C   UNL     1      -9.925   6.720  67.034  1.00  0.00    -0.177 C  
HETATM    8  O   UNL     1      -9.493   8.653  65.676  1.00  0.00    -0.170 OA 
HETATM    9  O   UNL     1     -11.344   6.704  67.238  1.00  0.00    -0.716 OA 
HETATM   10  C   UNL     1      -9.236   6.034  68.211  1.00  0.00    -0.117 C  
HETATM   11  C   UNL     1      -9.097   6.961  69.423  1.00  0.00    -0.141 C  
HETATM   12  H   UNL     1     -11.631   5.810  67.385  1.00  0.00     0.000 HD 
HETATM   13  O   UNL     1      -7.985   5.457  67.830  1.00  0.00    -0.095 OA 
HETATM   14  H   UNL     1      -7.555   5.030  68.563  1.00  0.00     0.000 HD 
HETATM   15  O   UNL     1     -10.364   7.151  70.075  1.00  0.00    -0.199 OA 
HETATM   16  H   UNL     1     -10.688   6.289  70.308  1.00  0.00     0.000 HD 
ENDBRANCH   2   4
TORSDOF 1
ENDMDL
MODEL      197
REMARK 921   NORMALIZED FREE ENERGY PREDICTED BY IDOCK:   -2.06 KCAL/MOL
REMARK 922        TOTAL FREE ENERGY PREDICTED BY IDOCK:   -2.41 KCAL/MOL
REMARK 923 INTER-LIGAND FREE ENERGY PREDICTED BY IDOCK:   -2.32 KCAL/MOL
REMARK 924 INTRA-LIGAND FREE ENERGY PREDICTED BY IDOCK:   -0.09 KCAL/MOL
REMARK 927      BINDING AFFINITY PREDICTED BY RF-SCORE:    0.00 PKD
ROOT
HETATM    1  O   UNL     1      -7.723   3.546  63.948  1.00  0.00    -0.076 OA 
HETATM    2  C   UNL     1      -7.718   4.853  64.523  1.00  0.00    -0.083 C  
HETATM    3  H   UNL     1      -7.545   3.574  63.016  1.00  0.00     0.000 HD 
ENDROOT
BRANCH   2   4
HETATM    4  C   UNL     1      -8.005   4.806  66.030  1.00  0.00    -0.103 C  
HETATM    5  O   UNL     1      -8.184   6.165  66.492  1.00  0.00    -0.108 OA 
HETATM    6  C   UNL     1      -9.387   6.770  66.380  1.00  0.00    -0.136 C  
HETATM    7  C   UNL     1     -10.618   5.933  66.700  1.00  0.00    -0.264 C  
HETATM    8  O   UNL     1      -9.469   7.987  66.223  1.00  0.00    -0.204 OA 
HETATM    9  O   UNL     1     -10.839   5.937  68.117  1.00  0.00    -0.271 OA 
HETATM   10  C   UNL     1     -10.532   4.492  66.204  1.00  0.00    -0.159 C  
HETATM   11  C   UNL     1      -9.150   3.875  66.447  1.00  0.00    -0.147 C  
HETATM   12  H   UNL     1     -11.608   5.415  68.316  1.00  0.00     0.000 HD 
HETATM   13  O   UNL     1     -10.940   4.375  64.839  1.00  0.00    -0.653 OA 
HETATM   14  H   UNL     1     -10.886   3.478  64.530  1.00  0.00     0.000 HD 
HETATM   15  O   UNL     1      -8.958   3.572  67.839  1.00  0.00    -0.113 OA 
HETATM   16  H   UNL     1      -9.668   2.995  68.098  1.00  0.00     0.000 HD 
ENDBRANCH   2   4
TORSDOF 1
ENDMDL
MODEL      198
REMARK 921   NORMALIZED FREE ENERGY PREDICTED BY IDOCK:   -2.06 KCAL/MOL
REMARK 922        TOTAL FREE ENERGY PREDICTED BY IDOCK:   -2.41 KCAL/MOL
REMARK 923 INTER-LIGAND FREE ENERGY PREDICTED BY IDOCK:   -2.39 KCAL/MOL
REMARK 924 INTRA-LIGAND FREE ENERGY PREDICTED BY IDOCK:   -0.02 KCAL/MOL
REMARK 927      BINDING AFFINITY PREDICTED BY RF-SCORE:    0.00 PKD
ROOT
HETATM    1  O   UNL     1     -10.750   4.388  73.432  1.00  0.00    -0.191 OA 
HETATM    2  C   UNL     1      -9.949   5.257  72.631  1.00  0.00    -0.163 C  
HETATM    3  H   UNL     1     -10.519   3.477  73.296  1.00  0.00     0.000 HD 
ENDROOT
BRANCH   2   4
HETATM    4  C   UNL     1     -10.323   6.730  72.850  1.00  0.00    -0.221 C  
HETATM    5  O   UNL     1      -9.098   7.483  73.001  1.00  0.00    -0.144 OA 
HETATM    6  C   UNL     1      -8.426   7.917  71.912  1.00  0.00    -0.122 C  
HETATM    7  C   UNL     1      -9.253   8.472  70.761  1.00  0.00    -0.172 C  
HETATM    8  O   UNL     1      -7.202   8.041  71.934  1.00  0.00    -0.068 OA 
HETATM    9  O   UNL     1      -9.560   9.848  71.017  1.00  0.00    -0.273 OA 
HETATM   10  C   UNL     1     -10.546   7.703  70.501  1.00  0.00    -0.226 C  
HETATM   11  C   UNL     1     -11.268   7.325  71.799  1.00  0.00    -0.247 C  
HETATM   12  H   UNL     1     -10.076  10.195  70.299  1.00  0.00     0.000 HD 
HETATM   13  O   UNL     1     -10.329   6.569  69.658  1.00  0.00    -0.178 OA 
HETATM   14  H   UNL     1     -11.134   6.090  69.496  1.00  0.00     0.000 HD 
HETATM   15  O   UNL     1     -11.888   8.476  72.397  1.00  0.00    -0.380 OA 
HETATM   16  H   UNL     1     -12.474   8.845  71.746  1.00  0.00     0.000 HD 
ENDBRANCH   2   4
TORSDOF 1
ENDMDL
MODEL      199
REMARK 921   NORMALIZED FREE ENERGY PREDICTED BY IDOCK:   -2.05 KCAL/MOL
REMARK 922        TOTAL FREE ENERGY PREDICTED BY IDOCK:   -2.41 KCAL/MOL
REMARK 923 INTER-LIGAND FREE ENERGY PREDICTED BY IDOCK:   -2.38 KCAL/MOL
REMARK 924 INTRA-LIGAND FREE ENERGY PREDICTED BY IDOCK:   -0.02 KCAL/MOL
REMARK 927      BINDING AFFINITY PREDICTED BY RF-SCORE:    0.00 PKD
ROOT
HETATM    1  O   UNL     1      -8.921   8.106  64.887  1.00  0.00    -0.392 OA 
HETATM    2  C   UNL     1      -9.239   8.853  66.061  1.00  0.00    -0.228 C  
HETATM    3  H   UNL     1      -9.374   8.446  64.124  1.00  0.00     0.000 HD 
ENDROOT
BRANCH   2   4
HETATM    4  C   UNL     1      -8.507   8.305  67.293  1.00  0.00    -0.124 C  
HETATM    5  O   UNL     1      -7.553   9.302  67.726  1.00  0.00    -0.084 OA 
HETATM    6  C   UNL     1      -7.945  10.315  68.530  1.00  0.00    -0.107 C  
HETATM    7  C   UNL     1      -8.907   9.974  69.659  1.00  0.00    -0.199 C  
HETATM    8  O   UNL     1      -7.394  11.414  68.473  1.00  0.00    -0.091 OA 
HETATM    9  O   UNL     1      -8.164   9.479  70.782  1.00  0.00    -0.251 OA 
HETATM   10  C   UNL     1      -9.979   8.959  69.273  1.00  0.00    -0.192 C  
HETATM   11  C   UNL     1      -9.416   7.812  68.426  1.00  0.00    -0.147 C  
HETATM   12  H   UNL     1      -8.765   9.266  71.487  1.00  0.00     0.000 HD 
HETATM   13  O   UNL     1     -11.103   9.586  68.649  1.00  0.00    -0.437 OA 
HETATM   14  H   UNL     1     -11.770   8.954  68.408  1.00  0.00     0.000 HD 
HETATM   15  O   UNL     1      -8.634   6.914  69.231  1.00  0.00    -0.131 OA 
HETATM   16  H   UNL     1      -9.197   6.608  69.933  1.00  0.00     0.000 HD 
ENDBRANCH   2   4
TORSDOF 1
ENDMDL
MODEL      200
REMARK 921   NORMALIZED FREE ENERGY PREDICTED BY IDOCK:   -2.04 KCAL/MOL
REMARK 922        TOTAL FREE ENERGY PREDICTED BY IDOCK:   -2.40 KCAL/MOL
REMARK 923 INTER-LIGAND FREE ENERGY PREDICTED BY IDOCK:   -2.34 KCAL/MOL
REMARK 924 INTRA-LIGAND FREE ENERGY PREDICTED BY IDOCK:   -0.05 KCAL/MOL
REMARK 927      BINDING AFFINITY PREDICTED BY RF-SCORE:    0.00 PKD
ROOT
HETATM    1  O   UNL     1      -7.685   7.288  66.282  1.00  0.00    -0.092 OA 
HETATM    2  C   UNL     1      -8.320   7.601  67.522  1.00  0.00    -0.120 C  
HETATM    3  H   UNL     1      -7.960   6.441  65.953  1.00  0.00     0.000 HD 
ENDROOT
BRANCH   2   4
HETATM    4  C   UNL     1      -7.876   8.970  68.053  1.00  0.00    -0.101 C  
HETATM    5  O   UNL     1      -8.176   9.960  67.043  1.00  0.00    -0.116 OA 
HETATM    6  C   UNL     1      -9.412  10.500  66.965  1.00  0.00    -0.163 C  
HETATM    7  C   UNL     1     -10.101  10.853  68.276  1.00  0.00    -0.174 C  
HETATM    8  O   UNL     1      -9.870  10.872  65.885  1.00  0.00    -0.216 OA 
HETATM    9  O   UNL     1      -9.654  12.143  68.714  1.00  0.00    -0.384 OA 
HETATM   10  C   UNL     1      -9.873   9.832  69.388  1.00  0.00    -0.205 C  
HETATM   11  C   UNL     1      -8.423   9.340  69.438  1.00  0.00    -0.137 C  
HETATM   12  H   UNL     1     -10.083  12.363  69.533  1.00  0.00     0.000 HD 
HETATM   13  O   UNL     1     -10.805   8.750  69.314  1.00  0.00    -0.361 OA 
HETATM   14  H   UNL     1     -10.664   8.115  70.006  1.00  0.00     0.000 HD 
HETATM   15  O   UNL     1      -7.554  10.351  69.975  1.00  0.00    -0.273 OA 
HETATM   16  H   UNL     1      -7.892  10.581  70.833  1.00  0.00     0.000 HD 
ENDBRANCH   2   4
TORSDOF 1
ENDMDL
MODEL      201
REMARK 921   NORMALIZED FREE ENERGY PREDICTED BY IDOCK:   -1.97 KCAL/MOL
REMARK 922        TOTAL FREE ENERGY PREDICTED BY IDOCK:   -2.32 KCAL/MOL
REMARK 923 INTER-LIGAND FREE ENERGY PREDICTED BY IDOCK:   -2.23 KCAL/MOL
REMARK 924 INTRA-LIGAND FREE ENERGY PREDICTED BY IDOCK:   -0.09 KCAL/MOL
REMARK 927      BINDING AFFINITY PREDICTED BY RF-SCORE:    0.00 PKD
ROOT
HETATM    1  O   UNL     1      -6.716   5.178  69.865  1.00  0.00    -0.038 OA 
HETATM    2  C   UNL     1      -6.926   5.423  68.475  1.00  0.00    -0.061 C  
HETATM    3  H   UNL     1      -6.080   4.486  70.006  1.00  0.00     0.000 HD 
ENDROOT
BRANCH   2   4
HETATM    4  C   UNL     1      -7.954   6.540  68.248  1.00  0.00    -0.110 C  
HETATM    5  O   UNL     1      -8.228   6.613  66.831  1.00  0.00    -0.111 OA 
HETATM    6  C   UNL     1      -9.143   5.791  66.270  1.00  0.00    -0.147 C  
HETATM    7  C   UNL     1     -10.428   5.549  67.048  1.00  0.00    -0.274 C  
HETATM    8  O   UNL     1      -9.026   5.421  65.103  1.00  0.00    -0.147 OA 
HETATM    9  O   UNL     1     -11.349   6.617  66.788  1.00  0.00    -0.745 OA 
HETATM   10  C   UNL     1     -10.223   5.412  68.555  1.00  0.00    -0.169 C  
HETATM   11  C   UNL     1      -9.225   6.439  69.101  1.00  0.00    -0.133 C  
HETATM   12  H   UNL     1     -12.151   6.466  67.274  1.00  0.00     0.000 HD 
HETATM   13  O   UNL     1      -9.874   4.075  68.923  1.00  0.00    -0.129 OA 
HETATM   14  H   UNL     1      -9.746   3.990  69.861  1.00  0.00     0.000 HD 
HETATM   15  O   UNL     1      -9.807   7.752  69.143  1.00  0.00    -0.167 OA 
HETATM   16  H   UNL     1     -10.595   7.690  69.671  1.00  0.00     0.000 HD 
ENDBRANCH   2   4
TORSDOF 1
ENDMDL
MODEL      202
REMARK 921   NORMALIZED FREE ENERGY PREDICTED BY IDOCK:   -1.94 KCAL/MOL
REMARK 922        TOTAL FREE ENERGY PREDICTED BY IDOCK:   -2.29 KCAL/MOL
REMARK 923 INTER-LIGAND FREE ENERGY PREDICTED BY IDOCK:   -2.25 KCAL/MOL
REMARK 924 INTRA-LIGAND FREE ENERGY PREDICTED BY IDOCK:   -0.04 KCAL/MOL
REMARK 927      BINDING AFFINITY PREDICTED BY RF-SCORE:    0.00 PKD
ROOT
HETATM    1  O   UNL     1     -11.460   6.621  68.512  1.00  0.00    -0.576 OA 
HETATM    2  C   UNL     1     -10.611   7.696  68.912  1.00  0.00    -0.159 C  
HETATM    3  H   UNL     1     -11.753   6.723  67.614  1.00  0.00     0.000 HD 
ENDROOT
BRANCH   2   4
HETATM    4  C   UNL     1     -10.139   7.531  70.363  1.00  0.00    -0.196 C  
HETATM    5  O   UNL     1      -9.053   6.577  70.373  1.00  0.00    -0.154 OA 
HETATM    6  C   UNL     1      -7.790   6.979  70.109  1.00  0.00    -0.109 C  
HETATM    7  C   UNL     1      -7.340   8.300  70.716  1.00  0.00    -0.056 C  
HETATM    8  O   UNL     1      -6.985   6.217  69.575  1.00  0.00    -0.066 OA 
HETATM    9  O   UNL     1      -6.902   8.080  72.063  1.00  0.00    -0.061 OA 
HETATM   10  C   UNL     1      -8.416   9.384  70.703  1.00  0.00    -0.193 C  
HETATM   11  C   UNL     1      -9.795   8.838  71.089  1.00  0.00    -0.244 C  
HETATM   12  H   UNL     1      -6.622   8.905  72.441  1.00  0.00     0.000 HD 
HETATM   13  O   UNL     1      -8.446  10.088  69.459  1.00  0.00    -0.150 OA 
HETATM   14  H   UNL     1      -9.115  10.762  69.451  1.00  0.00     0.000 HD 
HETATM   15  O   UNL     1      -9.866   8.566  72.499  1.00  0.00    -0.290 OA 
HETATM   16  H   UNL     1      -9.653   9.375  72.949  1.00  0.00     0.000 HD 
ENDBRANCH   2   4
TORSDOF 1
ENDMDL
MODEL      203
REMARK 921   NORMALIZED FREE ENERGY PREDICTED BY IDOCK:   -1.94 KCAL/MOL
REMARK 922        TOTAL FREE ENERGY PREDICTED BY IDOCK:   -2.28 KCAL/MOL
REMARK 923 INTER-LIGAND FREE ENERGY PREDICTED BY IDOCK:   -2.26 KCAL/MOL
REMARK 924 INTRA-LIGAND FREE ENERGY PREDICTED BY IDOCK:   -0.02 KCAL/MOL
REMARK 927      BINDING AFFINITY PREDICTED BY RF-SCORE:    0.00 PKD
ROOT
HETATM    1  O   UNL     1      -7.164   6.933  63.847  1.00  0.00    -0.056 OA 
HETATM    2  C   UNL     1      -8.072   6.501  64.861  1.00  0.00    -0.119 C  
HETATM    3  H   UNL     1      -7.164   7.878  63.757  1.00  0.00     0.000 HD 
ENDROOT
BRANCH   2   4
HETATM    4  C   UNL     1      -8.071   4.973  65.005  1.00  0.00    -0.113 C  
HETATM    5  O   UNL     1      -7.550   4.649  66.314  1.00  0.00    -0.088 OA 
HETATM    6  C   UNL     1      -8.366   4.654  67.393  1.00  0.00    -0.104 C  
HETATM    7  C   UNL     1      -9.757   4.065  67.214  1.00  0.00    -0.153 C  
HETATM    8  O   UNL     1      -7.932   4.936  68.509  1.00  0.00    -0.084 OA 
HETATM    9  O   UNL     1      -9.694   2.641  67.370  1.00  0.00    -0.392 OA 
HETATM   10  C   UNL     1     -10.403   4.399  65.871  1.00  0.00    -0.204 C  
HETATM   11  C   UNL     1      -9.412   4.290  64.707  1.00  0.00    -0.167 C  
HETATM   12  H   UNL     1     -10.562   2.273  67.259  1.00  0.00     0.000 HD 
HETATM   13  O   UNL     1     -11.061   5.668  65.900  1.00  0.00    -0.671 OA 
HETATM   14  H   UNL     1     -11.462   5.876  65.065  1.00  0.00     0.000 HD 
HETATM   15  O   UNL     1      -9.123   2.916  64.402  1.00  0.00    -0.110 OA 
HETATM   16  H   UNL     1      -9.954   2.492  64.218  1.00  0.00     0.000 HD 
ENDBRANCH   2   4
TORSDOF 1
ENDMDL
MODEL      204
REMARK 921   NORMALIZED FREE ENERGY PREDICTED BY IDOCK:   -1.92 KCAL/MOL
REMARK 922        TOTAL FREE ENERGY PREDICTED BY IDOCK:   -2.27 KCAL/MOL
REMARK 923 INTER-LIGAND FREE ENERGY PREDICTED BY IDOCK:   -2.02 KCAL/MOL
REMARK 924 INTRA-LIGAND FREE ENERGY PREDICTED BY IDOCK:   -0.25 KCAL/MOL
REMARK 927      BINDING AFFINITY PREDICTED BY RF-SCORE:    0.00 PKD
ROOT
HETATM    1  O   UNL     1      -6.580  11.194  66.002  1.00  0.00    -0.313 OA 
HETATM    2  C   UNL     1      -6.622  10.151  65.028  1.00  0.00    -0.128 C  
HETATM    3  H   UNL     1      -5.703  11.545  66.101  1.00  0.00     0.000 HD 
ENDROOT
BRANCH   2   4
HETATM    4  C   UNL     1      -8.039   9.584  64.870  1.00  0.00    -0.131 C  
HETATM    5  O   UNL     1      -7.927   8.241  64.348  1.00  0.00    -0.132 OA 
HETATM    6  C   UNL     1      -7.709   7.201  65.183  1.00  0.00    -0.116 C  
HETATM    7  C   UNL     1      -8.471   7.196  66.501  1.00  0.00    -0.125 C  
HETATM    8  O   UNL     1      -7.081   6.211  64.808  1.00  0.00    -0.056 OA 
HETATM    9  O   UNL     1      -9.779   6.648  66.291  1.00  0.00    -0.346 OA 
HETATM   10  C   UNL     1      -8.596   8.574  67.147  1.00  0.00    -0.122 C  
HETATM   11  C   UNL     1      -8.919   9.668  66.124  1.00  0.00    -0.154 C  
HETATM   12  H   UNL     1     -10.254   6.645  67.114  1.00  0.00     0.000 HD 
HETATM   13  O   UNL     1      -7.448   8.897  67.935  1.00  0.00    -0.090 OA 
HETATM   14  H   UNL     1      -7.526   9.754  68.338  1.00  0.00     0.000 HD 
HETATM   15  O   UNL     1     -10.284   9.578  65.685  1.00  0.00    -0.307 OA 
HETATM   16  H   UNL     1     -10.829   9.630  66.462  1.00  0.00     0.000 HD 
ENDBRANCH   2   4
TORSDOF 1
ENDMDL
MODEL      205
REMARK 921   NORMALIZED FREE ENERGY PREDICTED BY IDOCK:   -1.87 KCAL/MOL
REMARK 922        TOTAL FREE ENERGY PREDICTED BY IDOCK:   -2.21 KCAL/MOL
REMARK 923 INTER-LIGAND FREE ENERGY PREDICTED BY IDOCK:   -2.19 KCAL/MOL
REMARK 924 INTRA-LIGAND FREE ENERGY PREDICTED BY IDOCK:   -0.02 KCAL/MOL
REMARK 927      BINDING AFFINITY PREDICTED BY RF-SCORE:    0.00 PKD
ROOT
HETATM    1  O   UNL     1      -5.835   3.654  67.903  1.00  0.00    -0.024 OA 
HETATM    2  C   UNL     1      -6.934   4.548  68.083  1.00  0.00    -0.056 C  
HETATM    3  H   UNL     1      -5.084   3.916  68.422  1.00  0.00     0.000 HD 
ENDROOT
BRANCH   2   4
HETATM    4  C   UNL     1      -8.148   4.125  67.245  1.00  0.00    -0.099 C  
HETATM    5  O   UNL     1      -9.313   4.150  68.101  1.00  0.00    -0.137 OA 
HETATM    6  C   UNL     1      -9.981   5.306  68.309  1.00  0.00    -0.156 C  
HETATM    7  C   UNL     1     -10.187   6.215  67.106  1.00  0.00    -0.199 C  
HETATM    8  O   UNL     1     -10.566   5.514  69.372  1.00  0.00    -0.284 OA 
HETATM    9  O   UNL     1     -11.337   5.777  66.371  1.00  0.00    -0.723 OA 
HETATM   10  C   UNL     1      -8.983   6.284  66.170  1.00  0.00    -0.153 C  
HETATM   11  C   UNL     1      -8.345   4.909  65.942  1.00  0.00    -0.114 C  
HETATM   12  H   UNL     1     -11.466   6.345  65.620  1.00  0.00     0.000 HD 
HETATM   13  O   UNL     1      -8.027   7.254  66.605  1.00  0.00    -0.109 OA 
HETATM   14  H   UNL     1      -7.278   7.297  66.022  1.00  0.00     0.000 HD 
HETATM   15  O   UNL     1      -9.163   4.097  65.083  1.00  0.00    -0.135 OA 
HETATM   16  H   UNL     1      -9.286   4.583  64.276  1.00  0.00     0.000 HD 
ENDBRANCH   2   4
TORSDOF 1
ENDMDL
MODEL      206
REMARK 921   NORMALIZED FREE ENERGY PREDICTED BY IDOCK:   -1.87 KCAL/MOL
REMARK 922        TOTAL FREE ENERGY PREDICTED BY IDOCK:   -2.21 KCAL/MOL
REMARK 923 INTER-LIGAND FREE ENERGY PREDICTED BY IDOCK:   -2.48 KCAL/MOL
REMARK 924 INTRA-LIGAND FREE ENERGY PREDICTED BY IDOCK:    0.27 KCAL/MOL
REMARK 927      BINDING AFFINITY PREDICTED BY RF-SCORE:    0.00 PKD
ROOT
HETATM    1  O   UNL     1      -7.269  10.475  64.011  1.00  0.00    -0.328 OA 
HETATM    2  C   UNL     1      -6.389  10.272  65.116  1.00  0.00    -0.123 C  
HETATM    3  H   UNL     1      -6.791  10.558  63.194  1.00  0.00     0.000 HD 
ENDROOT
BRANCH   2   4
HETATM    4  C   UNL     1      -7.162  10.137  66.435  1.00  0.00    -0.108 C  
HETATM    5  O   UNL     1      -8.080  11.250  66.530  1.00  0.00    -0.163 OA 
HETATM    6  C   UNL     1      -9.289  11.188  65.928  1.00  0.00    -0.212 C  
HETATM    7  C   UNL     1     -10.042   9.869  66.014  1.00  0.00    -0.244 C  
HETATM    8  O   UNL     1      -9.836  12.207  65.507  1.00  0.00    -0.242 OA 
HETATM    9  O   UNL     1     -10.750   9.807  67.259  1.00  0.00    -0.264 OA 
HETATM   10  C   UNL     1      -9.150   8.637  65.877  1.00  0.00    -0.205 C  
HETATM   11  C   UNL     1      -7.839   8.779  66.658  1.00  0.00    -0.100 C  
HETATM   12  H   UNL     1     -11.220   8.983  67.314  1.00  0.00     0.000 HD 
HETATM   13  O   UNL     1      -8.925   8.296  64.507  1.00  0.00    -0.384 OA 
HETATM   14  H   UNL     1      -8.369   7.529  64.421  1.00  0.00     0.000 HD 
HETATM   15  O   UNL     1      -8.065   8.650  68.071  1.00  0.00    -0.109 OA 
HETATM   16  H   UNL     1      -8.485   7.809  68.210  1.00  0.00     0.000 HD 
ENDBRANCH   2   4
TORSDOF 1
ENDMDL
MODEL      207
REMARK 921   NORMALIZED FREE ENERGY PREDICTED BY IDOCK:   -1.87 KCAL/MOL
REMARK 922        TOTAL FREE ENERGY PREDICTED BY IDOCK:   -2.21 KCAL/MOL
REMARK 923 INTER-LIGAND FREE ENERGY PREDICTED BY IDOCK:   -1.99 KCAL/MOL
REMARK 924 INTRA-LIGAND FREE ENERGY PREDICTED BY IDOCK:   -0.22 KCAL/MOL
REMARK 927      BINDING AFFINITY PREDICTED BY RF-SCORE:    0.00 PKD
ROOT
HETATM    1  O   UNL     1     -11.117   6.430  72.900  1.00  0.00    -0.262 OA 
HETATM    2  C   UNL     1     -11.437   6.595  71.518  1.00  0.00    -0.297 C  
HETATM    3  H   UNL     1     -11.599   7.041  73.445  1.00  0.00     0.000 HD 
ENDROOT
BRANCH   2   4
HETATM    4  C   UNL     1     -10.658   5.609  70.637  1.00  0.00    -0.277 C  
HETATM    5  O   UNL     1     -10.314   6.285  69.407  1.00  0.00    -0.184 OA 
HETATM    6  C   UNL     1      -9.210   7.063  69.342  1.00  0.00    -0.147 C  
HETATM    7  C   UNL     1      -7.956   6.550  70.034  1.00  0.00    -0.116 C  
HETATM    8  O   UNL     1      -9.170   8.038  68.592  1.00  0.00    -0.143 OA 
HETATM    9  O   UNL     1      -7.269   5.644  69.161  1.00  0.00    -0.066 OA 
HETATM   10  C   UNL     1      -8.226   5.860  71.370  1.00  0.00    -0.123 C  
HETATM   11  C   UNL     1      -9.452   4.944  71.313  1.00  0.00    -0.156 C  
HETATM   12  H   UNL     1      -6.486   5.324  69.593  1.00  0.00     0.000 HD 
HETATM   13  O   UNL     1      -8.305   6.799  72.445  1.00  0.00    -0.109 OA 
HETATM   14  H   UNL     1      -8.473   6.370  73.276  1.00  0.00     0.000 HD 
HETATM   15  O   UNL     1      -9.166   3.744  70.575  1.00  0.00    -0.111 OA 
HETATM   16  H   UNL     1      -8.419   3.332  70.993  1.00  0.00     0.000 HD 
ENDBRANCH   2   4
TORSDOF 1
ENDMDL
MODEL      208
REMARK 921   NORMALIZED FREE ENERGY PREDICTED BY IDOCK:   -1.83 KCAL/MOL
REMARK 922        TOTAL FREE ENERGY PREDICTED BY IDOCK:   -2.17 KCAL/MOL
REMARK 923 INTER-LIGAND FREE ENERGY PREDICTED BY IDOCK:   -2.15 KCAL/MOL
REMARK 924 INTRA-LIGAND FREE ENERGY PREDICTED BY IDOCK:   -0.02 KCAL/MOL
REMARK 927      BINDING AFFINITY PREDICTED BY RF-SCORE:    0.00 PKD
ROOT
HETATM    1  O   UNL     1      -7.873  12.037  67.916  1.00  0.00    -0.124 OA 
HETATM    2  C   UNL     1      -8.387  10.849  68.517  1.00  0.00    -0.142 C  
HETATM    3  H   UNL     1      -7.904  12.773  68.516  1.00  0.00     0.000 HD 
ENDROOT
BRANCH   2   4
HETATM    4  C   UNL     1      -8.336   9.659  67.549  1.00  0.00    -0.118 C  
HETATM    5  O   UNL     1      -7.599   8.593  68.191  1.00  0.00    -0.095 OA 
HETATM    6  C   UNL     1      -8.225   7.749  69.041  1.00  0.00    -0.126 C  
HETATM    7  C   UNL     1      -9.616   7.273  68.650  1.00  0.00    -0.141 C  
HETATM    8  O   UNL     1      -7.617   7.236  69.981  1.00  0.00    -0.086 OA 
HETATM    9  O   UNL     1      -9.502   6.157  67.756  1.00  0.00    -0.117 OA 
HETATM   10  C   UNL     1     -10.481   8.353  68.005  1.00  0.00    -0.184 C  
HETATM   11  C   UNL     1      -9.695   9.205  67.002  1.00  0.00    -0.188 C  
HETATM   12  H   UNL     1     -10.371   5.860  67.511  1.00  0.00     0.000 HD 
HETATM   13  O   UNL     1     -11.147   9.154  68.984  1.00  0.00    -0.436 OA 
HETATM   14  H   UNL     1     -11.685   9.826  68.583  1.00  0.00     0.000 HD 
HETATM   15  O   UNL     1      -9.436   8.471  65.794  1.00  0.00    -0.390 OA 
HETATM   16  H   UNL     1     -10.278   8.189  65.454  1.00  0.00     0.000 HD 
ENDBRANCH   2   4
TORSDOF 1
ENDMDL
MODEL      209
REMARK 921   NORMALIZED FREE ENERGY PREDICTED BY IDOCK:   -1.83 KCAL/MOL
REMARK 922        TOTAL FREE ENERGY PREDICTED BY IDOCK:   -2.17 KCAL/MOL
REMARK 923 INTER-LIGAND FREE ENERGY PREDICTED BY IDOCK:   -1.91 KCAL/MOL
REMARK 924 INTRA-LIGAND FREE ENERGY PREDICTED BY IDOCK:   -0.25 KCAL/MOL
REMARK 927      BINDING AFFINITY PREDICTED BY RF-SCORE:    0.00 PKD
ROOT
HETATM    1  O   UNL     1      -6.717   6.521  63.875  1.00  0.00    -0.042 OA 
HETATM    2  C   UNL     1      -7.257   6.128  65.136  1.00  0.00    -0.070 C  
HETATM    3  H   UNL     1      -6.522   7.450  63.852  1.00  0.00     0.000 HD 
ENDROOT
BRANCH   2   4
HETATM    4  C   UNL     1      -7.572   4.626  65.172  1.00  0.00    -0.077 C  
HETATM    5  O   UNL     1      -8.636   4.416  66.128  1.00  0.00    -0.113 OA 
HETATM    6  C   UNL     1      -9.926   4.579  65.760  1.00  0.00    -0.239 C  
HETATM    7  C   UNL     1     -10.330   4.049  64.391  1.00  0.00    -0.201 C  
HETATM    8  O   UNL     1     -10.771   4.954  66.572  1.00  0.00    -0.253 OA 
HETATM    9  O   UNL     1     -10.620   2.649  64.491  1.00  0.00    -0.341 OA 
HETATM   10  C   UNL     1      -9.278   4.273  63.307  1.00  0.00    -0.139 C  
HETATM   11  C   UNL     1      -7.858   3.988  63.807  1.00  0.00    -0.083 C  
HETATM   12  H   UNL     1     -10.872   2.318  63.637  1.00  0.00     0.000 HD 
HETATM   13  O   UNL     1      -9.391   5.571  62.719  1.00  0.00    -0.289 OA 
HETATM   14  H   UNL     1      -8.737   5.710  62.044  1.00  0.00     0.000 HD 
HETATM   15  O   UNL     1      -7.635   2.575  63.950  1.00  0.00    -0.064 OA 
HETATM   16  H   UNL     1      -7.812   2.179  63.104  1.00  0.00     0.000 HD 
ENDBRANCH   2   4
TORSDOF 1
ENDMDL
MODEL      210
REMARK 921   NORMALIZED FREE ENERGY PREDICTED BY IDOCK:   -1.79 KCAL/MOL
REMARK 922        TOTAL FREE ENERGY PREDICTED BY IDOCK:   -2.13 KCAL/MOL
REMARK 923 INTER-LIGAND FREE ENERGY PREDICTED BY IDOCK:   -2.16 KCAL/MOL
REMARK 924 INTRA-LIGAND FREE ENERGY PREDICTED BY IDOCK:    0.04 KCAL/MOL
REMARK 927      BINDING AFFINITY PREDICTED BY RF-SCORE:    0.00 PKD
ROOT
HETATM    1  O   UNL     1      -9.624  12.817  65.936  1.00  0.00    -0.374 OA 
HETATM    2  C   UNL     1      -8.594  12.740  66.922  1.00  0.00    -0.137 C  
HETATM    3  H   UNL     1      -9.419  13.459  65.267  1.00  0.00     0.000 HD 
ENDROOT
BRANCH   2   4
HETATM    4  C   UNL     1      -8.926  11.702  68.003  1.00  0.00    -0.176 C  
HETATM    5  O   UNL     1      -9.824  10.727  67.425  1.00  0.00    -0.172 OA 
HETATM    6  C   UNL     1      -9.334   9.687  66.713  1.00  0.00    -0.152 C  
HETATM    7  C   UNL     1      -8.084   9.005  67.249  1.00  0.00    -0.103 C  
HETATM    8  O   UNL     1      -9.983   9.194  65.791  1.00  0.00    -0.277 OA 
HETATM    9  O   UNL     1      -8.458   8.043  68.244  1.00  0.00    -0.122 OA 
HETATM   10  C   UNL     1      -7.058   9.970  67.838  1.00  0.00    -0.085 C  
HETATM   11  C   UNL     1      -7.710  11.065  68.689  1.00  0.00    -0.132 C  
HETATM   12  H   UNL     1      -7.678   7.617  68.579  1.00  0.00     0.000 HD 
HETATM   13  O   UNL     1      -6.200  10.512  66.830  1.00  0.00    -0.059 OA 
HETATM   14  H   UNL     1      -5.561  11.112  67.197  1.00  0.00     0.000 HD 
HETATM   15  O   UNL     1      -8.167  10.538  69.945  1.00  0.00    -0.372 OA 
HETATM   16  H   UNL     1      -7.414  10.143  70.371  1.00  0.00     0.000 HD 
ENDBRANCH   2   4
TORSDOF 1
ENDMDL
MODEL      211
REMARK 921   NORMALIZED FREE ENERGY PREDICTED BY IDOCK:   -1.79 KCAL/MOL
REMARK 922        TOTAL FREE ENERGY PREDICTED BY IDOCK:   -2.13 KCAL/MOL
REMARK 923 INTER-LIGAND FREE ENERGY PREDICTED BY IDOCK:   -2.09 KCAL/MOL
REMARK 924 INTRA-LIGAND FREE ENERGY PREDICTED BY IDOCK:   -0.04 KCAL/MOL
REMARK 927      BINDING AFFINITY PREDICTED BY RF-SCORE:    0.00 PKD
ROOT
HETATM    1  O   UNL     1      -8.185   5.116  65.292  1.00  0.00    -0.115 OA 
HETATM    2  C   UNL     1      -9.003   5.441  66.416  1.00  0.00    -0.131 C  
HETATM    3  H   UNL     1      -8.634   4.534  64.690  1.00  0.00     0.000 HD 
ENDROOT
BRANCH   2   4
HETATM    4  C   UNL     1      -8.278   6.381  67.388  1.00  0.00    -0.116 C  
HETATM    5  O   UNL     1      -8.358   7.723  66.856  1.00  0.00    -0.120 OA 
HETATM    6  C   UNL     1      -9.451   8.484  67.087  1.00  0.00    -0.162 C  
HETATM    7  C   UNL     1     -10.051   8.431  68.485  1.00  0.00    -0.197 C  
HETATM    8  O   UNL     1      -9.816   9.327  66.269  1.00  0.00    -0.251 OA 
HETATM    9  O   UNL     1      -9.340   9.334  69.341  1.00  0.00    -0.153 OA 
HETATM   10  C   UNL     1     -10.049   7.036  69.106  1.00  0.00    -0.180 C  
HETATM   11  C   UNL     1      -8.737   6.287  68.849  1.00  0.00    -0.125 C  
HETATM   12  H   UNL     1      -9.715   9.301  70.214  1.00  0.00     0.000 HD 
HETATM   13  O   UNL     1     -11.190   6.274  68.703  1.00  0.00    -0.435 OA 
HETATM   14  H   UNL     1     -11.189   5.406  69.089  1.00  0.00     0.000 HD 
HETATM   15  O   UNL     1      -7.674   6.818  69.657  1.00  0.00    -0.105 OA 
HETATM   16  H   UNL     1      -7.957   6.761  70.562  1.00  0.00     0.000 HD 
ENDBRANCH   2   4
TORSDOF 1
ENDMDL
MODEL      212
REMARK 921   NORMALIZED FREE ENERGY PREDICTED BY IDOCK:   -1.77 KCAL/MOL
REMARK 922        TOTAL FREE ENERGY PREDICTED BY IDOCK:   -2.10 KCAL/MOL
REMARK 923 INTER-LIGAND FREE ENERGY PREDICTED BY IDOCK:   -2.07 KCAL/MOL
REMARK 924 INTRA-LIGAND FREE ENERGY PREDICTED BY IDOCK:   -0.03 KCAL/MOL
REMARK 927      BINDING AFFINITY PREDICTED BY RF-SCORE:    0.00 PKD
ROOT
HETATM    1  O   UNL     1     -12.516   6.415  72.442  1.00  0.00    -0.543 OA 
HETATM    2  C   UNL     1     -11.219   5.921  72.774  1.00  0.00    -0.276 C  
HETATM    3  H   UNL     1     -13.184   6.053  73.011  1.00  0.00     0.000 HD 
ENDROOT
BRANCH   2   4
HETATM    4  C   UNL     1     -10.140   6.507  71.854  1.00  0.00    -0.182 C  
HETATM    5  O   UNL     1      -8.907   6.587  72.605  1.00  0.00    -0.126 OA 
HETATM    6  C   UNL     1      -8.099   5.509  72.705  1.00  0.00    -0.106 C  
HETATM    7  C   UNL     1      -7.903   4.669  71.451  1.00  0.00    -0.087 C  
HETATM    8  O   UNL     1      -7.401   5.334  73.703  1.00  0.00    -0.088 OA 
HETATM    9  O   UNL     1      -6.879   5.260  70.639  1.00  0.00    -0.047 OA 
HETATM   10  C   UNL     1      -9.171   4.495  70.619  1.00  0.00    -0.135 C  
HETATM   11  C   UNL     1      -9.975   5.794  70.506  1.00  0.00    -0.195 C  
HETATM   12  H   UNL     1      -6.756   4.736  69.856  1.00  0.00     0.000 HD 
HETATM   13  O   UNL     1      -9.970   3.407  71.092  1.00  0.00    -0.144 OA 
HETATM   14  H   UNL     1     -10.760   3.299  70.574  1.00  0.00     0.000 HD 
HETATM   15  O   UNL     1      -9.333   6.722  69.616  1.00  0.00    -0.145 OA 
HETATM   16  H   UNL     1      -9.230   6.281  68.781  1.00  0.00     0.000 HD 
ENDBRANCH   2   4
TORSDOF 1
ENDMDL
MODEL      213
REMARK 921   NORMALIZED FREE ENERGY PREDICTED BY IDOCK:   -1.75 KCAL/MOL
REMARK 922        TOTAL FREE ENERGY PREDICTED BY IDOCK:   -2.09 KCAL/MOL
REMARK 923 INTER-LIGAND FREE ENERGY PREDICTED BY IDOCK:   -1.83 KCAL/MOL
REMARK 924 INTRA-LIGAND FREE ENERGY PREDICTED BY IDOCK:   -0.25 KCAL/MOL
REMARK 927      BINDING AFFINITY PREDICTED BY RF-SCORE:    0.00 PKD
ROOT
HETATM    1  O   UNL     1      -9.376   8.227  72.593  1.00  0.00    -0.240 OA 
HETATM    2  C   UNL     1     -10.195   7.792  71.507  1.00  0.00    -0.182 C  
HETATM    3  H   UNL     1      -9.900   8.517  73.330  1.00  0.00     0.000 HD 
ENDROOT
BRANCH   2   4
HETATM    4  C   UNL     1      -9.349   7.322  70.316  1.00  0.00    -0.158 C  
HETATM    5  O   UNL     1     -10.098   7.583  69.107  1.00  0.00    -0.181 OA 
HETATM    6  C   UNL     1     -10.057   8.804  68.529  1.00  0.00    -0.189 C  
HETATM    7  C   UNL     1      -8.707   9.505  68.479  1.00  0.00    -0.124 C  
HETATM    8  O   UNL     1     -11.022   9.236  67.900  1.00  0.00    -0.168 OA 
HETATM    9  O   UNL     1      -7.970   9.034  67.343  1.00  0.00    -0.099 OA 
HETATM   10  C   UNL     1      -7.867   9.320  69.741  1.00  0.00    -0.100 C  
HETATM   11  C   UNL     1      -7.922   7.882  70.270  1.00  0.00    -0.102 C  
HETATM   12  H   UNL     1      -7.127   9.471  67.312  1.00  0.00     0.000 HD 
HETATM   13  O   UNL     1      -8.205  10.276  70.748  1.00  0.00    -0.216 OA 
HETATM   14  H   UNL     1      -7.683  10.161  71.533  1.00  0.00     0.000 HD 
HETATM   15  O   UNL     1      -7.151   6.998  69.439  1.00  0.00    -0.074 OA 
HETATM   16  H   UNL     1      -6.267   7.345  69.410  1.00  0.00     0.000 HD 
ENDBRANCH   2   4
TORSDOF 1
ENDMDL
MODEL      214
REMARK 921   NORMALIZED FREE ENERGY PREDICTED BY IDOCK:   -1.71 KCAL/MOL
REMARK 922        TOTAL FREE ENERGY PREDICTED BY IDOCK:   -2.04 KCAL/MOL
REMARK 923 INTER-LIGAND FREE ENERGY PREDICTED BY IDOCK:   -2.01 KCAL/MOL
REMARK 924 INTRA-LIGAND FREE ENERGY PREDICTED BY IDOCK:   -0.03 KCAL/MOL
REMARK 927      BINDING AFFINITY PREDICTED BY RF-SCORE:    0.00 PKD
ROOT
HETATM    1  O   UNL     1      -7.162   6.797  71.872  1.00  0.00    -0.078 OA 
HETATM    2  C   UNL     1      -8.233   7.604  71.381  1.00  0.00    -0.099 C  
HETATM    3  H   UNL     1      -7.152   6.770  72.821  1.00  0.00     0.000 HD 
ENDROOT
BRANCH   2   4
HETATM    4  C   UNL     1      -8.248   7.647  69.847  1.00  0.00    -0.130 C  
HETATM    5  O   UNL     1      -9.032   6.526  69.377  1.00  0.00    -0.132 OA 
HETATM    6  C   UNL     1     -10.378   6.622  69.297  1.00  0.00    -0.200 C  
HETATM    7  C   UNL     1     -10.952   7.930  68.770  1.00  0.00     0.168 C  
HETATM    8  O   UNL     1     -11.091   5.631  69.452  1.00  0.00    -0.294 OA 
HETATM    9  O   UNL     1     -10.950   7.905  67.337  1.00  0.00    -0.522 OA 
HETATM   10  C   UNL     1     -10.209   9.171  69.257  1.00  0.00    -0.210 C  
HETATM   11  C   UNL     1      -8.688   8.984  69.237  1.00  0.00    -0.138 C  
HETATM   12  H   UNL     1     -11.308   8.722  67.008  1.00  0.00     0.000 HD 
HETATM   13  O   UNL     1     -10.680   9.604  70.536  1.00  0.00    -0.264 OA 
HETATM   14  H   UNL     1     -10.218  10.377  70.839  1.00  0.00     0.000 HD 
HETATM   15  O   UNL     1      -8.182   9.018  67.892  1.00  0.00    -0.109 OA 
HETATM   16  H   UNL     1      -8.454   9.846  67.514  1.00  0.00     0.000 HD 
ENDBRANCH   2   4
TORSDOF 1
ENDMDL
MODEL      215
REMARK 921   NORMALIZED FREE ENERGY PREDICTED BY IDOCK:   -1.70 KCAL/MOL
REMARK 922        TOTAL FREE ENERGY PREDICTED BY IDOCK:   -2.04 KCAL/MOL
REMARK 923 INTER-LIGAND FREE ENERGY PREDICTED BY IDOCK:   -2.03 KCAL/MOL
REMARK 924 INTRA-LIGAND FREE ENERGY PREDICTED BY IDOCK:   -0.01 KCAL/MOL
REMARK 927      BINDING AFFINITY PREDICTED BY RF-SCORE:    0.00 PKD
ROOT
HETATM    1  O   UNL     1      -7.791   4.322  70.827  1.00  0.00    -0.058 OA 
HETATM    2  C   UNL     1      -8.368   5.581  70.480  1.00  0.00    -0.116 C  
HETATM    3  H   UNL     1      -7.983   4.086  71.727  1.00  0.00     0.000 HD 
ENDROOT
BRANCH   2   4
HETATM    4  C   UNL     1      -8.057   5.962  69.026  1.00  0.00    -0.103 C  
HETATM    5  O   UNL     1      -7.972   4.743  68.254  1.00  0.00    -0.084 OA 
HETATM    6  C   UNL     1      -9.093   4.169  67.762  1.00  0.00    -0.136 C  
HETATM    7  C   UNL     1     -10.149   5.096  67.178  1.00  0.00    -0.206 C  
HETATM    8  O   UNL     1      -9.163   2.950  67.613  1.00  0.00    -0.172 OA 
HETATM    9  O   UNL     1      -9.810   5.406  65.820  1.00  0.00    -0.326 OA 
HETATM   10  C   UNL     1     -10.337   6.392  67.963  1.00  0.00    -0.193 C  
HETATM   11  C   UNL     1      -9.002   7.000  68.408  1.00  0.00    -0.122 C  
HETATM   12  H   UNL     1     -10.470   5.984  65.455  1.00  0.00     0.000 HD 
HETATM   13  O   UNL     1     -11.242   6.224  69.056  1.00  0.00    -0.395 OA 
HETATM   14  H   UNL     1     -11.359   7.031  69.544  1.00  0.00     0.000 HD 
HETATM   15  O   UNL     1      -8.308   7.590  67.297  1.00  0.00    -0.116 OA 
HETATM   16  H   UNL     1      -8.893   8.233  66.913  1.00  0.00     0.000 HD 
ENDBRANCH   2   4
TORSDOF 1
ENDMDL
MODEL      216
REMARK 921   NORMALIZED FREE ENERGY PREDICTED BY IDOCK:   -1.63 KCAL/MOL
REMARK 922        TOTAL FREE ENERGY PREDICTED BY IDOCK:   -1.96 KCAL/MOL
REMARK 923 INTER-LIGAND FREE ENERGY PREDICTED BY IDOCK:   -1.93 KCAL/MOL
REMARK 924 INTRA-LIGAND FREE ENERGY PREDICTED BY IDOCK:   -0.04 KCAL/MOL
REMARK 927      BINDING AFFINITY PREDICTED BY RF-SCORE:    0.00 PKD
ROOT
HETATM    1  O   UNL     1      -6.742   7.356  71.209  1.00  0.00    -0.049 OA 
HETATM    2  C   UNL     1      -7.816   8.266  70.974  1.00  0.00    -0.096 C  
HETATM    3  H   UNL     1      -6.581   7.238  72.138  1.00  0.00     0.000 HD 
ENDROOT
BRANCH   2   4
HETATM    4  C   UNL     1      -8.075   8.457  69.473  1.00  0.00    -0.113 C  
HETATM    5  O   UNL     1      -9.447   8.882  69.307  1.00  0.00    -0.158 OA 
HETATM    6  C   UNL     1      -9.776  10.187  69.431  1.00  0.00    -0.229 C  
HETATM    7  C   UNL     1      -8.826  11.204  68.814  1.00  0.00    -0.125 C  
HETATM    8  O   UNL     1     -10.885  10.522  69.844  1.00  0.00    -0.269 OA 
HETATM    9  O   UNL     1      -9.124  11.346  67.419  1.00  0.00    -0.157 OA 
HETATM   10  C   UNL     1      -7.350  10.855  68.985  1.00  0.00    -0.113 C  
HETATM   11  C   UNL     1      -7.074   9.366  68.749  1.00  0.00    -0.069 C  
HETATM   12  H   UNL     1      -8.531  11.981  67.034  1.00  0.00     0.000 HD 
HETATM   13  O   UNL     1      -6.841  11.303  70.244  1.00  0.00    -0.473 OA 
HETATM   14  H   UNL     1      -5.922  11.086  70.351  1.00  0.00     0.000 HD 
HETATM   15  O   UNL     1      -7.149   9.043  67.351  1.00  0.00    -0.078 OA 
HETATM   16  H   UNL     1      -6.529   9.606  66.902  1.00  0.00     0.000 HD 
ENDBRANCH   2   4
TORSDOF 1
ENDMDL
MODEL      217
REMARK 921   NORMALIZED FREE ENERGY PREDICTED BY IDOCK:   -1.63 KCAL/MOL
REMARK 922        TOTAL FREE ENERGY PREDICTED BY IDOCK:   -1.96 KCAL/MOL
REMARK 923 INTER-LIGAND FREE ENERGY PREDICTED BY IDOCK:   -2.17 KCAL/MOL
REMARK 924 INTRA-LIGAND FREE ENERGY PREDICTED BY IDOCK:    0.20 KCAL/MOL
REMARK 927      BINDING AFFINITY PREDICTED BY RF-SCORE:    0.00 PKD
ROOT
HETATM    1  O   UNL     1     -10.084   4.934  67.935  1.00  0.00    -0.144 OA 
HETATM    2  C   UNL     1     -10.682   5.792  66.964  1.00  0.00    -0.289 C  
HETATM    3  H   UNL     1      -9.978   4.050  67.602  1.00  0.00     0.000 HD 
ENDROOT
BRANCH   2   4
HETATM    4  C   UNL     1     -10.853   7.219  67.502  1.00  0.00    -0.214 C  
HETATM    5  O   UNL     1     -10.901   7.149  68.946  1.00  0.00    -0.200 OA 
HETATM    6  C   UNL     1      -9.757   7.118  69.665  1.00  0.00    -0.158 C  
HETATM    7  C   UNL     1      -8.628   8.034  69.216  1.00  0.00    -0.137 C  
HETATM    8  O   UNL     1      -9.707   6.528  70.744  1.00  0.00    -0.178 OA 
HETATM    9  O   UNL     1      -8.837   9.345  69.757  1.00  0.00    -0.152 OA 
HETATM   10  C   UNL     1      -8.476   8.130  67.699  1.00  0.00    -0.131 C  
HETATM   11  C   UNL     1      -9.828   8.238  66.986  1.00  0.00    -0.232 C  
HETATM   12  H   UNL     1      -8.133   9.918  69.477  1.00  0.00     0.000 HD 
HETATM   13  O   UNL     1      -7.676   7.067  67.178  1.00  0.00    -0.104 OA 
HETATM   14  H   UNL     1      -7.581   7.126  66.235  1.00  0.00     0.000 HD 
HETATM   15  O   UNL     1     -10.405   9.541  67.167  1.00  0.00    -0.229 OA 
HETATM   16  H   UNL     1      -9.771  10.173  66.847  1.00  0.00     0.000 HD 
ENDBRANCH   2   4
TORSDOF 1
ENDMDL
MODEL      218
REMARK 921   NORMALIZED FREE ENERGY PREDICTED BY IDOCK:   -1.58 KCAL/MOL
REMARK 922        TOTAL FREE ENERGY PREDICTED BY IDOCK:   -1.91 KCAL/MOL
REMARK 923 INTER-LIGAND FREE ENERGY PREDICTED BY IDOCK:   -1.98 KCAL/MOL
REMARK 924 INTRA-LIGAND FREE ENERGY PREDICTED BY IDOCK:    0.07 KCAL/MOL
REMARK 927      BINDING AFFINITY PREDICTED BY RF-SCORE:    0.00 PKD
ROOT
HETATM    1  O   UNL     1     -10.611   6.436  66.183  1.00  0.00    -0.432 OA 
HETATM    2  C   UNL     1     -10.921   7.037  67.441  1.00  0.00    -0.266 C  
HETATM    3  H   UNL     1     -10.969   6.936  65.459  1.00  0.00     0.000 HD 
ENDROOT
BRANCH   2   4
HETATM    4  C   UNL     1     -10.342   6.229  68.610  1.00  0.00    -0.206 C  
HETATM    5  O   UNL     1      -9.267   5.410  68.097  1.00  0.00    -0.108 OA 
HETATM    6  C   UNL     1      -8.024   5.922  67.961  1.00  0.00    -0.105 C  
HETATM    7  C   UNL     1      -7.518   6.822  69.079  1.00  0.00    -0.096 C  
HETATM    8  O   UNL     1      -7.268   5.519  67.078  1.00  0.00    -0.075 OA 
HETATM    9  O   UNL     1      -6.981   6.013  70.134  1.00  0.00    -0.064 OA 
HETATM   10  C   UNL     1      -8.582   7.757  69.649  1.00  0.00    -0.135 C  
HETATM   11  C   UNL     1      -9.932   7.057  69.834  1.00  0.00    -0.177 C  
HETATM   12  H   UNL     1      -6.665   6.575  70.832  1.00  0.00     0.000 HD 
HETATM   13  O   UNL     1      -8.699   8.958  68.882  1.00  0.00    -0.133 OA 
HETATM   14  H   UNL     1      -9.361   9.540  69.236  1.00  0.00     0.000 HD 
HETATM   15  O   UNL     1      -9.898   6.159  70.956  1.00  0.00    -0.178 OA 
HETATM   16  H   UNL     1      -9.644   6.672  71.715  1.00  0.00     0.000 HD 
ENDBRANCH   2   4
TORSDOF 1
ENDMDL
MODEL      219
REMARK 921   NORMALIZED FREE ENERGY PREDICTED BY IDOCK:   -1.54 KCAL/MOL
REMARK 922        TOTAL FREE ENERGY PREDICTED BY IDOCK:   -1.87 KCAL/MOL
REMARK 923 INTER-LIGAND FREE ENERGY PREDICTED BY IDOCK:   -1.84 KCAL/MOL
REMARK 924 INTRA-LIGAND FREE ENERGY PREDICTED BY IDOCK:   -0.03 KCAL/MOL
REMARK 927      BINDING AFFINITY PREDICTED BY RF-SCORE:    0.00 PKD
ROOT
HETATM    1  O   UNL     1      -7.472   4.175  65.364  1.00  0.00    -0.075 OA 
HETATM    2  C   UNL     1      -8.270   4.205  66.548  1.00  0.00    -0.101 C  
HETATM    3  H   UNL     1      -7.583   3.360  64.889  1.00  0.00     0.000 HD 
ENDROOT
BRANCH   2   4
HETATM    4  C   UNL     1      -8.090   5.521  67.316  1.00  0.00    -0.101 C  
HETATM    5  O   UNL     1      -9.163   6.411  66.934  1.00  0.00    -0.127 OA 
HETATM    6  C   UNL     1     -10.366   6.331  67.547  1.00  0.00    -0.200 C  
HETATM    7  C   UNL     1     -10.365   6.115  69.053  1.00  0.00    -0.211 C  
HETATM    8  O   UNL     1     -11.400   6.618  66.946  1.00  0.00    -0.333 OA 
HETATM    9  O   UNL     1     -10.204   7.378  69.713  1.00  0.00    -0.199 OA 
HETATM   10  C   UNL     1      -9.287   5.148  69.539  1.00  0.00    -0.130 C  
HETATM   11  C   UNL     1      -7.944   5.374  68.836  1.00  0.00    -0.094 C  
HETATM   12  H   UNL     1     -10.204   7.243  70.654  1.00  0.00     0.000 HD 
HETATM   13  O   UNL     1      -9.717   3.788  69.452  1.00  0.00    -0.181 OA 
HETATM   14  H   UNL     1      -9.047   3.186  69.755  1.00  0.00     0.000 HD 
HETATM   15  O   UNL     1      -7.307   6.570  69.314  1.00  0.00    -0.087 OA 
HETATM   16  H   UNL     1      -7.216   6.479  70.255  1.00  0.00     0.000 HD 
ENDBRANCH   2   4
TORSDOF 1
ENDMDL
MODEL      220
REMARK 921   NORMALIZED FREE ENERGY PREDICTED BY IDOCK:   -1.52 KCAL/MOL
REMARK 922        TOTAL FREE ENERGY PREDICTED BY IDOCK:   -1.84 KCAL/MOL
REMARK 923 INTER-LIGAND FREE ENERGY PREDICTED BY IDOCK:   -1.60 KCAL/MOL
REMARK 924 INTRA-LIGAND FREE ENERGY PREDICTED BY IDOCK:   -0.24 KCAL/MOL
REMARK 927      BINDING AFFINITY PREDICTED BY RF-SCORE:    0.00 PKD
ROOT
HETATM    1  O   UNL     1      -7.546   9.121  66.347  1.00  0.00    -0.091 OA 
HETATM    2  C   UNL     1      -6.999   7.990  67.025  1.00  0.00    -0.074 C  
HETATM    3  H   UNL     1      -7.267   9.937  66.747  1.00  0.00     0.000 HD 
ENDROOT
BRANCH   2   4
HETATM    4  C   UNL     1      -7.449   6.673  66.378  1.00  0.00    -0.085 C  
HETATM    5  O   UNL     1      -7.310   5.623  67.361  1.00  0.00    -0.074 OA 
HETATM    6  C   UNL     1      -8.290   5.401  68.265  1.00  0.00    -0.098 C  
HETATM    7  C   UNL     1      -9.726   5.474  67.764  1.00  0.00    -0.130 C  
HETATM    8  O   UNL     1      -8.028   4.966  69.385  1.00  0.00    -0.073 OA 
HETATM    9  O   UNL     1     -10.090   4.216  67.182  1.00  0.00    -0.198 OA 
HETATM   10  C   UNL     1      -9.972   6.591  66.753  1.00  0.00    -0.166 C  
HETATM   11  C   UNL     1      -8.838   6.708  65.729  1.00  0.00    -0.077 C  
HETATM   12  H   UNL     1     -10.986   4.261  66.870  1.00  0.00     0.000 HD 
HETATM   13  O   UNL     1     -10.246   7.838  67.396  1.00  0.00    -0.202 OA 
HETATM   14  H   UNL     1     -10.399   8.533  66.766  1.00  0.00     0.000 HD 
HETATM   15  O   UNL     1      -8.885   5.627  64.782  1.00  0.00    -0.336 OA 
HETATM   16  H   UNL     1      -9.746   5.648  64.380  1.00  0.00     0.000 HD 
ENDBRANCH   2   4
TORSDOF 1
ENDMDL
MODEL      221
REMARK 921   NORMALIZED FREE ENERGY PREDICTED BY IDOCK:   -1.51 KCAL/MOL
REMARK 922        TOTAL FREE ENERGY PREDICTED BY IDOCK:   -1.83 KCAL/MOL
REMARK 923 INTER-LIGAND FREE ENERGY PREDICTED BY IDOCK:   -1.79 KCAL/MOL
REMARK 924 INTRA-LIGAND FREE ENERGY PREDICTED BY IDOCK:   -0.05 KCAL/MOL
REMARK 927      BINDING AFFINITY PREDICTED BY RF-SCORE:    0.00 PKD
ROOT
HETATM    1  O   UNL     1      -6.075   1.869  63.242  1.00  0.00    -0.009 OA 
HETATM    2  C   UNL     1      -6.617   2.761  64.216  1.00  0.00    -0.031 C  
HETATM    3  H   UNL     1      -5.214   2.149  62.954  1.00  0.00     0.000 HD 
ENDROOT
BRANCH   2   4
HETATM    4  C   UNL     1      -8.008   2.308  64.681  1.00  0.00    -0.074 C  
HETATM    5  O   UNL     1      -8.316   3.004  65.911  1.00  0.00    -0.093 OA 
HETATM    6  C   UNL     1      -8.839   4.250  65.877  1.00  0.00    -0.120 C  
HETATM    7  C   UNL     1      -9.907   4.526  64.829  1.00  0.00    -0.047 C  
HETATM    8  O   UNL     1      -8.607   5.056  66.777  1.00  0.00    -0.110 OA 
HETATM    9  O   UNL     1     -11.181   4.093  65.324  1.00  0.00    -0.681 OA 
HETATM   10  C   UNL     1      -9.636   3.865  63.480  1.00  0.00    -0.147 C  
HETATM   11  C   UNL     1      -9.118   2.430  63.630  1.00  0.00    -0.095 C  
HETATM   12  H   UNL     1     -11.848   4.266  64.670  1.00  0.00     0.000 HD 
HETATM   13  O   UNL     1      -8.778   4.663  62.661  1.00  0.00    -0.113 OA 
HETATM   14  H   UNL     1      -8.609   4.251  61.821  1.00  0.00     0.000 HD 
HETATM   15  O   UNL     1     -10.174   1.540  64.029  1.00  0.00    -0.267 OA 
HETATM   16  H   UNL     1     -10.862   1.615  63.378  1.00  0.00     0.000 HD 
ENDBRANCH   2   4
TORSDOF 1
ENDMDL
MODEL      222
REMARK 921   NORMALIZED FREE ENERGY PREDICTED BY IDOCK:   -1.51 KCAL/MOL
REMARK 922        TOTAL FREE ENERGY PREDICTED BY IDOCK:   -1.83 KCAL/MOL
REMARK 923 INTER-LIGAND FREE ENERGY PREDICTED BY IDOCK:   -2.08 KCAL/MOL
REMARK 924 INTRA-LIGAND FREE ENERGY PREDICTED BY IDOCK:    0.25 KCAL/MOL
REMARK 927      BINDING AFFINITY PREDICTED BY RF-SCORE:    0.00 PKD
ROOT
HETATM    1  O   UNL     1      -8.999   7.501  70.795  1.00  0.00    -0.147 OA 
HETATM    2  C   UNL     1      -7.906   6.710  70.329  1.00  0.00    -0.107 C  
HETATM    3  H   UNL     1      -8.700   8.248  71.299  1.00  0.00     0.000 HD 
ENDROOT
BRANCH   2   4
HETATM    4  C   UNL     1      -8.390   5.503  69.515  1.00  0.00    -0.102 C  
HETATM    5  O   UNL     1      -9.799   5.319  69.784  1.00  0.00    -0.173 OA 
HETATM    6  C   UNL     1     -10.722   6.029  69.098  1.00  0.00    -0.331 C  
HETATM    7  C   UNL     1     -10.486   6.217  67.607  1.00  0.00    -0.234 C  
HETATM    8  O   UNL     1     -11.796   6.333  69.616  1.00  0.00    -0.290 OA 
HETATM    9  O   UNL     1     -10.967   5.065  66.901  1.00  0.00    -0.269 OA 
HETATM   10  C   UNL     1      -9.026   6.464  67.238  1.00  0.00    -0.107 C  
HETATM   11  C   UNL     1      -8.068   5.556  68.016  1.00  0.00    -0.096 C  
HETATM   12  H   UNL     1     -10.820   5.182  65.970  1.00  0.00     0.000 HD 
HETATM   13  O   UNL     1      -8.674   7.845  67.358  1.00  0.00    -0.127 OA 
HETATM   14  H   UNL     1      -7.765   7.999  67.128  1.00  0.00     0.000 HD 
HETATM   15  O   UNL     1      -8.125   4.206  67.527  1.00  0.00    -0.094 OA 
HETATM   16  H   UNL     1      -7.926   4.238  66.598  1.00  0.00     0.000 HD 
ENDBRANCH   2   4
TORSDOF 1
ENDMDL
MODEL      223
REMARK 921   NORMALIZED FREE ENERGY PREDICTED BY IDOCK:   -1.51 KCAL/MOL
REMARK 922        TOTAL FREE ENERGY PREDICTED BY IDOCK:   -1.83 KCAL/MOL
REMARK 923 INTER-LIGAND FREE ENERGY PREDICTED BY IDOCK:   -1.99 KCAL/MOL
REMARK 924 INTRA-LIGAND FREE ENERGY PREDICTED BY IDOCK:    0.16 KCAL/MOL
REMARK 927      BINDING AFFINITY PREDICTED BY RF-SCORE:    0.00 PKD
ROOT
HETATM    1  O   UNL     1      -7.366   4.906  70.937  1.00  0.00    -0.060 OA 
HETATM    2  C   UNL     1      -7.414   6.214  70.368  1.00  0.00    -0.090 C  
HETATM    3  H   UNL     1      -6.669   4.385  70.556  1.00  0.00     0.000 HD 
ENDROOT
BRANCH   2   4
HETATM    4  C   UNL     1      -8.540   7.055  70.984  1.00  0.00    -0.134 C  
HETATM    5  O   UNL     1      -9.632   6.167  71.312  1.00  0.00    -0.169 OA 
HETATM    6  C   UNL     1      -9.631   5.488  72.481  1.00  0.00    -0.148 C  
HETATM    7  C   UNL     1      -9.168   6.240  73.721  1.00  0.00    -0.131 C  
HETATM    8  O   UNL     1     -10.168   4.385  72.570  1.00  0.00    -0.171 OA 
HETATM    9  O   UNL     1     -10.263   6.996  74.254  1.00  0.00    -0.432 OA 
HETATM   10  C   UNL     1      -7.983   7.170  73.472  1.00  0.00    -0.107 C  
HETATM   11  C   UNL     1      -8.119   7.948  72.159  1.00  0.00    -0.124 C  
HETATM   12  H   UNL     1      -9.974   7.466  75.028  1.00  0.00     0.000 HD 
HETATM   13  O   UNL     1      -6.736   6.476  73.559  1.00  0.00    -0.072 OA 
HETATM   14  H   UNL     1      -5.998   7.054  73.404  1.00  0.00     0.000 HD 
HETATM   15  O   UNL     1      -9.108   8.984  72.273  1.00  0.00    -0.351 OA 
HETATM   16  H   UNL     1      -8.848   9.537  73.001  1.00  0.00     0.000 HD 
ENDBRANCH   2   4
TORSDOF 1
ENDMDL
MODEL      224
REMARK 921   NORMALIZED FREE ENERGY PREDICTED BY IDOCK:   -1.50 KCAL/MOL
REMARK 922        TOTAL FREE ENERGY PREDICTED BY IDOCK:   -1.83 KCAL/MOL
REMARK 923 INTER-LIGAND FREE ENERGY PREDICTED BY IDOCK:   -1.80 KCAL/MOL
REMARK 924 INTRA-LIGAND FREE ENERGY PREDICTED BY IDOCK:   -0.02 KCAL/MOL
REMARK 927      BINDING AFFINITY PREDICTED BY RF-SCORE:    0.00 PKD
ROOT
HETATM    1  O   UNL     1      -6.486   8.167  64.770  1.00  0.00    -0.055 OA 
HETATM    2  C   UNL     1      -7.706   7.447  64.952  1.00  0.00    -0.113 C  
HETATM    3  H   UNL     1      -6.493   8.666  63.962  1.00  0.00     0.000 HD 
ENDROOT
BRANCH   2   4
HETATM    4  C   UNL     1      -7.695   6.640  66.257  1.00  0.00    -0.098 C  
HETATM    5  O   UNL     1      -8.763   7.136  67.097  1.00  0.00    -0.119 OA 
HETATM    6  C   UNL     1     -10.024   6.677  66.938  1.00  0.00    -0.180 C  
HETATM    7  C   UNL     1     -10.195   5.186  66.687  1.00  0.00    -0.261 C  
HETATM    8  O   UNL     1     -10.992   7.396  67.184  1.00  0.00    -0.312 OA 
HETATM    9  O   UNL     1     -10.187   4.490  67.940  1.00  0.00    -0.039 OA 
HETATM   10  C   UNL     1      -9.132   4.588  65.768  1.00  0.00    -0.136 C  
HETATM   11  C   UNL     1      -7.728   5.117  66.082  1.00  0.00    -0.091 C  
HETATM   12  H   UNL     1     -10.294   3.559  67.783  1.00  0.00     0.000 HD 
HETATM   13  O   UNL     1      -9.471   4.750  64.389  1.00  0.00    -0.330 OA 
HETATM   14  H   UNL     1      -8.810   4.378  63.817  1.00  0.00     0.000 HD 
HETATM   15  O   UNL     1      -7.222   4.544  67.299  1.00  0.00    -0.067 OA 
HETATM   16  H   UNL     1      -7.242   3.600  67.191  1.00  0.00     0.000 HD 
ENDBRANCH   2   4
TORSDOF 1
ENDMDL
MODEL      225
REMARK 921   NORMALIZED FREE ENERGY PREDICTED BY IDOCK:   -1.50 KCAL/MOL
REMARK 922        TOTAL FREE ENERGY PREDICTED BY IDOCK:   -1.82 KCAL/MOL
REMARK 923 INTER-LIGAND FREE ENERGY PREDICTED BY IDOCK:   -1.59 KCAL/MOL
REMARK 924 INTRA-LIGAND FREE ENERGY PREDICTED BY IDOCK:   -0.23 KCAL/MOL
REMARK 927      BINDING AFFINITY PREDICTED BY RF-SCORE:    0.00 PKD
ROOT
HETATM    1  O   UNL     1      -7.922   5.224  73.132  1.00  0.00    -0.100 OA 
HETATM    2  C   UNL     1      -7.369   6.386  72.514  1.00  0.00    -0.087 C  
HETATM    3  H   UNL     1      -7.246   4.669  73.501  1.00  0.00     0.000 HD 
ENDROOT
BRANCH   2   4
HETATM    4  C   UNL     1      -8.462   7.282  71.918  1.00  0.00    -0.107 C  
HETATM    5  O   UNL     1      -7.939   7.882  70.711  1.00  0.00    -0.095 OA 
HETATM    6  C   UNL     1      -7.986   7.210  69.540  1.00  0.00    -0.128 C  
HETATM    7  C   UNL     1      -9.258   6.431  69.237  1.00  0.00    -0.135 C  
HETATM    8  O   UNL     1      -7.127   7.385  68.677  1.00  0.00    -0.079 OA 
HETATM    9  O   UNL     1     -10.235   7.317  68.674  1.00  0.00    -0.172 OA 
HETATM   10  C   UNL     1      -9.855   5.725  70.452  1.00  0.00    -0.186 C  
HETATM   11  C   UNL     1      -9.821   6.601  71.708  1.00  0.00    -0.161 C  
HETATM   12  H   UNL     1     -11.029   6.831  68.485  1.00  0.00     0.000 HD 
HETATM   13  O   UNL     1      -9.253   4.447  70.671  1.00  0.00    -0.112 OA 
HETATM   14  H   UNL     1      -9.624   4.007  71.428  1.00  0.00     0.000 HD 
HETATM   15  O   UNL     1     -10.806   7.645  71.636  1.00  0.00    -0.224 OA 
HETATM   16  H   UNL     1     -11.648   7.223  71.506  1.00  0.00     0.000 HD 
ENDBRANCH   2   4
TORSDOF 1
ENDMDL
MODEL      226
REMARK 921   NORMALIZED FREE ENERGY PREDICTED BY IDOCK:   -1.49 KCAL/MOL
REMARK 922        TOTAL FREE ENERGY PREDICTED BY IDOCK:   -1.81 KCAL/MOL
REMARK 923 INTER-LIGAND FREE ENERGY PREDICTED BY IDOCK:   -1.76 KCAL/MOL
REMARK 924 INTRA-LIGAND FREE ENERGY PREDICTED BY IDOCK:   -0.06 KCAL/MOL
REMARK 927      BINDING AFFINITY PREDICTED BY RF-SCORE:    0.00 PKD
ROOT
HETATM    1  O   UNL     1      -9.157   8.300  73.600  1.00  0.00    -0.222 OA 
HETATM    2  C   UNL     1      -8.232   7.237  73.374  1.00  0.00    -0.112 C  
HETATM    3  H   UNL     1      -8.790   9.141  73.354  1.00  0.00     0.000 HD 
ENDROOT
BRANCH   2   4
HETATM    4  C   UNL     1      -8.825   5.879  73.773  1.00  0.00    -0.124 C  
HETATM    5  O   UNL     1     -10.180   5.819  73.271  1.00  0.00    -0.180 OA 
HETATM    6  C   UNL     1     -10.418   5.440  71.995  1.00  0.00    -0.221 C  
HETATM    7  C   UNL     1      -9.598   4.279  71.451  1.00  0.00    -0.169 C  
HETATM    8  O   UNL     1     -11.386   5.880  71.377  1.00  0.00    -0.261 OA 
HETATM    9  O   UNL     1     -10.207   3.042  71.846  1.00  0.00    -0.126 OA 
HETATM   10  C   UNL     1      -8.138   4.291  71.897  1.00  0.00    -0.093 C  
HETATM   11  C   UNL     1      -7.984   4.659  73.376  1.00  0.00    -0.099 C  
HETATM   12  H   UNL     1      -9.695   2.317  71.507  1.00  0.00     0.000 HD 
HETATM   13  O   UNL     1      -7.332   5.115  71.051  1.00  0.00    -0.068 OA 
HETATM   14  H   UNL     1      -6.423   5.123  71.328  1.00  0.00     0.000 HD 
HETATM   15  O   UNL     1      -8.396   3.573  74.223  1.00  0.00    -0.080 OA 
HETATM   16  H   UNL     1      -7.876   2.817  73.978  1.00  0.00     0.000 HD 
ENDBRANCH   2   4
TORSDOF 1
ENDMDL
MODEL      227
REMARK 921   NORMALIZED FREE ENERGY PREDICTED BY IDOCK:   -1.47 KCAL/MOL
REMARK 922        TOTAL FREE ENERGY PREDICTED BY IDOCK:   -1.78 KCAL/MOL
REMARK 923 INTER-LIGAND FREE ENERGY PREDICTED BY IDOCK:   -1.76 KCAL/MOL
REMARK 924 INTRA-LIGAND FREE ENERGY PREDICTED BY IDOCK:   -0.02 KCAL/MOL
REMARK 927      BINDING AFFINITY PREDICTED BY RF-SCORE:    0.00 PKD
ROOT
HETATM    1  O   UNL     1      -8.814  10.703  67.033  1.00  0.00    -0.136 OA 
HETATM    2  C   UNL     1      -9.934  10.257  67.798  1.00  0.00    -0.173 C  
HETATM    3  H   UNL     1      -8.948  10.563  66.103  1.00  0.00     0.000 HD 
ENDROOT
BRANCH   2   4
HETATM    4  C   UNL     1      -9.717  10.485  69.300  1.00  0.00    -0.196 C  
HETATM    5  O   UNL     1     -10.690  11.455  69.750  1.00  0.00    -0.068 OA 
HETATM    6  C   UNL     1     -11.938  11.061  70.088  1.00  0.00    -0.360 C  
HETATM    7  C   UNL     1     -12.068   9.770  70.884  1.00  0.00    -0.321 C  
HETATM    8  O   UNL     1     -12.900  11.813  69.934  1.00  0.00     0.161 OA 
HETATM    9  O   UNL     1     -11.866  10.049  72.276  1.00  0.00     0.297 OA 
HETATM   10  C   UNL     1     -11.104   8.672  70.441  1.00  0.00    -0.230 C  
HETATM   11  C   UNL     1      -9.699   9.212  70.156  1.00  0.00    -0.204 C  
HETATM   12  H   UNL     1     -11.947   9.243  72.773  1.00  0.00     0.000 HD 
HETATM   13  O   UNL     1     -11.625   7.921  69.342  1.00  0.00    -0.230 OA 
HETATM   14  H   UNL     1     -11.026   7.237  69.066  1.00  0.00     0.000 HD 
HETATM   15  O   UNL     1      -9.014   9.537  71.376  1.00  0.00    -0.302 OA 
HETATM   16  H   UNL     1      -9.002   8.749  71.907  1.00  0.00     0.000 HD 
ENDBRANCH   2   4
TORSDOF 1
ENDMDL
MODEL      228
REMARK 921   NORMALIZED FREE ENERGY PREDICTED BY IDOCK:   -1.46 KCAL/MOL
REMARK 922        TOTAL FREE ENERGY PREDICTED BY IDOCK:   -1.78 KCAL/MOL
REMARK 923 INTER-LIGAND FREE ENERGY PREDICTED BY IDOCK:   -1.76 KCAL/MOL
REMARK 924 INTRA-LIGAND FREE ENERGY PREDICTED BY IDOCK:   -0.02 KCAL/MOL
REMARK 927      BINDING AFFINITY PREDICTED BY RF-SCORE:    0.00 PKD
ROOT
HETATM    1  O   UNL     1     -10.289  13.320  69.733  1.00  0.00     0.021 OA 
HETATM    2  C   UNL     1      -9.707  12.135  69.188  1.00  0.00     0.420 C  
HETATM    3  H   UNL     1      -9.650  14.018  69.811  1.00  0.00     0.000 HD 
ENDROOT
BRANCH   2   4
HETATM    4  C   UNL     1     -10.740  11.007  69.062  1.00  0.00    -0.219 C  
HETATM    5  O   UNL     1     -10.761  10.574  67.683  1.00  0.00    -0.232 OA 
HETATM    6  C   UNL     1      -9.861   9.668  67.239  1.00  0.00    -0.175 C  
HETATM    7  C   UNL     1      -9.541   8.498  68.159  1.00  0.00    -0.143 C  
HETATM    8  O   UNL     1      -9.475   9.684  66.071  1.00  0.00    -0.187 OA 
HETATM    9  O   UNL     1     -10.532   7.476  67.988  1.00  0.00    -0.204 OA 
HETATM   10  C   UNL     1      -9.454   8.878  69.635  1.00  0.00    -0.168 C  
HETATM   11  C   UNL     1     -10.564   9.849  70.052  1.00  0.00    -0.288 C  
HETATM   12  H   UNL     1     -10.332   6.745  68.562  1.00  0.00     0.000 HD 
HETATM   13  O   UNL     1      -8.155   9.366  69.981  1.00  0.00    -0.114 OA 
HETATM   14  H   UNL     1      -8.100   9.602  70.899  1.00  0.00     0.000 HD 
HETATM   15  O   UNL     1     -11.831   9.176  70.140  1.00  0.00    -0.469 OA 
HETATM   16  H   UNL     1     -11.722   8.458  70.753  1.00  0.00     0.000 HD 
ENDBRANCH   2   4
TORSDOF 1
ENDMDL
MODEL      229
REMARK 921   NORMALIZED FREE ENERGY PREDICTED BY IDOCK:   -1.44 KCAL/MOL
REMARK 922        TOTAL FREE ENERGY PREDICTED BY IDOCK:   -1.76 KCAL/MOL
REMARK 923 INTER-LIGAND FREE ENERGY PREDICTED BY IDOCK:   -1.73 KCAL/MOL
REMARK 924 INTRA-LIGAND FREE ENERGY PREDICTED BY IDOCK:   -0.03 KCAL/MOL
REMARK 927      BINDING AFFINITY PREDICTED BY RF-SCORE:    0.00 PKD
ROOT
HETATM    1  O   UNL     1      -7.927   5.232  73.135  1.00  0.00    -0.100 OA 
HETATM    2  C   UNL     1      -7.400   6.416  72.538  1.00  0.00    -0.087 C  
HETATM    3  H   UNL     1      -7.238   4.681  73.487  1.00  0.00     0.000 HD 
ENDROOT
BRANCH   2   4
HETATM    4  C   UNL     1      -8.514   7.306  71.971  1.00  0.00    -0.106 C  
HETATM    5  O   UNL     1      -8.069   8.680  72.042  1.00  0.00    -0.247 OA 
HETATM    6  C   UNL     1      -7.291   9.196  71.064  1.00  0.00    -0.098 C  
HETATM    7  C   UNL     1      -7.641   8.825  69.630  1.00  0.00    -0.076 C  
HETATM    8  O   UNL     1      -6.471  10.079  71.312  1.00  0.00    -0.319 OA 
HETATM    9  O   UNL     1      -8.676   9.695  69.154  1.00  0.00    -0.135 OA 
HETATM   10  C   UNL     1      -8.078   7.373  69.456  1.00  0.00    -0.129 C  
HETATM   11  C   UNL     1      -9.017   6.911  70.576  1.00  0.00    -0.155 C  
HETATM   12  H   UNL     1      -8.894   9.464  68.259  1.00  0.00     0.000 HD 
HETATM   13  O   UNL     1      -6.959   6.497  69.297  1.00  0.00    -0.066 OA 
HETATM   14  H   UNL     1      -7.232   5.593  69.188  1.00  0.00     0.000 HD 
HETATM   15  O   UNL     1     -10.325   7.486  70.423  1.00  0.00    -0.208 OA 
HETATM   16  H   UNL     1     -10.636   7.241  69.560  1.00  0.00     0.000 HD 
ENDBRANCH   2   4
TORSDOF 1
ENDMDL
MODEL      230
REMARK 921   NORMALIZED FREE ENERGY PREDICTED BY IDOCK:   -1.43 KCAL/MOL
REMARK 922        TOTAL FREE ENERGY PREDICTED BY IDOCK:   -1.75 KCAL/MOL
REMARK 923 INTER-LIGAND FREE ENERGY PREDICTED BY IDOCK:   -1.73 KCAL/MOL
REMARK 924 INTRA-LIGAND FREE ENERGY PREDICTED BY IDOCK:   -0.02 KCAL/MOL
REMARK 927      BINDING AFFINITY PREDICTED BY RF-SCORE:    0.00 PKD
ROOT
HETATM    1  O   UNL     1     -10.219  10.097  67.132  1.00  0.00    -0.201 OA 
HETATM    2  C   UNL     1     -10.301   9.076  68.126  1.00  0.00    -0.214 C  
HETATM    3  H   UNL     1     -11.081  10.363  66.832  1.00  0.00     0.000 HD 
ENDROOT
BRANCH   2   4
HETATM    4  C   UNL     1      -8.910   8.648  68.610  1.00  0.00    -0.142 C  
HETATM    5  O   UNL     1      -8.943   8.571  70.054  1.00  0.00    -0.138 OA 
HETATM    6  C   UNL     1      -9.394   7.453  70.666  1.00  0.00    -0.160 C  
HETATM    7  C   UNL     1      -8.972   6.117  70.073  1.00  0.00    -0.147 C  
HETATM    8  O   UNL     1      -9.949   7.516  71.763  1.00  0.00    -0.171 OA 
HETATM    9  O   UNL     1      -7.673   5.767  70.569  1.00  0.00    -0.094 OA 
HETATM   10  C   UNL     1      -8.954   6.096  68.546  1.00  0.00    -0.115 C  
HETATM   11  C   UNL     1      -8.355   7.377  67.955  1.00  0.00    -0.119 C  
HETATM   12  H   UNL     1      -7.409   4.932  70.199  1.00  0.00     0.000 HD 
HETATM   13  O   UNL     1     -10.245   5.807  68.005  1.00  0.00    -0.156 OA 
HETATM   14  H   UNL     1     -10.234   5.794  67.055  1.00  0.00     0.000 HD 
HETATM   15  O   UNL     1      -6.928   7.405  68.126  1.00  0.00    -0.070 OA 
HETATM   16  H   UNL     1      -6.584   6.618  67.720  1.00  0.00     0.000 HD 
ENDBRANCH   2   4
TORSDOF 1
ENDMDL
MODEL      231
REMARK 921   NORMALIZED FREE ENERGY PREDICTED BY IDOCK:   -1.42 KCAL/MOL
REMARK 922        TOTAL FREE ENERGY PREDICTED BY IDOCK:   -1.74 KCAL/MOL
REMARK 923 INTER-LIGAND FREE ENERGY PREDICTED BY IDOCK:   -1.71 KCAL/MOL
REMARK 924 INTRA-LIGAND FREE ENERGY PREDICTED BY IDOCK:   -0.02 KCAL/MOL
REMARK 927      BINDING AFFINITY PREDICTED BY RF-SCORE:    0.00 PKD
ROOT
HETATM    1  O   UNL     1      -9.152   5.636  73.515  1.00  0.00    -0.132 OA 
HETATM    2  C   UNL     1      -8.545   5.880  72.246  1.00  0.00    -0.124 C  
HETATM    3  H   UNL     1      -8.528   5.284  74.139  1.00  0.00     0.000 HD 
ENDROOT
BRANCH   2   4
HETATM    4  C   UNL     1      -9.554   6.448  71.238  1.00  0.00    -0.170 C  
HETATM    5  O   UNL     1      -9.156   7.801  70.923  1.00  0.00    -0.146 OA 
HETATM    6  C   UNL     1      -8.223   8.034  69.973  1.00  0.00    -0.118 C  
HETATM    7  C   UNL     1      -8.297   7.194  68.707  1.00  0.00    -0.126 C  
HETATM    8  O   UNL     1      -7.480   9.012  70.046  1.00  0.00    -0.052 OA 
HETATM    9  O   UNL     1      -9.244   7.778  67.803  1.00  0.00    -0.136 OA 
HETATM   10  C   UNL     1      -8.667   5.733  68.954  1.00  0.00    -0.111 C  
HETATM   11  C   UNL     1      -9.785   5.585  69.991  1.00  0.00    -0.178 C  
HETATM   12  H   UNL     1      -9.290   7.254  67.012  1.00  0.00     0.000 HD 
HETATM   13  O   UNL     1      -7.520   4.944  69.283  1.00  0.00    -0.056 OA 
HETATM   14  H   UNL     1      -7.750   4.035  69.437  1.00  0.00     0.000 HD 
HETATM   15  O   UNL     1     -11.054   5.975  69.441  1.00  0.00    -0.366 OA 
HETATM   16  H   UNL     1     -11.197   5.440  68.668  1.00  0.00     0.000 HD 
ENDBRANCH   2   4
TORSDOF 1
ENDMDL
MODEL      232
REMARK 921   NORMALIZED FREE ENERGY PREDICTED BY IDOCK:   -1.36 KCAL/MOL
REMARK 922        TOTAL FREE ENERGY PREDICTED BY IDOCK:   -1.67 KCAL/MOL
REMARK 923 INTER-LIGAND FREE ENERGY PREDICTED BY IDOCK:   -1.63 KCAL/MOL
REMARK 924 INTRA-LIGAND FREE ENERGY PREDICTED BY IDOCK:   -0.04 KCAL/MOL
REMARK 927      BINDING AFFINITY PREDICTED BY RF-SCORE:    0.00 PKD
ROOT
HETATM    1  O   UNL     1      -9.431   8.027  65.504  1.00  0.00    -0.410 OA 
HETATM    2  C   UNL     1      -8.976   6.806  66.086  1.00  0.00    -0.136 C  
HETATM    3  H   UNL     1     -10.115   8.430  66.026  1.00  0.00     0.000 HD 
ENDROOT
BRANCH   2   4
HETATM    4  C   UNL     1      -7.871   6.156  65.241  1.00  0.00    -0.105 C  
HETATM    5  O   UNL     1      -7.140   5.241  66.090  1.00  0.00    -0.069 OA 
HETATM    6  C   UNL     1      -7.595   3.984  66.287  1.00  0.00    -0.089 C  
HETATM    7  C   UNL     1      -8.159   3.252  65.078  1.00  0.00    -0.090 C  
HETATM    8  O   UNL     1      -7.378   3.393  67.344  1.00  0.00    -0.058 OA 
HETATM    9  O   UNL     1      -7.083   2.659  64.337  1.00  0.00    -0.047 OA 
HETATM   10  C   UNL     1      -8.987   4.137  64.149  1.00  0.00    -0.144 C  
HETATM   11  C   UNL     1      -8.345   5.512  63.932  1.00  0.00    -0.086 C  
HETATM   12  H   UNL     1      -7.435   2.202  63.582  1.00  0.00     0.000 HD 
HETATM   13  O   UNL     1     -10.344   4.240  64.585  1.00  0.00    -0.359 OA 
HETATM   14  H   UNL     1     -10.859   4.791  64.007  1.00  0.00     0.000 HD 
HETATM   15  O   UNL     1      -7.197   5.415  63.073  1.00  0.00    -0.041 OA 
HETATM   16  H   UNL     1      -7.490   5.016  62.262  1.00  0.00     0.000 HD 
ENDBRANCH   2   4
TORSDOF 1
ENDMDL
MODEL      233
REMARK 921   NORMALIZED FREE ENERGY PREDICTED BY IDOCK:   -1.36 KCAL/MOL
REMARK 922        TOTAL FREE ENERGY PREDICTED BY IDOCK:   -1.67 KCAL/MOL
REMARK 923 INTER-LIGAND FREE ENERGY PREDICTED BY IDOCK:   -1.63 KCAL/MOL
REMARK 924 INTRA-LIGAND FREE ENERGY PREDICTED BY IDOCK:   -0.04 KCAL/MOL
REMARK 927      BINDING AFFINITY PREDICTED BY RF-SCORE:    0.00 PKD
ROOT
HETATM    1  O   UNL     1      -5.805   9.648  64.067  1.00  0.00    -0.083 OA 
HETATM    2  C   UNL     1      -6.975   8.840  64.197  1.00  0.00    -0.089 C  
HETATM    3  H   UNL     1      -5.773  10.083  63.223  1.00  0.00     0.000 HD 
ENDROOT
BRANCH   2   4
HETATM    4  C   UNL     1      -7.026   8.137  65.560  1.00  0.00    -0.063 C  
HETATM    5  O   UNL     1      -6.531   9.059  66.557  1.00  0.00    -0.065 OA 
HETATM    6  C   UNL     1      -7.358   9.976  67.108  1.00  0.00    -0.091 C  
HETATM    7  C   UNL     1      -8.766   9.519  67.460  1.00  0.00    -0.126 C  
HETATM    8  O   UNL     1      -6.928  11.065  67.488  1.00  0.00    -0.080 OA 
HETATM    9  O   UNL     1      -8.750   8.881  68.744  1.00  0.00    -0.134 OA 
HETATM   10  C   UNL     1      -9.385   8.574  66.432  1.00  0.00    -0.213 C  
HETATM   11  C   UNL     1      -8.385   7.528  65.929  1.00  0.00    -0.139 C  
HETATM   12  H   UNL     1      -9.629   8.596  68.964  1.00  0.00     0.000 HD 
HETATM   13  O   UNL     1     -10.001   9.289  65.359  1.00  0.00    -0.438 OA 
HETATM   14  H   UNL     1     -10.386   8.702  64.719  1.00  0.00     0.000 HD 
HETATM   15  O   UNL     1      -8.138   6.527  66.930  1.00  0.00    -0.110 OA 
HETATM   16  H   UNL     1      -8.979   6.149  67.159  1.00  0.00     0.000 HD 
ENDBRANCH   2   4
TORSDOF 1
ENDMDL
MODEL      234
REMARK 921   NORMALIZED FREE ENERGY PREDICTED BY IDOCK:   -1.29 KCAL/MOL
REMARK 922        TOTAL FREE ENERGY PREDICTED BY IDOCK:   -1.60 KCAL/MOL
REMARK 923 INTER-LIGAND FREE ENERGY PREDICTED BY IDOCK:   -1.51 KCAL/MOL
REMARK 924 INTRA-LIGAND FREE ENERGY PREDICTED BY IDOCK:   -0.09 KCAL/MOL
REMARK 927      BINDING AFFINITY PREDICTED BY RF-SCORE:    0.00 PKD
ROOT
HETATM    1  O   UNL     1      -7.975   9.663  62.681  1.00  0.00    -0.119 OA 
HETATM    2  C   UNL     1      -8.446  10.102  63.954  1.00  0.00    -0.181 C  
HETATM    3  H   UNL     1      -8.630   9.786  62.004  1.00  0.00     0.000 HD 
ENDROOT
BRANCH   2   4
HETATM    4  C   UNL     1      -7.387   9.903  65.047  1.00  0.00    -0.135 C  
HETATM    5  O   UNL     1      -7.997  10.209  66.321  1.00  0.00    -0.112 OA 
HETATM    6  C   UNL     1      -8.712   9.269  66.978  1.00  0.00    -0.124 C  
HETATM    7  C   UNL     1      -8.158   7.851  66.982  1.00  0.00    -0.116 C  
HETATM    8  O   UNL     1      -9.655   9.586  67.703  1.00  0.00    -0.133 OA 
HETATM    9  O   UNL     1      -7.185   7.725  68.027  1.00  0.00    -0.082 OA 
HETATM   10  C   UNL     1      -7.534   7.428  65.654  1.00  0.00    -0.084 C  
HETATM   11  C   UNL     1      -6.683   8.540  65.031  1.00  0.00    -0.064 C  
HETATM   12  H   UNL     1      -6.839   6.840  68.030  1.00  0.00     0.000 HD 
HETATM   13  O   UNL     1      -8.516   6.927  64.743  1.00  0.00    -0.326 OA 
HETATM   14  H   UNL     1      -8.128   6.664  63.916  1.00  0.00     0.000 HD 
HETATM   15  O   UNL     1      -5.444   8.700  65.741  1.00  0.00    -0.034 OA 
HETATM   16  H   UNL     1      -5.008   7.855  65.732  1.00  0.00     0.000 HD 
ENDBRANCH   2   4
TORSDOF 1
ENDMDL
MODEL      235
REMARK 921   NORMALIZED FREE ENERGY PREDICTED BY IDOCK:   -1.25 KCAL/MOL
REMARK 922        TOTAL FREE ENERGY PREDICTED BY IDOCK:   -1.56 KCAL/MOL
REMARK 923 INTER-LIGAND FREE ENERGY PREDICTED BY IDOCK:   -1.52 KCAL/MOL
REMARK 924 INTRA-LIGAND FREE ENERGY PREDICTED BY IDOCK:   -0.03 KCAL/MOL
REMARK 927      BINDING AFFINITY PREDICTED BY RF-SCORE:    0.00 PKD
ROOT
HETATM    1  O   UNL     1     -10.026   5.739  69.714  1.00  0.00    -0.165 OA 
HETATM    2  C   UNL     1      -9.760   5.494  71.095  1.00  0.00    -0.174 C  
HETATM    3  H   UNL     1     -10.959   5.756  69.536  1.00  0.00     0.000 HD 
ENDROOT
BRANCH   2   4
HETATM    4  C   UNL     1      -8.252   5.465  71.381  1.00  0.00    -0.117 C  
HETATM    5  O   UNL     1      -7.811   6.826  71.584  1.00  0.00    -0.099 OA 
HETATM    6  C   UNL     1      -7.932   7.409  72.797  1.00  0.00    -0.100 C  
HETATM    7  C   UNL     1      -7.600   6.557  74.014  1.00  0.00    -0.086 C  
HETATM    8  O   UNL     1      -8.107   8.623  72.899  1.00  0.00    -0.388 OA 
HETATM    9  O   UNL     1      -6.184   6.578  74.236  1.00  0.00    -0.064 OA 
HETATM   10  C   UNL     1      -8.074   5.110  73.903  1.00  0.00    -0.101 C  
HETATM   11  C   UNL     1      -7.822   4.521  72.511  1.00  0.00    -0.087 C  
HETATM   12  H   UNL     1      -5.976   6.046  74.995  1.00  0.00     0.000 HD 
HETATM   13  O   UNL     1      -9.438   4.966  74.308  1.00  0.00    -0.120 OA 
HETATM   14  H   UNL     1      -9.733   4.066  74.239  1.00  0.00     0.000 HD 
HETATM   15  O   UNL     1      -6.426   4.242  72.315  1.00  0.00    -0.020 OA 
HETATM   16  H   UNL     1      -6.158   3.657  73.015  1.00  0.00     0.000 HD 
ENDBRANCH   2   4
TORSDOF 1
ENDMDL
MODEL      236
REMARK 921   NORMALIZED FREE ENERGY PREDICTED BY IDOCK:   -1.22 KCAL/MOL
REMARK 922        TOTAL FREE ENERGY PREDICTED BY IDOCK:   -1.52 KCAL/MOL
REMARK 923 INTER-LIGAND FREE ENERGY PREDICTED BY IDOCK:   -1.50 KCAL/MOL
REMARK 924 INTRA-LIGAND FREE ENERGY PREDICTED BY IDOCK:   -0.03 KCAL/MOL
REMARK 927      BINDING AFFINITY PREDICTED BY RF-SCORE:    0.00 PKD
ROOT
HETATM    1  O   UNL     1      -7.001   7.480  70.997  1.00  0.00    -0.053 OA 
HETATM    2  C   UNL     1      -7.689   8.506  70.281  1.00  0.00    -0.077 C  
HETATM    3  H   UNL     1      -7.339   7.382  71.879  1.00  0.00     0.000 HD 
ENDROOT
BRANCH   2   4
HETATM    4  C   UNL     1      -7.141   8.663  68.856  1.00  0.00    -0.066 C  
HETATM    5  O   UNL     1      -7.954   7.856  67.974  1.00  0.00    -0.124 OA 
HETATM    6  C   UNL     1      -9.114   8.344  67.479  1.00  0.00    -0.134 C  
HETATM    7  C   UNL     1      -9.118   9.797  67.025  1.00  0.00    -0.138 C  
HETATM    8  O   UNL     1     -10.055   7.595  67.223  1.00  0.00    -0.188 OA 
HETATM    9  O   UNL     1      -8.607   9.877  65.687  1.00  0.00    -0.136 OA 
HETATM   10  C   UNL     1      -8.318  10.730  67.930  1.00  0.00    -0.117 C  
HETATM   11  C   UNL     1      -6.988  10.111  68.374  1.00  0.00    -0.066 C  
HETATM   12  H   UNL     1      -8.610  10.784  65.404  1.00  0.00     0.000 HD 
HETATM   13  O   UNL     1      -9.095  11.187  69.040  1.00  0.00    -0.340 OA 
HETATM   14  H   UNL     1      -8.597  11.768  69.604  1.00  0.00     0.000 HD 
HETATM   15  O   UNL     1      -6.041  10.094  67.292  1.00  0.00    -0.056 OA 
HETATM   16  H   UNL     1      -5.946  10.991  66.993  1.00  0.00     0.000 HD 
ENDBRANCH   2   4
TORSDOF 1
ENDMDL
MODEL      237
REMARK 921   NORMALIZED FREE ENERGY PREDICTED BY IDOCK:   -1.21 KCAL/MOL
REMARK 922        TOTAL FREE ENERGY PREDICTED BY IDOCK:   -1.52 KCAL/MOL
REMARK 923 INTER-LIGAND FREE ENERGY PREDICTED BY IDOCK:   -1.46 KCAL/MOL
REMARK 924 INTRA-LIGAND FREE ENERGY PREDICTED BY IDOCK:   -0.06 KCAL/MOL
REMARK 927      BINDING AFFINITY PREDICTED BY RF-SCORE:    0.00 PKD
ROOT
HETATM    1  O   UNL     1      -9.188   5.769  72.211  1.00  0.00    -0.145 OA 
HETATM    2  C   UNL     1      -8.842   7.152  72.136  1.00  0.00    -0.128 C  
HETATM    3  H   UNL     1     -10.016   5.639  72.659  1.00  0.00     0.000 HD 
ENDROOT
BRANCH   2   4
HETATM    4  C   UNL     1      -7.505   7.360  71.412  1.00  0.00    -0.080 C  
HETATM    5  O   UNL     1      -7.534   6.588  70.191  1.00  0.00    -0.089 OA 
HETATM    6  C   UNL     1      -8.106   7.095  69.076  1.00  0.00    -0.121 C  
HETATM    7  C   UNL     1      -7.847   8.563  68.770  1.00  0.00    -0.110 C  
HETATM    8  O   UNL     1      -8.640   6.357  68.249  1.00  0.00    -0.115 OA 
HETATM    9  O   UNL     1      -6.593   8.692  68.086  1.00  0.00    -0.059 OA 
HETATM   10  C   UNL     1      -7.847   9.462  70.004  1.00  0.00    -0.132 C  
HETATM   11  C   UNL     1      -7.108   8.825  71.186  1.00  0.00    -0.089 C  
HETATM   12  H   UNL     1      -6.432   9.608  67.895  1.00  0.00     0.000 HD 
HETATM   13  O   UNL     1      -9.168   9.879  70.357  1.00  0.00    -0.356 OA 
HETATM   14  H   UNL     1      -9.167  10.438  71.126  1.00  0.00     0.000 HD 
HETATM   15  O   UNL     1      -5.686   8.846  70.978  1.00  0.00    -0.033 OA 
HETATM   16  H   UNL     1      -5.440   9.753  70.838  1.00  0.00     0.000 HD 
ENDBRANCH   2   4
TORSDOF 1
ENDMDL
MODEL      238
REMARK 921   NORMALIZED FREE ENERGY PREDICTED BY IDOCK:   -1.18 KCAL/MOL
REMARK 922        TOTAL FREE ENERGY PREDICTED BY IDOCK:   -1.49 KCAL/MOL
REMARK 923 INTER-LIGAND FREE ENERGY PREDICTED BY IDOCK:   -1.29 KCAL/MOL
REMARK 924 INTRA-LIGAND FREE ENERGY PREDICTED BY IDOCK:   -0.19 KCAL/MOL
REMARK 927      BINDING AFFINITY PREDICTED BY RF-SCORE:    0.00 PKD
ROOT
HETATM    1  O   UNL     1      -5.594   6.543  69.890  1.00  0.00    -0.014 OA 
HETATM    2  C   UNL     1      -6.572   7.449  70.402  1.00  0.00    -0.046 C  
HETATM    3  H   UNL     1      -5.244   6.840  69.059  1.00  0.00     0.000 HD 
ENDROOT
BRANCH   2   4
HETATM    4  C   UNL     1      -7.137   6.969  71.745  1.00  0.00    -0.070 C  
HETATM    5  O   UNL     1      -8.365   7.690  71.996  1.00  0.00    -0.103 OA 
HETATM    6  C   UNL     1      -9.530   7.258  71.462  1.00  0.00    -0.152 C  
HETATM    7  C   UNL     1      -9.784   5.758  71.469  1.00  0.00    -0.159 C  
HETATM    8  O   UNL     1     -10.422   8.054  71.170  1.00  0.00    -0.197 OA 
HETATM    9  O   UNL     1     -10.319   5.373  72.742  1.00  0.00    -0.180 OA 
HETATM   10  C   UNL     1      -8.544   4.920  71.166  1.00  0.00    -0.122 C  
HETATM   11  C   UNL     1      -7.296   5.449  71.880  1.00  0.00    -0.091 C  
HETATM   12  H   UNL     1     -10.478   4.437  72.747  1.00  0.00     0.000 HD 
HETATM   13  O   UNL     1      -8.336   4.769  69.760  1.00  0.00    -0.074 OA 
HETATM   14  H   UNL     1      -7.565   4.248  69.571  1.00  0.00     0.000 HD 
HETATM   15  O   UNL     1      -7.342   5.156  73.286  1.00  0.00    -0.087 OA 
HETATM   16  H   UNL     1      -7.440   4.214  73.370  1.00  0.00     0.000 HD 
ENDBRANCH   2   4
TORSDOF 1
ENDMDL
MODEL      239
REMARK 921   NORMALIZED FREE ENERGY PREDICTED BY IDOCK:   -1.18 KCAL/MOL
REMARK 922        TOTAL FREE ENERGY PREDICTED BY IDOCK:   -1.49 KCAL/MOL
REMARK 923 INTER-LIGAND FREE ENERGY PREDICTED BY IDOCK:   -1.46 KCAL/MOL
REMARK 924 INTRA-LIGAND FREE ENERGY PREDICTED BY IDOCK:   -0.03 KCAL/MOL
REMARK 927      BINDING AFFINITY PREDICTED BY RF-SCORE:    0.00 PKD
ROOT
HETATM    1  O   UNL     1      -8.701   5.139  67.458  1.00  0.00    -0.105 OA 
HETATM    2  C   UNL     1      -8.249   5.675  68.701  1.00  0.00    -0.103 C  
HETATM    3  H   UNL     1      -8.251   4.331  67.242  1.00  0.00     0.000 HD 
ENDROOT
BRANCH   2   4
HETATM    4  C   UNL     1      -8.976   6.981  69.049  1.00  0.00    -0.133 C  
HETATM    5  O   UNL     1      -9.080   7.064  70.489  1.00  0.00    -0.154 OA 
HETATM    6  C   UNL     1      -8.053   7.555  71.219  1.00  0.00    -0.096 C  
HETATM    7  C   UNL     1      -7.329   8.775  70.667  1.00  0.00    -0.072 C  
HETATM    8  O   UNL     1      -7.848   7.158  72.365  1.00  0.00    -0.092 OA 
HETATM    9  O   UNL     1      -8.049   9.960  71.032  1.00  0.00    -0.329 OA 
HETATM   10  C   UNL     1      -7.135   8.746  69.153  1.00  0.00    -0.063 C  
HETATM   11  C   UNL     1      -8.383   8.246  68.416  1.00  0.00    -0.132 C  
HETATM   12  H   UNL     1      -7.596  10.721  70.688  1.00  0.00     0.000 HD 
HETATM   13  O   UNL     1      -5.963   8.016  68.782  1.00  0.00    -0.037 OA 
HETATM   14  H   UNL     1      -5.842   7.998  67.839  1.00  0.00     0.000 HD 
HETATM   15  O   UNL     1      -9.418   9.243  68.421  1.00  0.00    -0.138 OA 
HETATM   16  H   UNL     1      -9.051  10.027  68.029  1.00  0.00     0.000 HD 
ENDBRANCH   2   4
TORSDOF 1
ENDMDL
MODEL      240
REMARK 921   NORMALIZED FREE ENERGY PREDICTED BY IDOCK:   -1.15 KCAL/MOL
REMARK 922        TOTAL FREE ENERGY PREDICTED BY IDOCK:   -1.45 KCAL/MOL
REMARK 923 INTER-LIGAND FREE ENERGY PREDICTED BY IDOCK:   -1.43 KCAL/MOL
REMARK 924 INTRA-LIGAND FREE ENERGY PREDICTED BY IDOCK:   -0.02 KCAL/MOL
REMARK 927      BINDING AFFINITY PREDICTED BY RF-SCORE:    0.00 PKD
ROOT
HETATM    1  O   UNL     1      -6.284   4.239  66.921  1.00  0.00    -0.033 OA 
HETATM    2  C   UNL     1      -6.614   5.430  67.637  1.00  0.00    -0.053 C  
HETATM    3  H   UNL     1      -5.486   3.843  67.251  1.00  0.00     0.000 HD 
ENDROOT
BRANCH   2   4
HETATM    4  C   UNL     1      -7.903   6.069  67.104  1.00  0.00    -0.102 C  
HETATM    5  O   UNL     1      -8.833   6.184  68.205  1.00  0.00    -0.114 OA 
HETATM    6  C   UNL     1      -8.770   7.243  69.043  1.00  0.00    -0.132 C  
HETATM    7  C   UNL     1      -8.513   8.607  68.419  1.00  0.00    -0.131 C  
HETATM    8  O   UNL     1      -9.102   7.134  70.222  1.00  0.00    -0.155 OA 
HETATM    9  O   UNL     1      -9.752   9.156  67.951  1.00  0.00    -0.147 OA 
HETATM   10  C   UNL     1      -7.504   8.584  67.274  1.00  0.00    -0.093 C  
HETATM   11  C   UNL     1      -7.711   7.386  66.341  1.00  0.00    -0.093 C  
HETATM   12  H   UNL     1      -9.592  10.008  67.562  1.00  0.00     0.000 HD 
HETATM   13  O   UNL     1      -6.159   8.668  67.750  1.00  0.00    -0.046 OA 
HETATM   14  H   UNL     1      -5.530   8.654  67.038  1.00  0.00     0.000 HD 
HETATM   15  O   UNL     1      -8.875   7.568  65.519  1.00  0.00    -0.332 OA 
HETATM   16  H   UNL     1      -8.757   8.384  65.046  1.00  0.00     0.000 HD 
ENDBRANCH   2   4
TORSDOF 1
ENDMDL
MODEL      241
REMARK 921   NORMALIZED FREE ENERGY PREDICTED BY IDOCK:   -1.15 KCAL/MOL
REMARK 922        TOTAL FREE ENERGY PREDICTED BY IDOCK:   -1.45 KCAL/MOL
REMARK 923 INTER-LIGAND FREE ENERGY PREDICTED BY IDOCK:   -1.71 KCAL/MOL
REMARK 924 INTRA-LIGAND FREE ENERGY PREDICTED BY IDOCK:    0.26 KCAL/MOL
REMARK 927      BINDING AFFINITY PREDICTED BY RF-SCORE:    0.00 PKD
ROOT
HETATM    1  O   UNL     1      -8.983   8.194  70.121  1.00  0.00    -0.144 OA 
HETATM    2  C   UNL     1      -7.764   7.535  69.776  1.00  0.00    -0.095 C  
HETATM    3  H   UNL     1      -9.005   9.083  69.786  1.00  0.00     0.000 HD 
ENDROOT
BRANCH   2   4
HETATM    4  C   UNL     1      -7.728   6.099  70.317  1.00  0.00    -0.097 C  
HETATM    5  O   UNL     1      -8.128   6.136  71.706  1.00  0.00    -0.109 OA 
HETATM    6  C   UNL     1      -9.438   6.125  72.038  1.00  0.00    -0.152 C  
HETATM    7  C   UNL     1     -10.348   5.195  71.248  1.00  0.00    -0.205 C  
HETATM    8  O   UNL     1      -9.835   6.687  73.059  1.00  0.00    -0.160 OA 
HETATM    9  O   UNL     1     -10.279   3.876  71.806  1.00  0.00    -0.149 OA 
HETATM   10  C   UNL     1     -10.023   5.133  69.757  1.00  0.00    -0.243 C  
HETATM   11  C   UNL     1      -8.515   5.072  69.493  1.00  0.00    -0.088 C  
HETATM   12  H   UNL     1     -10.847   3.296  71.313  1.00  0.00     0.000 HD 
HETATM   13  O   UNL     1     -10.654   6.191  69.032  1.00  0.00    -0.217 OA 
HETATM   14  H   UNL     1     -10.452   6.152  68.105  1.00  0.00     0.000 HD 
HETATM   15  O   UNL     1      -7.985   3.777  69.822  1.00  0.00    -0.051 OA 
HETATM   16  H   UNL     1      -8.473   3.140  69.312  1.00  0.00     0.000 HD 
ENDBRANCH   2   4
TORSDOF 1
ENDMDL
MODEL      242
REMARK 921   NORMALIZED FREE ENERGY PREDICTED BY IDOCK:   -1.08 KCAL/MOL
REMARK 922        TOTAL FREE ENERGY PREDICTED BY IDOCK:   -1.37 KCAL/MOL
REMARK 923 INTER-LIGAND FREE ENERGY PREDICTED BY IDOCK:   -1.33 KCAL/MOL
REMARK 924 INTRA-LIGAND FREE ENERGY PREDICTED BY IDOCK:   -0.05 KCAL/MOL
REMARK 927      BINDING AFFINITY PREDICTED BY RF-SCORE:    0.00 PKD
ROOT
HETATM    1  O   UNL     1      -6.123   3.358  68.663  1.00  0.00    -0.026 OA 
HETATM    2  C   UNL     1      -6.790   4.007  69.745  1.00  0.00    -0.041 C  
HETATM    3  H   UNL     1      -5.184   3.320  68.804  1.00  0.00     0.000 HD 
ENDROOT
BRANCH   2   4
HETATM    4  C   UNL     1      -8.307   4.069  69.516  1.00  0.00    -0.057 C  
HETATM    5  O   UNL     1      -8.939   4.348  70.786  1.00  0.00    -0.096 OA 
HETATM    6  C   UNL     1      -9.051   5.620  71.227  1.00  0.00    -0.143 C  
HETATM    7  C   UNL     1      -9.429   6.680  70.201  1.00  0.00    -0.158 C  
HETATM    8  O   UNL     1      -9.046   5.873  72.431  1.00  0.00    -0.141 OA 
HETATM    9  O   UNL     1     -10.854   6.696  70.039  1.00  0.00    -0.238 OA 
HETATM   10  C   UNL     1      -8.766   6.487  68.840  1.00  0.00    -0.127 C  
HETATM   11  C   UNL     1      -8.759   5.019  68.400  1.00  0.00    -0.101 C  
HETATM   12  H   UNL     1     -11.090   7.358  69.400  1.00  0.00     0.000 HD 
HETATM   13  O   UNL     1      -7.460   7.067  68.799  1.00  0.00    -0.094 OA 
HETATM   14  H   UNL     1      -7.047   6.947  67.952  1.00  0.00     0.000 HD 
HETATM   15  O   UNL     1     -10.071   4.596  67.995  1.00  0.00    -0.105 OA 
HETATM   16  H   UNL     1     -10.352   5.184  67.303  1.00  0.00     0.000 HD 
ENDBRANCH   2   4
TORSDOF 1
ENDMDL
MODEL      243
REMARK 921   NORMALIZED FREE ENERGY PREDICTED BY IDOCK:   -1.07 KCAL/MOL
REMARK 922        TOTAL FREE ENERGY PREDICTED BY IDOCK:   -1.37 KCAL/MOL
REMARK 923 INTER-LIGAND FREE ENERGY PREDICTED BY IDOCK:   -1.32 KCAL/MOL
REMARK 924 INTRA-LIGAND FREE ENERGY PREDICTED BY IDOCK:   -0.05 KCAL/MOL
REMARK 927      BINDING AFFINITY PREDICTED BY RF-SCORE:    0.00 PKD
ROOT
HETATM    1  O   UNL     1      -7.196  13.689  67.068  1.00  0.00    -0.350 OA 
HETATM    2  C   UNL     1      -8.443  13.311  66.485  1.00  0.00     0.294 C  
HETATM    3  H   UNL     1      -7.014  14.612  66.936  1.00  0.00     0.000 HD 
ENDROOT
BRANCH   2   4
HETATM    4  C   UNL     1      -8.735  11.819  66.699  1.00  0.00    -0.186 C  
HETATM    5  O   UNL     1      -8.852  11.587  68.121  1.00  0.00    -0.151 OA 
HETATM    6  C   UNL     1     -10.026  11.808  68.754  1.00  0.00    -0.115 C  
HETATM    7  C   UNL     1     -11.295  11.368  68.037  1.00  0.00    -0.303 C  
HETATM    8  O   UNL     1     -10.050  12.162  69.932  1.00  0.00     1.137 OA 
HETATM    9  O   UNL     1     -11.519   9.973  68.283  1.00  0.00    -0.530 OA 
HETATM   10  C   UNL     1     -11.274  11.622  66.532  1.00  0.00    -0.294 C  
HETATM   11  C   UNL     1      -9.923  11.267  65.901  1.00  0.00    -0.234 C  
HETATM   12  H   UNL     1     -12.311   9.699  67.836  1.00  0.00     0.000 HD 
HETATM   13  O   UNL     1     -11.684  12.954  66.213  1.00  0.00    -0.358 OA 
HETATM   14  H   UNL     1     -11.671  13.112  65.276  1.00  0.00     0.000 HD 
HETATM   15  O   UNL     1      -9.749   9.843  65.821  1.00  0.00    -0.226 OA 
HETATM   16  H   UNL     1     -10.485   9.501  65.327  1.00  0.00     0.000 HD 
ENDBRANCH   2   4
TORSDOF 1
ENDMDL
MODEL      244
REMARK 921   NORMALIZED FREE ENERGY PREDICTED BY IDOCK:   -1.06 KCAL/MOL
REMARK 922        TOTAL FREE ENERGY PREDICTED BY IDOCK:   -1.35 KCAL/MOL
REMARK 923 INTER-LIGAND FREE ENERGY PREDICTED BY IDOCK:   -1.31 KCAL/MOL
REMARK 924 INTRA-LIGAND FREE ENERGY PREDICTED BY IDOCK:   -0.05 KCAL/MOL
REMARK 927      BINDING AFFINITY PREDICTED BY RF-SCORE:    0.00 PKD
ROOT
HETATM    1  O   UNL     1      -6.172   3.724  70.644  1.00  0.00    -0.018 OA 
HETATM    2  C   UNL     1      -6.430   4.816  69.761  1.00  0.00    -0.035 C  
HETATM    3  H   UNL     1      -5.958   4.025  71.519  1.00  0.00     0.000 HD 
ENDROOT
BRANCH   2   4
HETATM    4  C   UNL     1      -6.777   4.329  68.348  1.00  0.00    -0.047 C  
HETATM    5  O   UNL     1      -7.623   3.163  68.472  1.00  0.00    -0.049 OA 
HETATM    6  C   UNL     1      -8.956   3.304  68.646  1.00  0.00    -0.132 C  
HETATM    7  C   UNL     1      -9.653   4.382  67.827  1.00  0.00    -0.160 C  
HETATM    8  O   UNL     1      -9.600   2.471  69.281  1.00  0.00    -0.109 OA 
HETATM    9  O   UNL     1      -9.960   3.865  66.526  1.00  0.00    -0.375 OA 
HETATM   10  C   UNL     1      -8.845   5.669  67.685  1.00  0.00    -0.105 C  
HETATM   11  C   UNL     1      -7.362   5.398  67.415  1.00  0.00    -0.083 C  
HETATM   12  H   UNL     1     -10.395   4.537  66.015  1.00  0.00     0.000 HD 
HETATM   13  O   UNL     1      -9.038   6.543  68.800  1.00  0.00    -0.127 OA 
HETATM   14  H   UNL     1      -8.536   7.344  68.711  1.00  0.00     0.000 HD 
HETATM   15  O   UNL     1      -7.158   4.937  66.070  1.00  0.00    -0.068 OA 
HETATM   16  H   UNL     1      -7.520   5.599  65.492  1.00  0.00     0.000 HD 
ENDBRANCH   2   4
TORSDOF 1
ENDMDL
MODEL      245
REMARK 921   NORMALIZED FREE ENERGY PREDICTED BY IDOCK:   -1.01 KCAL/MOL
REMARK 922        TOTAL FREE ENERGY PREDICTED BY IDOCK:   -1.30 KCAL/MOL
REMARK 923 INTER-LIGAND FREE ENERGY PREDICTED BY IDOCK:   -1.13 KCAL/MOL
REMARK 924 INTRA-LIGAND FREE ENERGY PREDICTED BY IDOCK:   -0.17 KCAL/MOL
REMARK 927      BINDING AFFINITY PREDICTED BY RF-SCORE:    0.00 PKD
ROOT
HETATM    1  O   UNL     1      -9.162   5.864  72.000  1.00  0.00    -0.147 OA 
HETATM    2  C   UNL     1     -10.088   4.907  71.483  1.00  0.00    -0.197 C  
HETATM    3  H   UNL     1      -9.515   6.745  71.965  1.00  0.00     0.000 HD 
ENDROOT
BRANCH   2   4
HETATM    4  C   UNL     1      -9.517   3.484  71.539  1.00  0.00    -0.152 C  
HETATM    5  O   UNL     1      -9.866   2.814  70.306  1.00  0.00    -0.035 OA 
HETATM    6  C   UNL     1      -9.100   2.973  69.203  1.00  0.00    -0.138 C  
HETATM    7  C   UNL     1      -7.591   2.972  69.400  1.00  0.00    -0.044 C  
HETATM    8  O   UNL     1      -9.596   2.919  68.078  1.00  0.00    -0.195 OA 
HETATM    9  O   UNL     1      -7.118   1.619  69.433  1.00  0.00    -0.036 OA 
HETATM   10  C   UNL     1      -7.131   3.702  70.659  1.00  0.00    -0.034 C  
HETATM   11  C   UNL     1      -8.021   3.393  71.868  1.00  0.00    -0.062 C  
HETATM   12  H   UNL     1      -6.176   1.618  69.556  1.00  0.00     0.000 HD 
HETATM   13  O   UNL     1      -6.993   5.107  70.438  1.00  0.00    -0.046 OA 
HETATM   14  H   UNL     1      -6.707   5.562  71.222  1.00  0.00     0.000 HD 
HETATM   15  O   UNL     1      -7.780   2.065  72.361  1.00  0.00    -0.043 OA 
HETATM   16  H   UNL     1      -6.854   2.009  72.565  1.00  0.00     0.000 HD 
ENDBRANCH   2   4
TORSDOF 1
ENDMDL
MODEL      246
REMARK 921   NORMALIZED FREE ENERGY PREDICTED BY IDOCK:   -0.97 KCAL/MOL
REMARK 922        TOTAL FREE ENERGY PREDICTED BY IDOCK:   -1.26 KCAL/MOL
REMARK 923 INTER-LIGAND FREE ENERGY PREDICTED BY IDOCK:   -1.75 KCAL/MOL
REMARK 924 INTRA-LIGAND FREE ENERGY PREDICTED BY IDOCK:    0.49 KCAL/MOL
REMARK 927      BINDING AFFINITY PREDICTED BY RF-SCORE:    0.00 PKD
ROOT
HETATM    1  O   UNL     1      -9.611   7.966  72.258  1.00  0.00    -0.165 OA 
HETATM    2  C   UNL     1     -10.862   7.288  72.147  1.00  0.00    -0.229 C  
HETATM    3  H   UNL     1      -9.723   8.909  72.261  1.00  0.00     0.000 HD 
ENDROOT
BRANCH   2   4
HETATM    4  C   UNL     1     -10.680   5.765  72.143  1.00  0.00    -0.231 C  
HETATM    5  O   UNL     1      -9.943   5.407  70.951  1.00  0.00    -0.181 OA 
HETATM    6  C   UNL     1      -8.593   5.471  70.940  1.00  0.00    -0.128 C  
HETATM    7  C   UNL     1      -7.864   4.982  72.182  1.00  0.00    -0.110 C  
HETATM    8  O   UNL     1      -7.983   5.724  69.901  1.00  0.00    -0.093 OA 
HETATM    9  O   UNL     1      -7.715   3.557  72.115  1.00  0.00    -0.056 OA 
HETATM   10  C   UNL     1      -8.552   5.358  73.492  1.00  0.00    -0.115 C  
HETATM   11  C   UNL     1     -10.072   5.178  73.423  1.00  0.00    -0.177 C  
HETATM   12  H   UNL     1      -7.259   3.252  72.891  1.00  0.00     0.000 HD 
HETATM   13  O   UNL     1      -8.186   6.671  73.925  1.00  0.00    -0.115 OA 
HETATM   14  H   UNL     1      -8.614   6.906  74.740  1.00  0.00     0.000 HD 
HETATM   15  O   UNL     1     -10.428   3.785  73.455  1.00  0.00    -0.148 OA 
HETATM   16  H   UNL     1     -10.051   3.421  74.248  1.00  0.00     0.000 HD 
ENDBRANCH   2   4
TORSDOF 1
ENDMDL
