MODEL        1
REMARK 921   NORMALIZED FREE ENERGY PREDICTED BY IDOCK:   -5.44 KCAL/MOL
REMARK 922        TOTAL FREE ENERGY PREDICTED BY IDOCK:   -7.18 KCAL/MOL
REMARK 923 INTER-LIGAND FREE ENERGY PREDICTED BY IDOCK:   -6.71 KCAL/MOL
REMARK 924 INTRA-LIGAND FREE ENERGY PREDICTED BY IDOCK:   -0.47 KCAL/MOL
REMARK 927      BINDING AFFINITY PREDICTED BY RF-SCORE:    0.00 PKD
ROOT
HETATM    1  O   UNL     1      -9.270  12.055  63.123  1.00  0.00    -0.662 OA 
HETATM    2  C   UNL     1     -10.528  11.417  63.361  1.00  0.00    -0.390 C  
HETATM    3  H   UNL     1      -8.643  11.388  62.870  1.00  0.00     0.000 HD 
ENDROOT
BRANCH   2   4
HETATM    4  C   UNL     1     -11.540  12.493  63.769  1.00  0.00    -0.475 C  
HETATM    5  H   UNL     1     -13.471  12.723  63.615  1.00  0.00     0.000 HD 
HETATM    6  O   UNL     1     -12.844  12.056  63.362  1.00  0.00    -0.760 OA 
BRANCH   4   7
HETATM    7  C   UNL     1     -11.529  12.771  65.282  1.00  0.00    -0.325 C  
HETATM    8  H   UNL     1     -10.222  12.707  66.758  1.00  0.00     0.000 HD 
HETATM    9  O   UNL     1     -10.229  12.535  65.824  1.00  0.00    -0.260 OA 
BRANCH   7  10
HETATM   10  C   UNL     1     -11.969  14.223  65.595  1.00  0.00    -0.386 C  
HETATM   11  H   UNL     1     -13.655  15.303  65.580  1.00  0.00     0.000 HD 
HETATM   12  O   UNL     1     -13.385  14.412  65.389  1.00  0.00    -0.568 OA 
BRANCH  10  13
HETATM   13  C   UNL     1     -11.219  15.275  64.767  1.00  0.00    -0.396 C  
HETATM   14  C   UNL     1     -10.468  16.327  65.603  1.00  0.00    -0.368 C  
HETATM   15  O   UNL     1     -12.111  15.858  63.815  1.00  0.00    -1.239 OA 
HETATM   16  O   UNL     1      -9.818  15.850  66.689  1.00  0.00    -0.236 OA 
HETATM   17  O   UNL     1     -10.412  17.508  65.273  1.00  0.00    -0.643 OA 
HETATM   18  H   UNL     1     -11.646  16.509  63.302  1.00  0.00     0.000 HD 
ENDBRANCH  10  13
ENDBRANCH   7  10
ENDBRANCH   4   7
ENDBRANCH   2   4
TORSDOF 4
ENDMDL
MODEL        2
REMARK 921   NORMALIZED FREE ENERGY PREDICTED BY IDOCK:   -5.24 KCAL/MOL
REMARK 922        TOTAL FREE ENERGY PREDICTED BY IDOCK:   -6.94 KCAL/MOL
REMARK 923 INTER-LIGAND FREE ENERGY PREDICTED BY IDOCK:   -6.51 KCAL/MOL
REMARK 924 INTRA-LIGAND FREE ENERGY PREDICTED BY IDOCK:   -0.43 KCAL/MOL
REMARK 927      BINDING AFFINITY PREDICTED BY RF-SCORE:    0.00 PKD
ROOT
HETATM    1  O   UNL     1     -10.449  10.558  62.350  1.00  0.00    -0.638 OA 
HETATM    2  C   UNL     1      -9.684  11.192  63.379  1.00  0.00    -0.352 C  
HETATM    3  H   UNL     1      -9.847  10.225  61.696  1.00  0.00     0.000 HD 
ENDROOT
BRANCH   2   4
HETATM    4  C   UNL     1     -10.656  11.730  64.434  1.00  0.00    -0.317 C  
HETATM    5  H   UNL     1     -10.489  12.531  66.206  1.00  0.00     0.000 HD 
HETATM    6  O   UNL     1      -9.887  12.197  65.552  1.00  0.00    -0.242 OA 
BRANCH   4   7
HETATM    7  C   UNL     1     -11.542  12.867  63.896  1.00  0.00    -0.453 C  
HETATM    8  H   UNL     1     -13.365  13.065  63.171  1.00  0.00     0.000 HD 
HETATM    9  O   UNL     1     -12.818  12.362  63.503  1.00  0.00    -0.749 OA 
BRANCH   7  10
HETATM   10  C   UNL     1     -11.726  13.988  64.950  1.00  0.00    -0.380 C  
HETATM   11  H   UNL     1     -13.230  14.883  65.922  1.00  0.00     0.000 HD 
HETATM   12  O   UNL     1     -13.117  14.195  65.276  1.00  0.00    -0.763 OA 
BRANCH  10  13
HETATM   13  C   UNL     1     -11.130  15.333  64.514  1.00  0.00    -0.245 C  
HETATM   14  C   UNL     1     -10.574  16.188  65.668  1.00  0.00    -0.363 C  
HETATM   15  O   UNL     1     -12.078  16.038  63.711  1.00  0.00    -1.318 OA 
HETATM   16  O   UNL     1      -9.884  15.509  66.613  1.00  0.00    -0.238 OA 
HETATM   17  O   UNL     1     -10.696  17.409  65.697  1.00  0.00    -0.458 OA 
HETATM   18  H   UNL     1     -11.709  16.870  63.440  1.00  0.00     0.000 HD 
ENDBRANCH  10  13
ENDBRANCH   7  10
ENDBRANCH   4   7
ENDBRANCH   2   4
TORSDOF 4
ENDMDL
MODEL        3
REMARK 921   NORMALIZED FREE ENERGY PREDICTED BY IDOCK:   -5.22 KCAL/MOL
REMARK 922        TOTAL FREE ENERGY PREDICTED BY IDOCK:   -6.92 KCAL/MOL
REMARK 923 INTER-LIGAND FREE ENERGY PREDICTED BY IDOCK:   -6.38 KCAL/MOL
REMARK 924 INTRA-LIGAND FREE ENERGY PREDICTED BY IDOCK:   -0.54 KCAL/MOL
REMARK 927      BINDING AFFINITY PREDICTED BY RF-SCORE:    0.00 PKD
ROOT
HETATM    1  O   UNL     1     -10.974  11.208  62.981  1.00  0.00    -0.820 OA 
HETATM    2  C   UNL     1     -10.077  11.088  64.088  1.00  0.00    -0.344 C  
HETATM    3  H   UNL     1     -10.460  11.203  62.182  1.00  0.00     0.000 HD 
ENDROOT
BRANCH   2   4
HETATM    4  C   UNL     1     -10.906  11.096  65.377  1.00  0.00    -0.142 C  
HETATM    5  H   UNL     1     -10.880  10.107  67.059  1.00  0.00     0.000 HD 
HETATM    6  O   UNL     1     -10.366  10.102  66.260  1.00  0.00    -0.226 OA 
BRANCH   4   7
HETATM    7  C   UNL     1     -10.907  12.469  66.071  1.00  0.00    -0.276 C  
HETATM    8  H   UNL     1      -9.628  13.940  66.375  1.00  0.00     0.000 HD 
HETATM    9  O   UNL     1      -9.628  13.091  65.947  1.00  0.00    -0.220 OA 
BRANCH   7  10
HETATM   10  C   UNL     1     -11.999  13.399  65.486  1.00  0.00    -0.398 C  
HETATM   11  H   UNL     1     -13.792  13.223  64.613  1.00  0.00     0.000 HD 
HETATM   12  O   UNL     1     -13.122  12.652  64.973  1.00  0.00    -0.808 OA 
BRANCH  10  13
HETATM   13  C   UNL     1     -11.480  14.314  64.369  1.00  0.00    -0.310 C  
HETATM   14  C   UNL     1     -11.369  15.799  64.761  1.00  0.00    -0.314 C  
HETATM   15  O   UNL     1     -12.255  14.110  63.186  1.00  0.00    -1.038 OA 
HETATM   16  O   UNL     1     -10.882  16.038  66.000  1.00  0.00    -0.286 OA 
HETATM   17  O   UNL     1     -11.646  16.705  63.980  1.00  0.00    -1.197 OA 
HETATM   18  H   UNL     1     -11.934  14.677  62.494  1.00  0.00     0.000 HD 
ENDBRANCH  10  13
ENDBRANCH   7  10
ENDBRANCH   4   7
ENDBRANCH   2   4
TORSDOF 4
ENDMDL
MODEL        4
REMARK 921   NORMALIZED FREE ENERGY PREDICTED BY IDOCK:   -5.14 KCAL/MOL
REMARK 922        TOTAL FREE ENERGY PREDICTED BY IDOCK:   -6.81 KCAL/MOL
REMARK 923 INTER-LIGAND FREE ENERGY PREDICTED BY IDOCK:   -6.40 KCAL/MOL
REMARK 924 INTRA-LIGAND FREE ENERGY PREDICTED BY IDOCK:   -0.40 KCAL/MOL
REMARK 927      BINDING AFFINITY PREDICTED BY RF-SCORE:    0.00 PKD
ROOT
HETATM    1  O   UNL     1     -12.465  14.190  63.203  1.00  0.00    -1.126 OA 
HETATM    2  C   UNL     1     -12.277  14.617  64.555  1.00  0.00    -0.456 C  
HETATM    3  H   UNL     1     -13.223  13.619  63.176  1.00  0.00     0.000 HD 
ENDROOT
BRANCH   2   4
HETATM    4  C   UNL     1     -11.055  15.540  64.598  1.00  0.00    -0.359 C  
HETATM    5  H   UNL     1     -10.687  17.393  64.111  1.00  0.00     0.000 HD 
HETATM    6  O   UNL     1     -11.445  16.822  64.084  1.00  0.00    -1.171 OA 
BRANCH   4   7
HETATM    7  C   UNL     1     -10.484  15.698  66.018  1.00  0.00    -0.331 C  
HETATM    8  H   UNL     1      -8.992  14.952  67.072  1.00  0.00     0.000 HD 
HETATM    9  O   UNL     1      -9.345  14.855  66.195  1.00  0.00    -0.292 OA 
BRANCH   7  10
HETATM   10  C   UNL     1     -10.094  17.169  66.312  1.00  0.00    -0.320 C  
HETATM   11  H   UNL     1      -8.483  18.345  66.133  1.00  0.00     0.000 HD 
HETATM   12  O   UNL     1      -8.723  17.443  65.952  1.00  0.00    -0.522 OA 
BRANCH  10  13
HETATM   13  C   UNL     1     -10.294  17.566  67.780  1.00  0.00    -0.367 C  
HETATM   14  C   UNL     1     -10.225  19.082  68.045  1.00  0.00    -0.399 C  
HETATM   15  O   UNL     1      -9.396  16.819  68.603  1.00  0.00    -0.237 OA 
HETATM   16  O   UNL     1     -10.843  19.860  67.129  1.00  0.00    -0.409 OA 
HETATM   17  O   UNL     1      -9.698  19.547  69.051  1.00  0.00    -0.412 OA 
HETATM   18  H   UNL     1      -9.521  17.065  69.513  1.00  0.00     0.000 HD 
ENDBRANCH  10  13
ENDBRANCH   7  10
ENDBRANCH   4   7
ENDBRANCH   2   4
TORSDOF 4
ENDMDL
MODEL        5
REMARK 921   NORMALIZED FREE ENERGY PREDICTED BY IDOCK:   -5.03 KCAL/MOL
REMARK 922        TOTAL FREE ENERGY PREDICTED BY IDOCK:   -6.67 KCAL/MOL
REMARK 923 INTER-LIGAND FREE ENERGY PREDICTED BY IDOCK:   -6.06 KCAL/MOL
REMARK 924 INTRA-LIGAND FREE ENERGY PREDICTED BY IDOCK:   -0.61 KCAL/MOL
REMARK 927      BINDING AFFINITY PREDICTED BY RF-SCORE:    0.00 PKD
ROOT
HETATM    1  O   UNL     1      -9.611  12.599  67.092  1.00  0.00    -0.198 OA 
HETATM    2  C   UNL     1      -9.855  11.701  66.005  1.00  0.00    -0.230 C  
HETATM    3  H   UNL     1      -8.769  12.380  67.473  1.00  0.00     0.000 HD 
ENDROOT
BRANCH   2   4
HETATM    4  C   UNL     1     -11.213  12.055  65.390  1.00  0.00    -0.322 C  
HETATM    5  H   UNL     1     -12.932  12.680  66.069  1.00  0.00     0.000 HD 
HETATM    6  O   UNL     1     -12.091  12.460  66.450  1.00  0.00    -0.607 OA 
BRANCH   4   7
HETATM    7  C   UNL     1     -11.111  13.174  64.339  1.00  0.00    -0.381 C  
HETATM    8  H   UNL     1     -11.639  13.448  62.458  1.00  0.00     0.000 HD 
HETATM    9  O   UNL     1     -11.702  12.757  63.107  1.00  0.00    -0.472 OA 
BRANCH   7  10
HETATM   10  C   UNL     1     -11.793  14.476  64.829  1.00  0.00    -0.441 C  
HETATM   11  H   UNL     1     -13.328  15.644  64.293  1.00  0.00     0.000 HD 
HETATM   12  O   UNL     1     -12.910  14.846  63.993  1.00  0.00    -0.701 OA 
BRANCH  10  13
HETATM   13  C   UNL     1     -10.834  15.671  64.905  1.00  0.00    -0.418 C  
HETATM   14  C   UNL     1     -10.574  16.191  66.331  1.00  0.00    -0.269 C  
HETATM   15  O   UNL     1     -11.278  16.696  64.014  1.00  0.00    -1.449 OA 
HETATM   16  O   UNL     1     -10.412  15.237  67.276  1.00  0.00    -0.265 OA 
HETATM   17  O   UNL     1     -10.461  17.387  66.582  1.00  0.00    -0.310 OA 
HETATM   18  H   UNL     1     -10.683  17.436  64.061  1.00  0.00     0.000 HD 
ENDBRANCH  10  13
ENDBRANCH   7  10
ENDBRANCH   4   7
ENDBRANCH   2   4
TORSDOF 4
ENDMDL
MODEL        6
REMARK 921   NORMALIZED FREE ENERGY PREDICTED BY IDOCK:   -4.98 KCAL/MOL
REMARK 922        TOTAL FREE ENERGY PREDICTED BY IDOCK:   -6.61 KCAL/MOL
REMARK 923 INTER-LIGAND FREE ENERGY PREDICTED BY IDOCK:   -6.18 KCAL/MOL
REMARK 924 INTRA-LIGAND FREE ENERGY PREDICTED BY IDOCK:   -0.43 KCAL/MOL
REMARK 927      BINDING AFFINITY PREDICTED BY RF-SCORE:    0.00 PKD
ROOT
HETATM    1  O   UNL     1      -8.606  18.331  66.119  1.00  0.00    -0.455 OA 
HETATM    2  C   UNL     1      -8.826  16.933  66.325  1.00  0.00    -0.279 C  
HETATM    3  H   UNL     1      -7.726  18.444  65.781  1.00  0.00     0.000 HD 
ENDROOT
BRANCH   2   4
HETATM    4  C   UNL     1     -10.247  16.749  66.870  1.00  0.00    -0.290 C  
HETATM    5  H   UNL     1     -11.542  17.876  67.797  1.00  0.00     0.000 HD 
HETATM    6  O   UNL     1     -10.662  17.990  67.459  1.00  0.00    -0.404 OA 
BRANCH   4   7
HETATM    7  C   UNL     1     -11.248  16.328  65.780  1.00  0.00     0.199 C  
HETATM    8  H   UNL     1     -11.622  16.789  63.899  1.00  0.00     0.000 HD 
HETATM    9  O   UNL     1     -11.005  17.050  64.572  1.00  0.00    -1.031 OA 
BRANCH   7  10
HETATM   10  C   UNL     1     -11.173  14.805  65.500  1.00  0.00    -0.346 C  
HETATM   11  H   UNL     1      -9.955  13.523  64.561  1.00  0.00     0.000 HD 
HETATM   12  O   UNL     1     -10.001  14.457  64.732  1.00  0.00    -0.269 OA 
BRANCH  10  13
HETATM   13  C   UNL     1     -12.406  14.263  64.767  1.00  0.00    -0.426 C  
HETATM   14  C   UNL     1     -12.512  12.727  64.746  1.00  0.00    -0.472 C  
HETATM   15  O   UNL     1     -12.477  14.840  63.461  1.00  0.00    -1.053 OA 
HETATM   16  O   UNL     1     -12.188  12.107  65.904  1.00  0.00    -0.604 OA 
HETATM   17  O   UNL     1     -12.920  12.111  63.766  1.00  0.00    -0.753 OA 
HETATM   18  H   UNL     1     -13.241  14.504  63.007  1.00  0.00     0.000 HD 
ENDBRANCH  10  13
ENDBRANCH   7  10
ENDBRANCH   4   7
ENDBRANCH   2   4
TORSDOF 4
ENDMDL
MODEL        7
REMARK 921   NORMALIZED FREE ENERGY PREDICTED BY IDOCK:   -4.98 KCAL/MOL
REMARK 922        TOTAL FREE ENERGY PREDICTED BY IDOCK:   -6.61 KCAL/MOL
REMARK 923 INTER-LIGAND FREE ENERGY PREDICTED BY IDOCK:   -6.39 KCAL/MOL
REMARK 924 INTRA-LIGAND FREE ENERGY PREDICTED BY IDOCK:   -0.22 KCAL/MOL
REMARK 927      BINDING AFFINITY PREDICTED BY RF-SCORE:    0.00 PKD
ROOT
HETATM    1  O   UNL     1     -12.494  10.700  68.679  1.00  0.00    -0.788 OA 
HETATM    2  C   UNL     1     -11.295  10.804  67.906  1.00  0.00    -0.299 C  
HETATM    3  H   UNL     1     -12.668   9.779  68.833  1.00  0.00     0.000 HD 
ENDROOT
BRANCH   2   4
HETATM    4  C   UNL     1     -11.015  12.290  67.659  1.00  0.00    -0.244 C  
HETATM    5  H   UNL     1      -9.670  13.574  68.252  1.00  0.00     0.000 HD 
HETATM    6  O   UNL     1      -9.844  12.653  68.405  1.00  0.00    -0.226 OA 
BRANCH   4   7
HETATM    7  C   UNL     1     -10.806  12.612  66.169  1.00  0.00    -0.273 C  
HETATM    8  H   UNL     1     -10.702  11.613  64.471  1.00  0.00     0.000 HD 
HETATM    9  O   UNL     1     -10.831  11.414  65.392  1.00  0.00    -0.281 OA 
BRANCH   7  10
HETATM   10  C   UNL     1     -11.883  13.595  65.645  1.00  0.00    -0.364 C  
HETATM   11  H   UNL     1     -13.767  13.518  64.972  1.00  0.00     0.000 HD 
HETATM   12  O   UNL     1     -13.106  12.915  65.293  1.00  0.00    -0.682 OA 
BRANCH  10  13
HETATM   13  C   UNL     1     -11.420  14.410  64.431  1.00  0.00    -0.288 C  
HETATM   14  C   UNL     1     -11.135  15.894  64.729  1.00  0.00    -0.384 C  
HETATM   15  O   UNL     1     -12.343  14.229  63.355  1.00  0.00    -1.113 OA 
HETATM   16  O   UNL     1     -10.488  16.138  65.892  1.00  0.00    -0.330 OA 
HETATM   17  O   UNL     1     -11.421  16.788  63.939  1.00  0.00    -1.116 OA 
HETATM   18  H   UNL     1     -12.055  14.734  62.603  1.00  0.00     0.000 HD 
ENDBRANCH  10  13
ENDBRANCH   7  10
ENDBRANCH   4   7
ENDBRANCH   2   4
TORSDOF 4
ENDMDL
MODEL        8
REMARK 921   NORMALIZED FREE ENERGY PREDICTED BY IDOCK:   -4.95 KCAL/MOL
REMARK 922        TOTAL FREE ENERGY PREDICTED BY IDOCK:   -6.58 KCAL/MOL
REMARK 923 INTER-LIGAND FREE ENERGY PREDICTED BY IDOCK:   -5.57 KCAL/MOL
REMARK 924 INTRA-LIGAND FREE ENERGY PREDICTED BY IDOCK:   -1.01 KCAL/MOL
REMARK 927      BINDING AFFINITY PREDICTED BY RF-SCORE:    0.00 PKD
ROOT
HETATM    1  O   UNL     1      -9.582  12.579  63.806  1.00  0.00    -0.659 OA 
HETATM    2  C   UNL     1     -10.741  11.752  63.673  1.00  0.00    -0.440 C  
HETATM    3  H   UNL     1      -8.815  12.035  63.674  1.00  0.00     0.000 HD 
ENDROOT
BRANCH   2   4
HETATM    4  C   UNL     1     -11.980  12.630  63.885  1.00  0.00    -0.479 C  
HETATM    5  H   UNL     1     -13.862  12.533  63.380  1.00  0.00     0.000 HD 
HETATM    6  O   UNL     1     -13.095  11.989  63.249  1.00  0.00    -0.701 OA 
BRANCH   4   7
HETATM    7  C   UNL     1     -12.290  12.863  65.373  1.00  0.00    -0.485 C  
HETATM    8  H   UNL     1     -11.879  11.991  67.094  1.00  0.00     0.000 HD 
HETATM    9  O   UNL     1     -11.687  11.847  66.175  1.00  0.00    -0.484 OA 
BRANCH   7  10
HETATM   10  C   UNL     1     -11.799  14.256  65.843  1.00  0.00    -0.380 C  
HETATM   11  H   UNL     1     -11.083  15.936  65.022  1.00  0.00     0.000 HD 
HETATM   12  O   UNL     1     -11.384  15.081  64.734  1.00  0.00    -0.402 OA 
BRANCH  10  13
HETATM   13  C   UNL     1     -10.642  14.184  66.847  1.00  0.00    -0.280 C  
HETATM   14  C   UNL     1     -10.598  15.347  67.855  1.00  0.00    -0.267 C  
HETATM   15  O   UNL     1      -9.410  14.014  66.144  1.00  0.00    -0.456 OA 
HETATM   16  O   UNL     1     -11.796  15.728  68.354  1.00  0.00    -0.338 OA 
HETATM   17  O   UNL     1      -9.544  15.854  68.226  1.00  0.00    -0.202 OA 
HETATM   18  H   UNL     1      -8.693  13.969  66.766  1.00  0.00     0.000 HD 
ENDBRANCH  10  13
ENDBRANCH   7  10
ENDBRANCH   4   7
ENDBRANCH   2   4
TORSDOF 4
ENDMDL
MODEL        9
REMARK 921   NORMALIZED FREE ENERGY PREDICTED BY IDOCK:   -4.93 KCAL/MOL
REMARK 922        TOTAL FREE ENERGY PREDICTED BY IDOCK:   -6.55 KCAL/MOL
REMARK 923 INTER-LIGAND FREE ENERGY PREDICTED BY IDOCK:   -5.63 KCAL/MOL
REMARK 924 INTRA-LIGAND FREE ENERGY PREDICTED BY IDOCK:   -0.93 KCAL/MOL
REMARK 927      BINDING AFFINITY PREDICTED BY RF-SCORE:    0.00 PKD
ROOT
HETATM    1  O   UNL     1     -12.505  13.944  63.373  1.00  0.00    -1.068 OA 
HETATM    2  C   UNL     1     -12.405  12.739  64.137  1.00  0.00    -0.407 C  
HETATM    3  H   UNL     1     -12.746  13.712  62.484  1.00  0.00     0.000 HD 
ENDROOT
BRANCH   2   4
HETATM    4  C   UNL     1     -12.016  13.115  65.571  1.00  0.00    -0.412 C  
HETATM    5  H   UNL     1     -12.010  12.208  67.298  1.00  0.00     0.000 HD 
HETATM    6  O   UNL     1     -12.251  11.975  66.410  1.00  0.00    -0.551 OA 
BRANCH   4   7
HETATM    7  C   UNL     1     -10.546  13.555  65.687  1.00  0.00    -0.284 C  
HETATM    8  H   UNL     1      -9.051  13.952  64.464  1.00  0.00     0.000 HD 
HETATM    9  O   UNL     1      -9.958  13.680  64.392  1.00  0.00    -0.268 OA 
BRANCH   7  10
HETATM   10  C   UNL     1     -10.415  14.898  66.450  1.00  0.00    -0.299 C  
HETATM   11  H   UNL     1     -11.578  16.106  67.544  1.00  0.00     0.000 HD 
HETATM   12  O   UNL     1     -11.658  15.282  67.076  1.00  0.00    -0.245 OA 
BRANCH  10  13
HETATM   13  C   UNL     1      -9.946  16.056  65.561  1.00  0.00    -0.247 C  
HETATM   14  C   UNL     1      -9.612  17.351  66.325  1.00  0.00    -0.242 C  
HETATM   15  O   UNL     1     -10.890  16.262  64.509  1.00  0.00    -0.867 OA 
HETATM   16  O   UNL     1      -8.941  17.183  67.487  1.00  0.00    -0.218 OA 
HETATM   17  O   UNL     1      -9.883  18.463  65.880  1.00  0.00    -0.517 OA 
HETATM   18  H   UNL     1     -10.599  16.980  63.958  1.00  0.00     0.000 HD 
ENDBRANCH  10  13
ENDBRANCH   7  10
ENDBRANCH   4   7
ENDBRANCH   2   4
TORSDOF 4
ENDMDL
MODEL       10
REMARK 921   NORMALIZED FREE ENERGY PREDICTED BY IDOCK:   -4.93 KCAL/MOL
REMARK 922        TOTAL FREE ENERGY PREDICTED BY IDOCK:   -6.55 KCAL/MOL
REMARK 923 INTER-LIGAND FREE ENERGY PREDICTED BY IDOCK:   -6.28 KCAL/MOL
REMARK 924 INTRA-LIGAND FREE ENERGY PREDICTED BY IDOCK:   -0.27 KCAL/MOL
REMARK 927      BINDING AFFINITY PREDICTED BY RF-SCORE:    0.00 PKD
ROOT
HETATM    1  O   UNL     1     -11.613  16.356  63.756  1.00  0.00    -1.605 OA 
HETATM    2  C   UNL     1     -11.352  15.549  64.908  1.00  0.00    -0.335 C  
HETATM    3  H   UNL     1     -12.354  15.981  63.294  1.00  0.00     0.000 HD 
ENDROOT
BRANCH   2   4
HETATM    4  C   UNL     1     -10.158  16.155  65.653  1.00  0.00    -0.337 C  
HETATM    5  H   UNL     1      -9.447  17.951  65.924  1.00  0.00     0.000 HD 
HETATM    6  O   UNL     1     -10.188  17.576  65.463  1.00  0.00    -0.608 OA 
BRANCH   4   7
HETATM    7  C   UNL     1     -10.173  15.828  67.156  1.00  0.00    -0.279 C  
HETATM    8  H   UNL     1     -10.298  16.823  68.855  1.00  0.00     0.000 HD 
HETATM    9  O   UNL     1     -10.289  17.024  67.926  1.00  0.00    -0.308 OA 
BRANCH   7  10
HETATM   10  C   UNL     1     -11.332  14.863  67.515  1.00  0.00    -0.342 C  
HETATM   11  H   UNL     1     -12.864  14.792  68.802  1.00  0.00     0.000 HD 
HETATM   12  O   UNL     1     -12.153  15.384  68.582  1.00  0.00    -0.260 OA 
BRANCH  10  13
HETATM   13  C   UNL     1     -10.851  13.463  67.918  1.00  0.00    -0.247 C  
HETATM   14  C   UNL     1     -11.782  12.318  67.480  1.00  0.00    -0.332 C  
HETATM   15  O   UNL     1     -10.568  13.441  69.319  1.00  0.00    -0.438 OA 
HETATM   16  O   UNL     1     -12.299  12.434  66.236  1.00  0.00    -0.577 OA 
HETATM   17  O   UNL     1     -11.994  11.338  68.188  1.00  0.00    -0.610 OA 
HETATM   18  H   UNL     1     -10.270  12.574  69.569  1.00  0.00     0.000 HD 
ENDBRANCH  10  13
ENDBRANCH   7  10
ENDBRANCH   4   7
ENDBRANCH   2   4
TORSDOF 4
ENDMDL
MODEL       11
REMARK 921   NORMALIZED FREE ENERGY PREDICTED BY IDOCK:   -4.89 KCAL/MOL
REMARK 922        TOTAL FREE ENERGY PREDICTED BY IDOCK:   -6.50 KCAL/MOL
REMARK 923 INTER-LIGAND FREE ENERGY PREDICTED BY IDOCK:   -5.92 KCAL/MOL
REMARK 924 INTRA-LIGAND FREE ENERGY PREDICTED BY IDOCK:   -0.58 KCAL/MOL
REMARK 927      BINDING AFFINITY PREDICTED BY RF-SCORE:    0.00 PKD
ROOT
HETATM    1  O   UNL     1     -12.348  11.471  62.956  1.00  0.00    -0.975 OA 
HETATM    2  C   UNL     1     -11.231  12.049  63.637  1.00  0.00    -0.450 C  
HETATM    3  H   UNL     1     -12.097  10.605  62.658  1.00  0.00     0.000 HD 
ENDROOT
BRANCH   2   4
HETATM    4  C   UNL     1     -11.636  13.447  64.117  1.00  0.00    -0.398 C  
HETATM    5  H   UNL     1     -12.875  14.827  63.509  1.00  0.00     0.000 HD 
HETATM    6  O   UNL     1     -12.624  13.960  63.212  1.00  0.00    -0.824 OA 
BRANCH   4   7
HETATM    7  C   UNL     1     -12.195  13.440  65.551  1.00  0.00    -0.455 C  
HETATM    8  H   UNL     1     -12.607  12.101  66.939  1.00  0.00     0.000 HD 
HETATM    9  O   UNL     1     -12.262  12.105  66.054  1.00  0.00    -0.609 OA 
BRANCH   7  10
HETATM   10  C   UNL     1     -11.333  14.311  66.499  1.00  0.00    -0.346 C  
HETATM   11  H   UNL     1      -9.505  14.262  67.315  1.00  0.00     0.000 HD 
HETATM   12  O   UNL     1     -10.034  13.727  66.733  1.00  0.00    -0.256 OA 
BRANCH  10  13
HETATM   13  C   UNL     1     -11.997  14.566  67.858  1.00  0.00    -0.287 C  
HETATM   14  C   UNL     1     -11.370  15.714  68.670  1.00  0.00    -0.357 C  
HETATM   15  O   UNL     1     -12.065  13.342  68.593  1.00  0.00    -0.337 OA 
HETATM   16  O   UNL     1     -11.034  16.813  67.957  1.00  0.00    -0.356 OA 
HETATM   17  O   UNL     1     -11.238  15.659  69.889  1.00  0.00    -0.274 OA 
HETATM   18  H   UNL     1     -12.476  13.499  69.434  1.00  0.00     0.000 HD 
ENDBRANCH  10  13
ENDBRANCH   7  10
ENDBRANCH   4   7
ENDBRANCH   2   4
TORSDOF 4
ENDMDL
MODEL       12
REMARK 921   NORMALIZED FREE ENERGY PREDICTED BY IDOCK:   -4.87 KCAL/MOL
REMARK 922        TOTAL FREE ENERGY PREDICTED BY IDOCK:   -6.48 KCAL/MOL
REMARK 923 INTER-LIGAND FREE ENERGY PREDICTED BY IDOCK:   -6.22 KCAL/MOL
REMARK 924 INTRA-LIGAND FREE ENERGY PREDICTED BY IDOCK:   -0.26 KCAL/MOL
REMARK 927      BINDING AFFINITY PREDICTED BY RF-SCORE:    0.00 PKD
ROOT
HETATM    1  O   UNL     1     -11.549  16.539  63.773  1.00  0.00    -1.617 OA 
HETATM    2  C   UNL     1     -11.168  15.356  64.481  1.00  0.00    -0.299 C  
HETATM    3  H   UNL     1     -10.773  17.071  63.647  1.00  0.00     0.000 HD 
ENDROOT
BRANCH   2   4
HETATM    4  C   UNL     1     -12.421  14.497  64.684  1.00  0.00    -0.321 C  
HETATM    5  H   UNL     1     -13.285  13.039  63.718  1.00  0.00     0.000 HD 
HETATM    6  O   UNL     1     -12.509  13.571  63.592  1.00  0.00    -0.718 OA 
BRANCH   4   7
HETATM    7  C   UNL     1     -12.403  13.732  66.019  1.00  0.00    -0.457 C  
HETATM    8  H   UNL     1     -12.332  11.852  66.611  1.00  0.00     0.000 HD 
HETATM    9  O   UNL     1     -12.344  12.325  65.787  1.00  0.00    -0.622 OA 
BRANCH   7  10
HETATM   10  C   UNL     1     -11.207  14.165  66.904  1.00  0.00    -0.317 C  
HETATM   11  H   UNL     1      -9.723  13.296  67.928  1.00  0.00     0.000 HD 
HETATM   12  O   UNL     1     -10.456  13.030  67.385  1.00  0.00    -0.232 OA 
BRANCH  10  13
HETATM   13  C   UNL     1     -11.624  15.012  68.113  1.00  0.00    -0.340 C  
HETATM   14  C   UNL     1     -10.449  15.599  68.917  1.00  0.00    -0.220 C  
HETATM   15  O   UNL     1     -12.533  14.268  68.926  1.00  0.00    -0.563 OA 
HETATM   16  O   UNL     1      -9.424  16.081  68.178  1.00  0.00    -0.205 OA 
HETATM   17  O   UNL     1     -10.467  15.679  70.141  1.00  0.00    -0.305 OA 
HETATM   18  H   UNL     1     -12.792  14.793  69.675  1.00  0.00     0.000 HD 
ENDBRANCH  10  13
ENDBRANCH   7  10
ENDBRANCH   4   7
ENDBRANCH   2   4
TORSDOF 4
ENDMDL
MODEL       13
REMARK 921   NORMALIZED FREE ENERGY PREDICTED BY IDOCK:   -4.86 KCAL/MOL
REMARK 922        TOTAL FREE ENERGY PREDICTED BY IDOCK:   -6.47 KCAL/MOL
REMARK 923 INTER-LIGAND FREE ENERGY PREDICTED BY IDOCK:   -6.22 KCAL/MOL
REMARK 924 INTRA-LIGAND FREE ENERGY PREDICTED BY IDOCK:   -0.25 KCAL/MOL
REMARK 927      BINDING AFFINITY PREDICTED BY RF-SCORE:    0.00 PKD
ROOT
HETATM    1  O   UNL     1     -12.656  11.334  62.898  1.00  0.00    -0.917 OA 
HETATM    2  C   UNL     1     -11.451  11.842  63.478  1.00  0.00    -0.430 C  
HETATM    3  H   UNL     1     -12.511  10.425  62.665  1.00  0.00     0.000 HD 
ENDROOT
BRANCH   2   4
HETATM    4  C   UNL     1     -11.684  13.309  63.854  1.00  0.00    -0.431 C  
HETATM    5  H   UNL     1     -12.848  14.743  63.224  1.00  0.00     0.000 HD 
HETATM    6  O   UNL     1     -12.703  13.834  62.991  1.00  0.00    -0.671 OA 
BRANCH   4   7
HETATM    7  C   UNL     1     -12.104  13.482  65.324  1.00  0.00    -0.411 C  
HETATM    8  H   UNL     1     -12.614  12.319  66.833  1.00  0.00     0.000 HD 
HETATM    9  O   UNL     1     -12.356  12.212  65.925  1.00  0.00    -0.561 OA 
BRANCH   7  10
HETATM   10  C   UNL     1     -11.021  14.237  66.137  1.00  0.00    -0.313 C  
HETATM   11  H   UNL     1     -10.925  15.403  67.762  1.00  0.00     0.000 HD 
HETATM   12  O   UNL     1     -11.588  14.940  67.263  1.00  0.00    -0.360 OA 
BRANCH  10  13
HETATM   13  C   UNL     1     -10.223  15.242  65.296  1.00  0.00    -0.364 C  
HETATM   14  C   UNL     1      -9.061  15.920  66.045  1.00  0.00    -0.328 C  
HETATM   15  O   UNL     1     -11.119  16.181  64.698  1.00  0.00    -0.691 OA 
HETATM   16  O   UNL     1      -8.336  15.108  66.848  1.00  0.00    -0.222 OA 
HETATM   17  O   UNL     1      -8.775  17.102  65.878  1.00  0.00    -0.526 OA 
HETATM   18  H   UNL     1     -10.625  16.803  64.177  1.00  0.00     0.000 HD 
ENDBRANCH  10  13
ENDBRANCH   7  10
ENDBRANCH   4   7
ENDBRANCH   2   4
TORSDOF 4
ENDMDL
MODEL       14
REMARK 921   NORMALIZED FREE ENERGY PREDICTED BY IDOCK:   -4.80 KCAL/MOL
REMARK 922        TOTAL FREE ENERGY PREDICTED BY IDOCK:   -6.40 KCAL/MOL
REMARK 923 INTER-LIGAND FREE ENERGY PREDICTED BY IDOCK:   -6.29 KCAL/MOL
REMARK 924 INTRA-LIGAND FREE ENERGY PREDICTED BY IDOCK:   -0.10 KCAL/MOL
REMARK 927      BINDING AFFINITY PREDICTED BY RF-SCORE:    0.00 PKD
ROOT
HETATM    1  O   UNL     1     -10.857  10.902  62.714  1.00  0.00    -0.750 OA 
HETATM    2  C   UNL     1     -10.647  11.902  63.715  1.00  0.00    -0.422 C  
HETATM    3  H   UNL     1     -10.069  10.376  62.652  1.00  0.00     0.000 HD 
ENDROOT
BRANCH   2   4
HETATM    4  C   UNL     1     -11.919  12.751  63.816  1.00  0.00    -0.510 C  
HETATM    5  H   UNL     1     -13.835  12.418  63.658  1.00  0.00     0.000 HD 
HETATM    6  O   UNL     1     -13.047  11.892  63.596  1.00  0.00    -0.696 OA 
BRANCH   4   7
HETATM    7  C   UNL     1     -12.054  13.453  65.178  1.00  0.00    -0.409 C  
HETATM    8  H   UNL     1     -12.335  12.928  67.058  1.00  0.00     0.000 HD 
HETATM    9  O   UNL     1     -12.252  12.494  66.217  1.00  0.00    -0.600 OA 
BRANCH   7  10
HETATM   10  C   UNL     1     -10.807  14.317  65.496  1.00  0.00    -0.322 C  
HETATM   11  H   UNL     1      -9.129  14.165  66.577  1.00  0.00     0.000 HD 
HETATM   12  O   UNL     1      -9.894  13.635  66.381  1.00  0.00    -0.282 OA 
BRANCH  10  13
HETATM   13  C   UNL     1     -11.154  15.676  66.118  1.00  0.00    -0.127 C  
HETATM   14  C   UNL     1     -11.012  16.871  65.157  1.00  0.00    -0.053 C  
HETATM   15  O   UNL     1     -10.417  15.848  67.329  1.00  0.00    -0.298 OA 
HETATM   16  O   UNL     1     -11.460  16.661  63.899  1.00  0.00    -1.186 OA 
HETATM   17  O   UNL     1     -10.579  17.959  65.525  1.00  0.00    -0.638 OA 
HETATM   18  H   UNL     1     -10.633  16.690  67.715  1.00  0.00     0.000 HD 
ENDBRANCH  10  13
ENDBRANCH   7  10
ENDBRANCH   4   7
ENDBRANCH   2   4
TORSDOF 4
ENDMDL
MODEL       15
REMARK 921   NORMALIZED FREE ENERGY PREDICTED BY IDOCK:   -4.79 KCAL/MOL
REMARK 922        TOTAL FREE ENERGY PREDICTED BY IDOCK:   -6.38 KCAL/MOL
REMARK 923 INTER-LIGAND FREE ENERGY PREDICTED BY IDOCK:   -5.96 KCAL/MOL
REMARK 924 INTRA-LIGAND FREE ENERGY PREDICTED BY IDOCK:   -0.41 KCAL/MOL
REMARK 927      BINDING AFFINITY PREDICTED BY RF-SCORE:    0.00 PKD
ROOT
HETATM    1  O   UNL     1     -11.414  16.434  63.761  1.00  0.00    -1.590 OA 
HETATM    2  C   UNL     1     -11.303  15.274  64.592  1.00  0.00    -0.358 C  
HETATM    3  H   UNL     1     -10.658  16.986  63.922  1.00  0.00     0.000 HD 
ENDROOT
BRANCH   2   4
HETATM    4  C   UNL     1     -12.522  14.383  64.332  1.00  0.00    -0.312 C  
HETATM    5  H   UNL     1     -13.242  13.415  62.798  1.00  0.00     0.000 HD 
HETATM    6  O   UNL     1     -12.486  13.967  62.959  1.00  0.00    -0.641 OA 
BRANCH   4   7
HETATM    7  C   UNL     1     -12.559  13.150  65.251  1.00  0.00    -0.472 C  
HETATM    8  H   UNL     1     -13.151  11.272  65.135  1.00  0.00     0.000 HD 
HETATM    9  O   UNL     1     -13.128  12.034  64.567  1.00  0.00    -0.606 OA 
BRANCH   7  10
HETATM   10  C   UNL     1     -11.143  12.782  65.762  1.00  0.00    -0.285 C  
HETATM   11  H   UNL     1      -9.695  11.473  65.316  1.00  0.00     0.000 HD 
HETATM   12  O   UNL     1     -10.563  11.700  65.003  1.00  0.00    -0.268 OA 
BRANCH  10  13
HETATM   13  C   UNL     1     -11.116  12.396  67.246  1.00  0.00    -0.281 C  
HETATM   14  C   UNL     1      -9.704  12.258  67.844  1.00  0.00    -0.202 C  
HETATM   15  O   UNL     1     -11.920  11.232  67.452  1.00  0.00    -0.581 OA 
HETATM   16  O   UNL     1      -8.815  13.202  67.459  1.00  0.00    -0.178 OA 
HETATM   17  O   UNL     1      -9.420  11.387  68.661  1.00  0.00    -0.192 OA 
HETATM   18  H   UNL     1     -11.903  10.994  68.371  1.00  0.00     0.000 HD 
ENDBRANCH  10  13
ENDBRANCH   7  10
ENDBRANCH   4   7
ENDBRANCH   2   4
TORSDOF 4
ENDMDL
MODEL       16
REMARK 921   NORMALIZED FREE ENERGY PREDICTED BY IDOCK:   -4.77 KCAL/MOL
REMARK 922        TOTAL FREE ENERGY PREDICTED BY IDOCK:   -6.36 KCAL/MOL
REMARK 923 INTER-LIGAND FREE ENERGY PREDICTED BY IDOCK:   -5.76 KCAL/MOL
REMARK 924 INTRA-LIGAND FREE ENERGY PREDICTED BY IDOCK:   -0.60 KCAL/MOL
REMARK 927      BINDING AFFINITY PREDICTED BY RF-SCORE:    0.00 PKD
ROOT
HETATM    1  O   UNL     1      -9.364  17.311  68.267  1.00  0.00    -0.255 OA 
HETATM    2  C   UNL     1     -10.517  17.467  67.434  1.00  0.00    -0.336 C  
HETATM    3  H   UNL     1      -9.553  17.706  69.109  1.00  0.00     0.000 HD 
ENDROOT
BRANCH   2   4
HETATM    4  C   UNL     1     -10.213  16.829  66.074  1.00  0.00    -0.346 C  
HETATM    5  H   UNL     1      -8.675  16.765  64.876  1.00  0.00     0.000 HD 
HETATM    6  O   UNL     1      -8.863  17.160  65.719  1.00  0.00    -0.526 OA 
BRANCH   4   7
HETATM    7  C   UNL     1     -10.393  15.301  66.085  1.00  0.00    -0.302 C  
HETATM    8  H   UNL     1     -11.254  13.951  67.236  1.00  0.00     0.000 HD 
HETATM    9  O   UNL     1     -11.143  14.895  67.229  1.00  0.00    -0.317 OA 
BRANCH   7  10
HETATM   10  C   UNL     1     -11.096  14.804  64.797  1.00  0.00    -0.383 C  
HETATM   11  H   UNL     1     -12.304  15.543  63.382  1.00  0.00     0.000 HD 
HETATM   12  O   UNL     1     -11.873  15.848  64.172  1.00  0.00    -0.511 OA 
BRANCH  10  13
HETATM   13  C   UNL     1     -12.014  13.599  65.035  1.00  0.00    -0.378 C  
HETATM   14  C   UNL     1     -12.080  12.605  63.861  1.00  0.00    -0.487 C  
HETATM   15  O   UNL     1     -13.305  14.056  65.445  1.00  0.00    -0.721 OA 
HETATM   16  O   UNL     1     -10.899  12.342  63.256  1.00  0.00    -0.432 OA 
HETATM   17  O   UNL     1     -13.121  12.043  63.535  1.00  0.00    -0.764 OA 
HETATM   18  H   UNL     1     -13.873  13.309  65.593  1.00  0.00     0.000 HD 
ENDBRANCH  10  13
ENDBRANCH   7  10
ENDBRANCH   4   7
ENDBRANCH   2   4
TORSDOF 4
ENDMDL
MODEL       17
REMARK 921   NORMALIZED FREE ENERGY PREDICTED BY IDOCK:   -4.77 KCAL/MOL
REMARK 922        TOTAL FREE ENERGY PREDICTED BY IDOCK:   -6.36 KCAL/MOL
REMARK 923 INTER-LIGAND FREE ENERGY PREDICTED BY IDOCK:   -5.97 KCAL/MOL
REMARK 924 INTRA-LIGAND FREE ENERGY PREDICTED BY IDOCK:   -0.39 KCAL/MOL
REMARK 927      BINDING AFFINITY PREDICTED BY RF-SCORE:    0.00 PKD
ROOT
HETATM    1  O   UNL     1     -10.948  11.031  62.916  1.00  0.00    -0.793 OA 
HETATM    2  C   UNL     1     -10.705  12.312  63.504  1.00  0.00    -0.451 C  
HETATM    3  H   UNL     1     -10.128  10.552  62.902  1.00  0.00     0.000 HD 
ENDROOT
BRANCH   2   4
HETATM    4  C   UNL     1     -12.028  13.084  63.527  1.00  0.00    -0.545 C  
HETATM    5  H   UNL     1     -13.921  12.611  63.513  1.00  0.00     0.000 HD 
HETATM    6  O   UNL     1     -13.101  12.132  63.498  1.00  0.00    -0.785 OA 
BRANCH   4   7
HETATM    7  C   UNL     1     -12.163  13.986  64.767  1.00  0.00    -0.433 C  
HETATM    8  H   UNL     1     -13.619  14.682  65.901  1.00  0.00     0.000 HD 
HETATM    9  O   UNL     1     -13.535  14.126  65.135  1.00  0.00    -0.502 OA 
BRANCH   7  10
HETATM   10  C   UNL     1     -11.355  13.427  65.965  1.00  0.00    -0.309 C  
HETATM   11  H   UNL     1     -11.538  11.980  67.336  1.00  0.00     0.000 HD 
HETATM   12  O   UNL     1     -12.033  12.323  66.601  1.00  0.00    -0.598 OA 
BRANCH  10  13
HETATM   13  C   UNL     1     -11.050  14.483  67.035  1.00  0.00    -0.322 C  
HETATM   14  C   UNL     1      -9.742  14.245  67.811  1.00  0.00    -0.222 C  
HETATM   15  O   UNL     1     -12.183  14.635  67.893  1.00  0.00    -0.593 OA 
HETATM   16  O   UNL     1      -8.692  13.832  67.066  1.00  0.00    -0.224 OA 
HETATM   17  O   UNL     1      -9.643  14.472  69.014  1.00  0.00    -0.189 OA 
HETATM   18  H   UNL     1     -11.994  15.290  68.555  1.00  0.00     0.000 HD 
ENDBRANCH  10  13
ENDBRANCH   7  10
ENDBRANCH   4   7
ENDBRANCH   2   4
TORSDOF 4
ENDMDL
MODEL       18
REMARK 921   NORMALIZED FREE ENERGY PREDICTED BY IDOCK:   -4.73 KCAL/MOL
REMARK 922        TOTAL FREE ENERGY PREDICTED BY IDOCK:   -6.31 KCAL/MOL
REMARK 923 INTER-LIGAND FREE ENERGY PREDICTED BY IDOCK:   -5.90 KCAL/MOL
REMARK 924 INTRA-LIGAND FREE ENERGY PREDICTED BY IDOCK:   -0.41 KCAL/MOL
REMARK 927      BINDING AFFINITY PREDICTED BY RF-SCORE:    0.00 PKD
ROOT
HETATM    1  O   UNL     1     -12.446  13.982  63.103  1.00  0.00    -1.137 OA 
HETATM    2  C   UNL     1     -12.063  14.567  64.351  1.00  0.00    -0.472 C  
HETATM    3  H   UNL     1     -12.060  14.496  62.404  1.00  0.00     0.000 HD 
ENDROOT
BRANCH   2   4
HETATM    4  C   UNL     1     -12.686  13.737  65.478  1.00  0.00    -0.488 C  
HETATM    5  H   UNL     1     -13.465  11.955  65.632  1.00  0.00     0.000 HD 
HETATM    6  O   UNL     1     -13.079  12.469  64.933  1.00  0.00    -0.833 OA 
BRANCH   4   7
HETATM    7  C   UNL     1     -11.721  13.523  66.657  1.00  0.00    -0.387 C  
HETATM    8  H   UNL     1      -9.770  13.466  66.941  1.00  0.00     0.000 HD 
HETATM    9  O   UNL     1     -10.367  13.597  66.213  1.00  0.00    -0.281 OA 
BRANCH   7  10
HETATM   10  C   UNL     1     -11.960  14.565  67.780  1.00  0.00    -0.310 C  
HETATM   11  H   UNL     1     -11.359  16.418  68.242  1.00  0.00     0.000 HD 
HETATM   12  O   UNL     1     -11.213  15.779  67.553  1.00  0.00    -0.308 OA 
BRANCH  10  13
HETATM   13  C   UNL     1     -11.609  14.039  69.178  1.00  0.00    -0.313 C  
HETATM   14  C   UNL     1     -11.920  15.018  70.324  1.00  0.00    -0.315 C  
HETATM   15  O   UNL     1     -10.254  13.584  69.191  1.00  0.00    -0.426 OA 
HETATM   16  O   UNL     1     -13.092  15.685  70.216  1.00  0.00    -0.301 OA 
HETATM   17  O   UNL     1     -11.185  15.141  71.299  1.00  0.00    -0.331 OA 
HETATM   18  H   UNL     1     -10.037  13.258  70.056  1.00  0.00     0.000 HD 
ENDBRANCH  10  13
ENDBRANCH   7  10
ENDBRANCH   4   7
ENDBRANCH   2   4
TORSDOF 4
ENDMDL
MODEL       19
REMARK 921   NORMALIZED FREE ENERGY PREDICTED BY IDOCK:   -4.72 KCAL/MOL
REMARK 922        TOTAL FREE ENERGY PREDICTED BY IDOCK:   -6.29 KCAL/MOL
REMARK 923 INTER-LIGAND FREE ENERGY PREDICTED BY IDOCK:   -6.24 KCAL/MOL
REMARK 924 INTRA-LIGAND FREE ENERGY PREDICTED BY IDOCK:   -0.06 KCAL/MOL
REMARK 927      BINDING AFFINITY PREDICTED BY RF-SCORE:    0.00 PKD
ROOT
HETATM    1  O   UNL     1      -9.776  19.310  68.477  1.00  0.00    -0.361 OA 
HETATM    2  C   UNL     1     -10.729  18.640  67.647  1.00  0.00    -0.376 C  
HETATM    3  H   UNL     1     -10.026  20.225  68.535  1.00  0.00     0.000 HD 
ENDROOT
BRANCH   2   4
HETATM    4  C   UNL     1     -10.326  17.164  67.554  1.00  0.00    -0.341 C  
HETATM    5  H   UNL     1     -11.101  15.467  68.124  1.00  0.00     0.000 HD 
HETATM    6  O   UNL     1     -11.351  16.382  68.182  1.00  0.00    -0.324 OA 
BRANCH   4   7
HETATM    7  C   UNL     1     -10.126  16.698  66.102  1.00  0.00    -0.345 C  
HETATM    8  H   UNL     1      -8.613  16.373  64.878  1.00  0.00     0.000 HD 
HETATM    9  O   UNL     1      -8.737  16.662  65.775  1.00  0.00    -0.482 OA 
BRANCH   7  10
HETATM   10  C   UNL     1     -10.753  15.300  65.864  1.00  0.00    -0.334 C  
HETATM   11  H   UNL     1     -10.151  13.477  65.298  1.00  0.00     0.000 HD 
HETATM   12  O   UNL     1      -9.767  14.334  65.444  1.00  0.00    -0.252 OA 
BRANCH  10  13
HETATM   13  C   UNL     1     -11.885  15.313  64.830  1.00  0.00    -0.232 C  
HETATM   14  C   UNL     1     -12.275  13.922  64.295  1.00  0.00    -0.408 C  
HETATM   15  O   UNL     1     -11.570  16.238  63.788  1.00  0.00    -1.539 OA 
HETATM   16  O   UNL     1     -12.326  12.937  65.220  1.00  0.00    -0.449 OA 
HETATM   17  O   UNL     1     -12.579  13.734  63.120  1.00  0.00    -0.793 OA 
HETATM   18  H   UNL     1     -12.271  16.246  63.147  1.00  0.00     0.000 HD 
ENDBRANCH  10  13
ENDBRANCH   7  10
ENDBRANCH   4   7
ENDBRANCH   2   4
TORSDOF 4
ENDMDL
MODEL       20
REMARK 921   NORMALIZED FREE ENERGY PREDICTED BY IDOCK:   -4.70 KCAL/MOL
REMARK 922        TOTAL FREE ENERGY PREDICTED BY IDOCK:   -6.27 KCAL/MOL
REMARK 923 INTER-LIGAND FREE ENERGY PREDICTED BY IDOCK:   -5.84 KCAL/MOL
REMARK 924 INTRA-LIGAND FREE ENERGY PREDICTED BY IDOCK:   -0.44 KCAL/MOL
REMARK 927      BINDING AFFINITY PREDICTED BY RF-SCORE:    0.00 PKD
ROOT
HETATM    1  O   UNL     1     -12.405  13.948  63.197  1.00  0.00    -1.122 OA 
HETATM    2  C   UNL     1     -12.511  14.096  64.616  1.00  0.00    -0.350 C  
HETATM    3  H   UNL     1     -13.255  13.687  62.863  1.00  0.00     0.000 HD 
ENDROOT
BRANCH   2   4
HETATM    4  C   UNL     1     -11.139  14.517  65.155  1.00  0.00    -0.370 C  
HETATM    5  H   UNL     1      -9.309  13.866  64.973  1.00  0.00     0.000 HD 
HETATM    6  O   UNL     1     -10.159  13.605  64.639  1.00  0.00    -0.357 OA 
BRANCH   4   7
HETATM    7  C   UNL     1     -10.769  15.959  64.766  1.00  0.00    -0.229 C  
HETATM    8  H   UNL     1     -11.546  17.412  63.683  1.00  0.00     0.000 HD 
HETATM    9  O   UNL     1     -11.774  16.522  63.923  1.00  0.00    -1.148 OA 
BRANCH   7  10
HETATM   10  C   UNL     1     -10.579  16.852  66.018  1.00  0.00    -0.218 C  
HETATM   11  H   UNL     1     -10.226  18.779  66.431  1.00  0.00     0.000 HD 
HETATM   12  O   UNL     1     -10.343  18.231  65.663  1.00  0.00    -0.607 OA 
BRANCH  10  13
HETATM   13  C   UNL     1      -9.434  16.387  66.926  1.00  0.00    -0.235 C  
HETATM   14  C   UNL     1      -9.272  17.207  68.219  1.00  0.00    -0.262 C  
HETATM   15  O   UNL     1      -8.226  16.306  66.167  1.00  0.00    -0.315 OA 
HETATM   16  O   UNL     1     -10.424  17.544  68.841  1.00  0.00    -0.349 OA 
HETATM   17  O   UNL     1      -8.170  17.483  68.686  1.00  0.00    -0.274 OA 
HETATM   18  H   UNL     1      -7.517  16.017  66.729  1.00  0.00     0.000 HD 
ENDBRANCH  10  13
ENDBRANCH   7  10
ENDBRANCH   4   7
ENDBRANCH   2   4
TORSDOF 4
ENDMDL
MODEL       21
REMARK 921   NORMALIZED FREE ENERGY PREDICTED BY IDOCK:   -4.69 KCAL/MOL
REMARK 922        TOTAL FREE ENERGY PREDICTED BY IDOCK:   -6.25 KCAL/MOL
REMARK 923 INTER-LIGAND FREE ENERGY PREDICTED BY IDOCK:   -6.00 KCAL/MOL
REMARK 924 INTRA-LIGAND FREE ENERGY PREDICTED BY IDOCK:   -0.25 KCAL/MOL
REMARK 927      BINDING AFFINITY PREDICTED BY RF-SCORE:    0.00 PKD
ROOT
HETATM    1  O   UNL     1     -10.961  13.668  69.856  1.00  0.00    -0.456 OA 
HETATM    2  C   UNL     1     -10.692  13.061  68.589  1.00  0.00    -0.248 C  
HETATM    3  H   UNL     1     -11.450  13.047  70.383  1.00  0.00     0.000 HD 
ENDROOT
BRANCH   2   4
HETATM    4  C   UNL     1      -9.902  14.062  67.738  1.00  0.00    -0.232 C  
HETATM    5  H   UNL     1      -8.737  13.953  66.177  1.00  0.00     0.000 HD 
HETATM    6  O   UNL     1      -9.227  13.332  66.704  1.00  0.00    -0.250 OA 
BRANCH   4   7
HETATM    7  C   UNL     1     -10.801  15.144  67.114  1.00  0.00    -0.320 C  
HETATM    8  H   UNL     1     -11.232  17.039  67.449  1.00  0.00     0.000 HD 
HETATM    9  O   UNL     1     -10.678  16.371  67.834  1.00  0.00    -0.316 OA 
BRANCH   7  10
HETATM   10  C   UNL     1     -10.452  15.378  65.622  1.00  0.00    -0.372 C  
HETATM   11  H   UNL     1      -9.482  16.737  64.517  1.00  0.00     0.000 HD 
HETATM   12  O   UNL     1      -9.696  16.593  65.432  1.00  0.00    -0.501 OA 
BRANCH  10  13
HETATM   13  C   UNL     1     -11.687  15.434  64.714  1.00  0.00    -0.232 C  
HETATM   14  C   UNL     1     -12.103  14.076  64.120  1.00  0.00    -0.422 C  
HETATM   15  O   UNL     1     -11.501  16.441  63.717  1.00  0.00    -1.590 OA 
HETATM   16  O   UNL     1     -12.037  13.026  64.969  1.00  0.00    -0.374 OA 
HETATM   17  O   UNL     1     -12.524  13.965  62.972  1.00  0.00    -0.689 OA 
HETATM   18  H   UNL     1     -12.266  16.476  63.155  1.00  0.00     0.000 HD 
ENDBRANCH  10  13
ENDBRANCH   7  10
ENDBRANCH   4   7
ENDBRANCH   2   4
TORSDOF 4
ENDMDL
MODEL       22
REMARK 921   NORMALIZED FREE ENERGY PREDICTED BY IDOCK:   -4.65 KCAL/MOL
REMARK 922        TOTAL FREE ENERGY PREDICTED BY IDOCK:   -6.21 KCAL/MOL
REMARK 923 INTER-LIGAND FREE ENERGY PREDICTED BY IDOCK:   -6.05 KCAL/MOL
REMARK 924 INTRA-LIGAND FREE ENERGY PREDICTED BY IDOCK:   -0.16 KCAL/MOL
REMARK 927      BINDING AFFINITY PREDICTED BY RF-SCORE:    0.00 PKD
ROOT
HETATM    1  O   UNL     1      -9.510  11.734  68.238  1.00  0.00    -0.184 OA 
HETATM    2  C   UNL     1      -9.546  12.952  67.489  1.00  0.00    -0.200 C  
HETATM    3  H   UNL     1      -9.157  11.926  69.098  1.00  0.00     0.000 HD 
ENDROOT
BRANCH   2   4
HETATM    4  C   UNL     1     -10.117  12.642  66.101  1.00  0.00    -0.257 C  
HETATM    5  H   UNL     1      -9.660  11.427  64.644  1.00  0.00     0.000 HD 
HETATM    6  O   UNL     1      -9.306  11.619  65.505  1.00  0.00    -0.222 OA 
BRANCH   4   7
HETATM    7  C   UNL     1     -11.584  12.182  66.155  1.00  0.00    -0.354 C  
HETATM    8  H   UNL     1     -12.965  11.900  67.535  1.00  0.00     0.000 HD 
HETATM    9  O   UNL     1     -12.058  12.184  67.502  1.00  0.00    -0.534 OA 
BRANCH   7  10
HETATM   10  C   UNL     1     -12.493  13.083  65.281  1.00  0.00    -0.499 C  
HETATM   11  H   UNL     1     -14.022  12.864  64.008  1.00  0.00     0.000 HD 
HETATM   12  O   UNL     1     -13.465  12.311  64.544  1.00  0.00    -0.686 OA 
BRANCH  10  13
HETATM   13  C   UNL     1     -11.710  13.947  64.285  1.00  0.00    -0.380 C  
HETATM   14  C   UNL     1     -11.534  15.416  64.714  1.00  0.00    -0.336 C  
HETATM   15  O   UNL     1     -12.287  13.817  62.984  1.00  0.00    -1.089 OA 
HETATM   16  O   UNL     1     -11.247  15.607  66.022  1.00  0.00    -0.205 OA 
HETATM   17  O   UNL     1     -11.591  16.344  63.913  1.00  0.00    -1.100 OA 
HETATM   18  H   UNL     1     -11.802  14.352  62.366  1.00  0.00     0.000 HD 
ENDBRANCH  10  13
ENDBRANCH   7  10
ENDBRANCH   4   7
ENDBRANCH   2   4
TORSDOF 4
ENDMDL
MODEL       23
REMARK 921   NORMALIZED FREE ENERGY PREDICTED BY IDOCK:   -4.65 KCAL/MOL
REMARK 922        TOTAL FREE ENERGY PREDICTED BY IDOCK:   -6.21 KCAL/MOL
REMARK 923 INTER-LIGAND FREE ENERGY PREDICTED BY IDOCK:   -5.69 KCAL/MOL
REMARK 924 INTRA-LIGAND FREE ENERGY PREDICTED BY IDOCK:   -0.51 KCAL/MOL
REMARK 927      BINDING AFFINITY PREDICTED BY RF-SCORE:    0.00 PKD
ROOT
HETATM    1  O   UNL     1     -12.317  13.909  63.022  1.00  0.00    -1.101 OA 
HETATM    2  C   UNL     1     -12.248  14.662  64.236  1.00  0.00    -0.408 C  
HETATM    3  H   UNL     1     -11.966  14.445  62.321  1.00  0.00     0.000 HD 
ENDROOT
BRANCH   2   4
HETATM    4  C   UNL     1     -12.813  13.796  65.367  1.00  0.00    -0.410 C  
HETATM    5  H   UNL     1     -13.741  12.083  65.482  1.00  0.00     0.000 HD 
HETATM    6  O   UNL     1     -13.390  12.619  64.782  1.00  0.00    -0.787 OA 
BRANCH   4   7
HETATM    7  C   UNL     1     -11.743  13.396  66.397  1.00  0.00    -0.368 C  
HETATM    8  H   UNL     1     -11.441  13.615  68.334  1.00  0.00     0.000 HD 
HETATM    9  O   UNL     1     -12.103  13.862  67.698  1.00  0.00    -0.377 OA 
BRANCH   7  10
HETATM   10  C   UNL     1     -11.535  11.861  66.432  1.00  0.00    -0.304 C  
HETATM   11  H   UNL     1     -11.708  10.366  67.753  1.00  0.00     0.000 HD 
HETATM   12  O   UNL     1     -11.836  11.308  67.731  1.00  0.00    -0.610 OA 
BRANCH  10  13
HETATM   13  C   UNL     1     -10.114  11.433  66.045  1.00  0.00    -0.234 C  
HETATM   14  C   UNL     1      -9.998  10.797  64.648  1.00  0.00    -0.324 C  
HETATM   15  O   UNL     1      -9.567  10.608  67.076  1.00  0.00    -0.165 OA 
HETATM   16  O   UNL     1     -10.724  11.394  63.676  1.00  0.00    -0.367 OA 
HETATM   17  O   UNL     1      -9.250   9.851  64.419  1.00  0.00    -0.238 OA 
HETATM   18  H   UNL     1      -8.686  10.343  66.836  1.00  0.00     0.000 HD 
ENDBRANCH  10  13
ENDBRANCH   7  10
ENDBRANCH   4   7
ENDBRANCH   2   4
TORSDOF 4
ENDMDL
MODEL       24
REMARK 921   NORMALIZED FREE ENERGY PREDICTED BY IDOCK:   -4.62 KCAL/MOL
REMARK 922        TOTAL FREE ENERGY PREDICTED BY IDOCK:   -6.17 KCAL/MOL
REMARK 923 INTER-LIGAND FREE ENERGY PREDICTED BY IDOCK:   -5.58 KCAL/MOL
REMARK 924 INTRA-LIGAND FREE ENERGY PREDICTED BY IDOCK:   -0.59 KCAL/MOL
REMARK 927      BINDING AFFINITY PREDICTED BY RF-SCORE:    0.00 PKD
ROOT
HETATM    1  O   UNL     1      -9.822  16.469  67.390  1.00  0.00    -0.244 OA 
HETATM    2  C   UNL     1      -9.804  16.780  65.993  1.00  0.00    -0.287 C  
HETATM    3  H   UNL     1      -9.101  16.928  67.804  1.00  0.00     0.000 HD 
ENDROOT
BRANCH   2   4
HETATM    4  C   UNL     1     -10.968  16.040  65.325  1.00  0.00    -0.299 C  
HETATM    5  H   UNL     1     -12.029  16.280  63.706  1.00  0.00     0.000 HD 
HETATM    6  O   UNL     1     -11.308  16.739  64.119  1.00  0.00    -1.194 OA 
BRANCH   4   7
HETATM    7  C   UNL     1     -10.628  14.575  65.002  1.00  0.00    -0.437 C  
HETATM    8  H   UNL     1      -9.142  13.322  65.344  1.00  0.00     0.000 HD 
HETATM    9  O   UNL     1      -9.353  14.227  65.543  1.00  0.00    -0.017 OA 
BRANCH   7  10
HETATM   10  C   UNL     1     -11.707  13.608  65.551  1.00  0.00    -0.337 C  
HETATM   11  H   UNL     1     -13.705  13.502  65.636  1.00  0.00     0.000 HD 
HETATM   12  O   UNL     1     -13.042  14.095  65.300  1.00  0.00    -0.763 OA 
BRANCH  10  13
HETATM   13  C   UNL     1     -11.570  13.338  67.055  1.00  0.00    -0.359 C  
HETATM   14  C   UNL     1     -11.643  11.850  67.445  1.00  0.00    -0.297 C  
HETATM   15  O   UNL     1     -12.506  14.144  67.772  1.00  0.00    -0.535 OA 
HETATM   16  O   UNL     1     -10.982  11.002  66.625  1.00  0.00    -0.258 OA 
HETATM   17  O   UNL     1     -12.212  11.466  68.463  1.00  0.00    -0.557 OA 
HETATM   18  H   UNL     1     -12.421  13.977  68.704  1.00  0.00     0.000 HD 
ENDBRANCH  10  13
ENDBRANCH   7  10
ENDBRANCH   4   7
ENDBRANCH   2   4
TORSDOF 4
ENDMDL
MODEL       25
REMARK 921   NORMALIZED FREE ENERGY PREDICTED BY IDOCK:   -4.55 KCAL/MOL
REMARK 922        TOTAL FREE ENERGY PREDICTED BY IDOCK:   -6.09 KCAL/MOL
REMARK 923 INTER-LIGAND FREE ENERGY PREDICTED BY IDOCK:   -5.62 KCAL/MOL
REMARK 924 INTRA-LIGAND FREE ENERGY PREDICTED BY IDOCK:   -0.47 KCAL/MOL
REMARK 927      BINDING AFFINITY PREDICTED BY RF-SCORE:    0.00 PKD
ROOT
HETATM    1  O   UNL     1     -12.389  14.306  63.540  1.00  0.00    -1.080 OA 
HETATM    2  C   UNL     1     -11.607  13.321  64.222  1.00  0.00    -0.400 C  
HETATM    3  H   UNL     1     -11.979  14.480  62.701  1.00  0.00     0.000 HD 
ENDROOT
BRANCH   2   4
HETATM    4  C   UNL     1     -12.270  13.040  65.575  1.00  0.00    -0.469 C  
HETATM    5  H   UNL     1     -12.552  11.464  66.689  1.00  0.00     0.000 HD 
HETATM    6  O   UNL     1     -12.141  11.638  65.851  1.00  0.00    -0.252 OA 
BRANCH   4   7
HETATM    7  C   UNL     1     -11.646  13.858  66.719  1.00  0.00    -0.378 C  
HETATM    8  H   UNL     1     -10.741  13.495  68.434  1.00  0.00     0.000 HD 
HETATM    9  O   UNL     1     -11.126  12.990  67.727  1.00  0.00    -0.245 OA 
BRANCH   7  10
HETATM   10  C   UNL     1     -10.521  14.790  66.202  1.00  0.00    -0.304 C  
HETATM   11  H   UNL     1      -8.526  14.915  66.311  1.00  0.00     0.000 HD 
HETATM   12  O   UNL     1      -9.216  14.343  66.628  1.00  0.00    -0.256 OA 
BRANCH  10  13
HETATM   13  C   UNL     1     -10.696  16.250  66.639  1.00  0.00    -0.197 C  
HETATM   14  C   UNL     1     -10.607  17.273  65.492  1.00  0.00    -0.127 C  
HETATM   15  O   UNL     1      -9.794  16.539  67.709  1.00  0.00    -0.234 OA 
HETATM   16  O   UNL     1     -11.230  16.916  64.346  1.00  0.00    -1.159 OA 
HETATM   17  O   UNL     1     -10.060  18.364  65.627  1.00  0.00    -0.519 OA 
HETATM   18  H   UNL     1      -9.903  17.443  67.980  1.00  0.00     0.000 HD 
ENDBRANCH  10  13
ENDBRANCH   7  10
ENDBRANCH   4   7
ENDBRANCH   2   4
TORSDOF 4
ENDMDL
MODEL       26
REMARK 921   NORMALIZED FREE ENERGY PREDICTED BY IDOCK:   -4.55 KCAL/MOL
REMARK 922        TOTAL FREE ENERGY PREDICTED BY IDOCK:   -6.09 KCAL/MOL
REMARK 923 INTER-LIGAND FREE ENERGY PREDICTED BY IDOCK:   -5.84 KCAL/MOL
REMARK 924 INTRA-LIGAND FREE ENERGY PREDICTED BY IDOCK:   -0.24 KCAL/MOL
REMARK 927      BINDING AFFINITY PREDICTED BY RF-SCORE:    0.00 PKD
ROOT
HETATM    1  O   UNL     1     -10.356  10.784  62.588  1.00  0.00    -0.761 OA 
HETATM    2  C   UNL     1     -10.799  11.362  63.819  1.00  0.00    -0.395 C  
HETATM    3  H   UNL     1      -9.710  10.117  62.789  1.00  0.00     0.000 HD 
ENDROOT
BRANCH   2   4
HETATM    4  C   UNL     1     -11.841  12.437  63.494  1.00  0.00    -0.521 C  
HETATM    5  H   UNL     1     -13.788  12.513  63.409  1.00  0.00     0.000 HD 
HETATM    6  O   UNL     1     -13.143  11.846  63.610  1.00  0.00    -0.696 OA 
BRANCH   4   7
HETATM    7  C   UNL     1     -11.736  13.660  64.422  1.00  0.00    -0.411 C  
HETATM    8  H   UNL     1     -12.146  15.587  64.332  1.00  0.00     0.000 HD 
HETATM    9  O   UNL     1     -12.210  14.832  63.758  1.00  0.00    -0.555 OA 
BRANCH   7  10
HETATM   10  C   UNL     1     -12.534  13.445  65.734  1.00  0.00    -0.439 C  
HETATM   11  H   UNL     1     -14.201  14.146  66.592  1.00  0.00     0.000 HD 
HETATM   12  O   UNL     1     -13.712  14.277  65.788  1.00  0.00    -0.034 OA 
BRANCH  10  13
HETATM   13  C   UNL     1     -11.703  13.707  66.996  1.00  0.00    -0.384 C  
HETATM   14  C   UNL     1     -11.899  12.666  68.115  1.00  0.00    -0.315 C  
HETATM   15  O   UNL     1     -11.921  15.046  67.442  1.00  0.00    -0.396 OA 
HETATM   16  O   UNL     1     -11.970  11.380  67.705  1.00  0.00    -0.630 OA 
HETATM   17  O   UNL     1     -11.928  12.978  69.302  1.00  0.00    -0.307 OA 
HETATM   18  H   UNL     1     -11.406  15.208  68.225  1.00  0.00     0.000 HD 
ENDBRANCH  10  13
ENDBRANCH   7  10
ENDBRANCH   4   7
ENDBRANCH   2   4
TORSDOF 4
ENDMDL
MODEL       27
REMARK 921   NORMALIZED FREE ENERGY PREDICTED BY IDOCK:   -4.54 KCAL/MOL
REMARK 922        TOTAL FREE ENERGY PREDICTED BY IDOCK:   -6.08 KCAL/MOL
REMARK 923 INTER-LIGAND FREE ENERGY PREDICTED BY IDOCK:   -5.73 KCAL/MOL
REMARK 924 INTRA-LIGAND FREE ENERGY PREDICTED BY IDOCK:   -0.34 KCAL/MOL
REMARK 927      BINDING AFFINITY PREDICTED BY RF-SCORE:    0.00 PKD
ROOT
HETATM    1  O   UNL     1     -10.889  13.695  69.857  1.00  0.00    -0.436 OA 
HETATM    2  C   UNL     1     -11.872  12.972  69.111  1.00  0.00    -0.310 C  
HETATM    3  H   UNL     1     -11.266  13.926  70.697  1.00  0.00     0.000 HD 
ENDROOT
BRANCH   2   4
HETATM    4  C   UNL     1     -11.263  12.599  67.755  1.00  0.00    -0.274 C  
HETATM    5  H   UNL     1     -11.453  11.118  66.500  1.00  0.00     0.000 HD 
HETATM    6  O   UNL     1     -11.830  11.349  67.340  1.00  0.00    -0.609 OA 
BRANCH   4   7
HETATM    7  C   UNL     1     -11.514  13.670  66.680  1.00  0.00    -0.343 C  
HETATM    8  H   UNL     1     -11.770  15.625  66.613  1.00  0.00     0.000 HD 
HETATM    9  O   UNL     1     -11.615  14.963  67.277  1.00  0.00    -0.360 OA 
BRANCH   7  10
HETATM   10  C   UNL     1     -10.391  13.676  65.611  1.00  0.00    -0.300 C  
HETATM   11  H   UNL     1      -9.361  15.019  64.543  1.00  0.00     0.000 HD 
HETATM   12  O   UNL     1     -10.049  15.016  65.198  1.00  0.00    -0.361 OA 
BRANCH  10  13
HETATM   13  C   UNL     1     -10.743  12.862  64.360  1.00  0.00    -0.386 C  
HETATM   14  C   UNL     1     -12.160  13.115  63.812  1.00  0.00    -0.495 C  
HETATM   15  O   UNL     1     -10.482  11.478  64.601  1.00  0.00    -0.266 OA 
HETATM   16  O   UNL     1     -12.562  14.406  63.815  1.00  0.00    -0.829 OA 
HETATM   17  O   UNL     1     -12.854  12.214  63.350  1.00  0.00    -0.765 OA 
HETATM   18  H   UNL     1     -10.699  10.974  63.825  1.00  0.00     0.000 HD 
ENDBRANCH  10  13
ENDBRANCH   7  10
ENDBRANCH   4   7
ENDBRANCH   2   4
TORSDOF 4
ENDMDL
MODEL       28
REMARK 921   NORMALIZED FREE ENERGY PREDICTED BY IDOCK:   -4.53 KCAL/MOL
REMARK 922        TOTAL FREE ENERGY PREDICTED BY IDOCK:   -6.06 KCAL/MOL
REMARK 923 INTER-LIGAND FREE ENERGY PREDICTED BY IDOCK:   -5.60 KCAL/MOL
REMARK 924 INTRA-LIGAND FREE ENERGY PREDICTED BY IDOCK:   -0.45 KCAL/MOL
REMARK 927      BINDING AFFINITY PREDICTED BY RF-SCORE:    0.00 PKD
ROOT
HETATM    1  O   UNL     1     -12.211  13.922  63.119  1.00  0.00    -1.071 OA 
HETATM    2  C   UNL     1     -12.133  14.515  64.418  1.00  0.00    -0.472 C  
HETATM    3  H   UNL     1     -12.041  14.599  62.475  1.00  0.00     0.000 HD 
ENDROOT
BRANCH   2   4
HETATM    4  C   UNL     1     -12.408  13.423  65.458  1.00  0.00    -0.480 C  
HETATM    5  H   UNL     1     -13.494  11.803  65.527  1.00  0.00     0.000 HD 
HETATM    6  O   UNL     1     -13.323  12.480  64.882  1.00  0.00    -0.702 OA 
BRANCH   4   7
HETATM    7  C   UNL     1     -11.126  12.700  65.908  1.00  0.00    -0.289 C  
HETATM    8  H   UNL     1      -9.214  12.705  65.426  1.00  0.00     0.000 HD 
HETATM    9  O   UNL     1     -10.005  13.151  65.148  1.00  0.00    -0.244 OA 
BRANCH   7  10
HETATM   10  C   UNL     1     -10.854  12.916  67.418  1.00  0.00    -0.251 C  
HETATM   11  H   UNL     1      -9.494  12.361  68.779  1.00  0.00     0.000 HD 
HETATM   12  O   UNL     1      -9.662  12.228  67.853  1.00  0.00    -0.190 OA 
BRANCH  10  13
HETATM   13  C   UNL     1     -12.018  12.473  68.313  1.00  0.00    -0.221 C  
HETATM   14  C   UNL     1     -11.972  13.038  69.745  1.00  0.00    -0.308 C  
HETATM   15  O   UNL     1     -12.127  11.048  68.283  1.00  0.00    -0.737 OA 
HETATM   16  O   UNL     1     -11.605  14.335  69.846  1.00  0.00    -0.263 OA 
HETATM   17  O   UNL     1     -12.304  12.373  70.722  1.00  0.00    -0.377 OA 
HETATM   18  H   UNL     1     -12.848  10.774  68.837  1.00  0.00     0.000 HD 
ENDBRANCH  10  13
ENDBRANCH   7  10
ENDBRANCH   4   7
ENDBRANCH   2   4
TORSDOF 4
ENDMDL
MODEL       29
REMARK 921   NORMALIZED FREE ENERGY PREDICTED BY IDOCK:   -4.52 KCAL/MOL
REMARK 922        TOTAL FREE ENERGY PREDICTED BY IDOCK:   -6.05 KCAL/MOL
REMARK 923 INTER-LIGAND FREE ENERGY PREDICTED BY IDOCK:   -5.43 KCAL/MOL
REMARK 924 INTRA-LIGAND FREE ENERGY PREDICTED BY IDOCK:   -0.61 KCAL/MOL
REMARK 927      BINDING AFFINITY PREDICTED BY RF-SCORE:    0.00 PKD
ROOT
HETATM    1  O   UNL     1     -10.623  18.237  66.992  1.00  0.00    -0.389 OA 
HETATM    2  C   UNL     1      -9.812  17.240  67.620  1.00  0.00    -0.279 C  
HETATM    3  H   UNL     1     -10.150  19.060  67.016  1.00  0.00     0.000 HD 
ENDROOT
BRANCH   2   4
HETATM    4  C   UNL     1     -10.575  15.911  67.582  1.00  0.00    -0.307 C  
HETATM    5  H   UNL     1     -12.160  15.186  68.458  1.00  0.00     0.000 HD 
HETATM    6  O   UNL     1     -11.687  16.009  68.482  1.00  0.00    -0.375 OA 
BRANCH   4   7
HETATM    7  C   UNL     1     -11.074  15.558  66.170  1.00  0.00    -0.177 C  
HETATM    8  H   UNL     1     -10.515  15.894  64.308  1.00  0.00     0.000 HD 
HETATM    9  O   UNL     1     -10.207  16.112  65.180  1.00  0.00    -0.542 OA 
BRANCH   7  10
HETATM   10  C   UNL     1     -11.178  14.024  65.972  1.00  0.00    -0.310 C  
HETATM   11  H   UNL     1     -10.161  12.384  66.507  1.00  0.00     0.000 HD 
HETATM   12  O   UNL     1     -10.099  13.325  66.628  1.00  0.00    -0.255 OA 
BRANCH  10  13
HETATM   13  C   UNL     1     -11.197  13.604  64.497  1.00  0.00    -0.382 C  
HETATM   14  C   UNL     1     -12.204  12.487  64.166  1.00  0.00    -0.467 C  
HETATM   15  O   UNL     1      -9.868  13.295  64.072  1.00  0.00    -0.741 OA 
HETATM   16  O   UNL     1     -13.409  12.595  64.769  1.00  0.00    -0.787 OA 
HETATM   17  O   UNL     1     -11.952  11.595  63.362  1.00  0.00    -0.424 OA 
HETATM   18  H   UNL     1      -9.880  13.035  63.158  1.00  0.00     0.000 HD 
ENDBRANCH  10  13
ENDBRANCH   7  10
ENDBRANCH   4   7
ENDBRANCH   2   4
TORSDOF 4
ENDMDL
MODEL       30
REMARK 921   NORMALIZED FREE ENERGY PREDICTED BY IDOCK:   -4.52 KCAL/MOL
REMARK 922        TOTAL FREE ENERGY PREDICTED BY IDOCK:   -6.04 KCAL/MOL
REMARK 923 INTER-LIGAND FREE ENERGY PREDICTED BY IDOCK:   -5.75 KCAL/MOL
REMARK 924 INTRA-LIGAND FREE ENERGY PREDICTED BY IDOCK:   -0.29 KCAL/MOL
REMARK 927      BINDING AFFINITY PREDICTED BY RF-SCORE:    0.00 PKD
ROOT
HETATM    1  O   UNL     1     -12.384  14.403  63.249  1.00  0.00    -1.079 OA 
HETATM    2  C   UNL     1     -11.909  14.620  64.580  1.00  0.00    -0.452 C  
HETATM    3  H   UNL     1     -11.865  14.936  62.659  1.00  0.00     0.000 HD 
ENDROOT
BRANCH   2   4
HETATM    4  C   UNL     1     -12.748  13.759  65.532  1.00  0.00    -0.488 C  
HETATM    5  H   UNL     1     -13.796  12.121  65.374  1.00  0.00     0.000 HD 
HETATM    6  O   UNL     1     -13.276  12.654  64.785  1.00  0.00    -0.846 OA 
BRANCH   4   7
HETATM    7  C   UNL     1     -11.934  13.240  66.730  1.00  0.00    -0.382 C  
HETATM    8  H   UNL     1     -11.194  11.517  67.341  1.00  0.00     0.000 HD 
HETATM    9  O   UNL     1     -11.696  11.838  66.601  1.00  0.00    -0.548 OA 
BRANCH   7  10
HETATM   10  C   UNL     1     -10.583  13.987  66.865  1.00  0.00    -0.280 C  
HETATM   11  H   UNL     1      -8.630  13.550  66.818  1.00  0.00     0.000 HD 
HETATM   12  O   UNL     1      -9.459  13.092  66.735  1.00  0.00    -0.238 OA 
BRANCH  10  13
HETATM   13  C   UNL     1     -10.442  14.747  68.189  1.00  0.00    -0.239 C  
HETATM   14  C   UNL     1     -10.042  16.226  68.037  1.00  0.00    -0.245 C  
HETATM   15  O   UNL     1      -9.570  14.026  69.063  1.00  0.00    -0.398 OA 
HETATM   16  O   UNL     1     -10.655  16.892  67.031  1.00  0.00    -0.305 OA 
HETATM   17  O   UNL     1      -9.267  16.779  68.811  1.00  0.00    -0.250 OA 
HETATM   18  H   UNL     1      -9.483  14.497  69.884  1.00  0.00     0.000 HD 
ENDBRANCH  10  13
ENDBRANCH   7  10
ENDBRANCH   4   7
ENDBRANCH   2   4
TORSDOF 4
ENDMDL
MODEL       31
REMARK 921   NORMALIZED FREE ENERGY PREDICTED BY IDOCK:   -4.51 KCAL/MOL
REMARK 922        TOTAL FREE ENERGY PREDICTED BY IDOCK:   -6.03 KCAL/MOL
REMARK 923 INTER-LIGAND FREE ENERGY PREDICTED BY IDOCK:   -4.99 KCAL/MOL
REMARK 924 INTRA-LIGAND FREE ENERGY PREDICTED BY IDOCK:   -1.04 KCAL/MOL
REMARK 927      BINDING AFFINITY PREDICTED BY RF-SCORE:    0.00 PKD
ROOT
HETATM    1  O   UNL     1     -10.657  19.310  65.715  1.00  0.00    -0.484 OA 
HETATM    2  C   UNL     1     -10.377  19.641  67.078  1.00  0.00    -0.460 C  
HETATM    3  H   UNL     1     -11.365  19.868  65.415  1.00  0.00     0.000 HD 
ENDROOT
BRANCH   2   4
HETATM    4  C   UNL     1      -9.235  18.741  67.562  1.00  0.00    -0.283 C  
HETATM    5  H   UNL     1      -8.025  18.723  69.092  1.00  0.00     0.000 HD 
HETATM    6  O   UNL     1      -8.733  19.281  68.793  1.00  0.00    -0.362 OA 
BRANCH   4   7
HETATM    7  C   UNL     1      -9.680  17.284  67.772  1.00  0.00    -0.270 C  
HETATM    8  H   UNL     1     -11.371  16.312  68.066  1.00  0.00     0.000 HD 
HETATM    9  O   UNL     1     -11.096  17.213  67.936  1.00  0.00    -0.288 OA 
BRANCH   7  10
HETATM   10  C   UNL     1      -9.246  16.382  66.588  1.00  0.00    -0.253 C  
HETATM   11  H   UNL     1      -8.202  16.558  64.889  1.00  0.00     0.000 HD 
HETATM   12  O   UNL     1      -8.468  17.111  65.616  1.00  0.00    -0.460 OA 
BRANCH  10  13
HETATM   13  C   UNL     1     -10.427  15.725  65.864  1.00  0.00    -0.352 C  
HETATM   14  C   UNL     1     -10.185  14.263  65.445  1.00  0.00    -0.371 C  
HETATM   15  O   UNL     1     -10.838  16.552  64.773  1.00  0.00    -0.720 OA 
HETATM   16  O   UNL     1      -9.546  13.496  66.357  1.00  0.00    -0.270 OA 
HETATM   17  O   UNL     1     -10.598  13.809  64.381  1.00  0.00    -0.418 OA 
HETATM   18  H   UNL     1     -11.571  16.145  64.325  1.00  0.00     0.000 HD 
ENDBRANCH  10  13
ENDBRANCH   7  10
ENDBRANCH   4   7
ENDBRANCH   2   4
TORSDOF 4
ENDMDL
MODEL       32
REMARK 921   NORMALIZED FREE ENERGY PREDICTED BY IDOCK:   -4.49 KCAL/MOL
REMARK 922        TOTAL FREE ENERGY PREDICTED BY IDOCK:   -6.02 KCAL/MOL
REMARK 923 INTER-LIGAND FREE ENERGY PREDICTED BY IDOCK:   -5.19 KCAL/MOL
REMARK 924 INTRA-LIGAND FREE ENERGY PREDICTED BY IDOCK:   -0.83 KCAL/MOL
REMARK 927      BINDING AFFINITY PREDICTED BY RF-SCORE:    0.00 PKD
ROOT
HETATM    1  O   UNL     1     -11.763  12.942  67.666  1.00  0.00    -0.338 OA 
HETATM    2  C   UNL     1     -11.456  12.291  66.430  1.00  0.00    -0.378 C  
HETATM    3  H   UNL     1     -12.184  12.310  68.236  1.00  0.00     0.000 HD 
ENDROOT
BRANCH   2   4
HETATM    4  C   UNL     1     -10.777  13.311  65.510  1.00  0.00    -0.289 C  
HETATM    5  H   UNL     1      -9.589  13.222  63.965  1.00  0.00     0.000 HD 
HETATM    6  O   UNL     1     -10.010  12.590  64.534  1.00  0.00    -0.253 OA 
BRANCH   4   7
HETATM    7  C   UNL     1     -11.785  14.234  64.804  1.00  0.00    -0.415 C  
HETATM    8  H   UNL     1     -13.745  14.370  64.622  1.00  0.00     0.000 HD 
HETATM    9  O   UNL     1     -13.121  13.800  65.057  1.00  0.00    -0.751 OA 
BRANCH   7  10
HETATM   10  C   UNL     1     -11.621  15.706  65.260  1.00  0.00     0.081 C  
HETATM   11  H   UNL     1     -11.446  17.514  64.416  1.00  0.00     0.000 HD 
HETATM   12  O   UNL     1     -11.547  16.611  64.137  1.00  0.00    -1.102 OA 
BRANCH  10  13
HETATM   13  C   UNL     1     -10.386  15.933  66.141  1.00  0.00    -0.328 C  
HETATM   14  C   UNL     1     -10.705  16.322  67.597  1.00  0.00    -0.311 C  
HETATM   15  O   UNL     1      -9.506  16.859  65.501  1.00  0.00    -0.496 OA 
HETATM   16  O   UNL     1     -11.728  15.646  68.168  1.00  0.00    -0.331 OA 
HETATM   17  O   UNL     1     -10.038  17.146  68.216  1.00  0.00    -0.279 OA 
HETATM   18  H   UNL     1      -8.741  16.999  66.047  1.00  0.00     0.000 HD 
ENDBRANCH  10  13
ENDBRANCH   7  10
ENDBRANCH   4   7
ENDBRANCH   2   4
TORSDOF 4
ENDMDL
MODEL       33
REMARK 921   NORMALIZED FREE ENERGY PREDICTED BY IDOCK:   -4.49 KCAL/MOL
REMARK 922        TOTAL FREE ENERGY PREDICTED BY IDOCK:   -6.01 KCAL/MOL
REMARK 923 INTER-LIGAND FREE ENERGY PREDICTED BY IDOCK:   -5.48 KCAL/MOL
REMARK 924 INTRA-LIGAND FREE ENERGY PREDICTED BY IDOCK:   -0.53 KCAL/MOL
REMARK 927      BINDING AFFINITY PREDICTED BY RF-SCORE:    0.00 PKD
ROOT
HETATM    1  O   UNL     1     -12.531  14.050  63.316  1.00  0.00    -1.139 OA 
HETATM    2  C   UNL     1     -12.454  14.106  64.743  1.00  0.00    -0.373 C  
HETATM    3  H   UNL     1     -13.448  14.073  63.069  1.00  0.00     0.000 HD 
ENDROOT
BRANCH   2   4
HETATM    4  C   UNL     1     -10.974  14.069  65.142  1.00  0.00    -0.353 C  
HETATM    5  H   UNL     1      -9.427  12.980  64.665  1.00  0.00     0.000 HD 
HETATM    6  O   UNL     1     -10.344  13.003  64.418  1.00  0.00    -0.388 OA 
BRANCH   4   7
HETATM    7  C   UNL     1     -10.252  15.397  64.853  1.00  0.00    -0.127 C  
HETATM    8  H   UNL     1     -10.730  17.195  64.197  1.00  0.00     0.000 HD 
HETATM    9  O   UNL     1     -11.176  16.375  64.376  1.00  0.00    -0.807 OA 
BRANCH   7  10
HETATM   10  C   UNL     1      -9.528  15.934  66.113  1.00  0.00    -0.340 C  
HETATM   11  H   UNL     1      -8.937  15.244  67.897  1.00  0.00     0.000 HD 
HETATM   12  O   UNL     1      -9.381  14.914  67.124  1.00  0.00    -0.204 OA 
BRANCH  10  13
HETATM   13  C   UNL     1     -10.233  17.140  66.747  1.00  0.00    -0.311 C  
HETATM   14  C   UNL     1      -9.344  18.388  66.904  1.00  0.00    -0.290 C  
HETATM   15  O   UNL     1     -10.849  16.742  67.974  1.00  0.00    -0.355 OA 
HETATM   16  O   UNL     1      -8.531  18.657  65.858  1.00  0.00    -0.491 OA 
HETATM   17  O   UNL     1      -9.413  19.123  67.886  1.00  0.00    -0.303 OA 
HETATM   18  H   UNL     1     -11.286  17.490  68.366  1.00  0.00     0.000 HD 
ENDBRANCH  10  13
ENDBRANCH   7  10
ENDBRANCH   4   7
ENDBRANCH   2   4
TORSDOF 4
ENDMDL
MODEL       34
REMARK 921   NORMALIZED FREE ENERGY PREDICTED BY IDOCK:   -4.43 KCAL/MOL
REMARK 922        TOTAL FREE ENERGY PREDICTED BY IDOCK:   -5.93 KCAL/MOL
REMARK 923 INTER-LIGAND FREE ENERGY PREDICTED BY IDOCK:   -5.12 KCAL/MOL
REMARK 924 INTRA-LIGAND FREE ENERGY PREDICTED BY IDOCK:   -0.81 KCAL/MOL
REMARK 927      BINDING AFFINITY PREDICTED BY RF-SCORE:    0.00 PKD
ROOT
HETATM    1  O   UNL     1     -10.135  15.929  68.925  1.00  0.00    -0.206 OA 
HETATM    2  C   UNL     1      -9.482  16.841  68.037  1.00  0.00    -0.233 C  
HETATM    3  H   UNL     1      -9.727  16.005  69.779  1.00  0.00     0.000 HD 
ENDROOT
BRANCH   2   4
HETATM    4  C   UNL     1     -10.141  16.719  66.659  1.00  0.00    -0.300 C  
HETATM    5  H   UNL     1     -10.249  17.833  65.061  1.00  0.00     0.000 HD 
HETATM    6  O   UNL     1      -9.841  17.909  65.914  1.00  0.00    -0.529 OA 
BRANCH   4   7
HETATM    7  C   UNL     1      -9.662  15.481  65.882  1.00  0.00    -0.357 C  
HETATM    8  H   UNL     1      -8.324  14.051  66.117  1.00  0.00     0.000 HD 
HETATM    9  O   UNL     1      -8.620  14.816  66.596  1.00  0.00    -0.229 OA 
BRANCH   7  10
HETATM   10  C   UNL     1     -10.826  14.492  65.618  1.00  0.00    -0.326 C  
HETATM   11  H   UNL     1     -11.942  13.196  66.658  1.00  0.00     0.000 HD 
HETATM   12  O   UNL     1     -11.228  13.803  66.820  1.00  0.00    -0.303 OA 
BRANCH  10  13
HETATM   13  C   UNL     1     -10.498  13.442  64.549  1.00  0.00    -0.413 C  
HETATM   14  C   UNL     1     -11.721  12.914  63.777  1.00  0.00    -0.492 C  
HETATM   15  O   UNL     1      -9.717  12.397  65.131  1.00  0.00    -0.425 OA 
HETATM   16  O   UNL     1     -12.637  13.847  63.432  1.00  0.00    -0.853 OA 
HETATM   17  O   UNL     1     -11.827  11.737  63.444  1.00  0.00    -0.453 OA 
HETATM   18  H   UNL     1      -9.513  11.747  64.469  1.00  0.00     0.000 HD 
ENDBRANCH  10  13
ENDBRANCH   7  10
ENDBRANCH   4   7
ENDBRANCH   2   4
TORSDOF 4
ENDMDL
MODEL       35
REMARK 921   NORMALIZED FREE ENERGY PREDICTED BY IDOCK:   -4.41 KCAL/MOL
REMARK 922        TOTAL FREE ENERGY PREDICTED BY IDOCK:   -5.91 KCAL/MOL
REMARK 923 INTER-LIGAND FREE ENERGY PREDICTED BY IDOCK:   -5.58 KCAL/MOL
REMARK 924 INTRA-LIGAND FREE ENERGY PREDICTED BY IDOCK:   -0.33 KCAL/MOL
REMARK 927      BINDING AFFINITY PREDICTED BY RF-SCORE:    0.00 PKD
ROOT
HETATM    1  O   UNL     1     -11.613  13.928  70.811  1.00  0.00    -0.514 OA 
HETATM    2  C   UNL     1     -12.279  12.799  70.238  1.00  0.00    -0.277 C  
HETATM    3  H   UNL     1     -12.008  14.106  71.656  1.00  0.00     0.000 HD 
ENDROOT
BRANCH   2   4
HETATM    4  C   UNL     1     -11.642  12.510  68.875  1.00  0.00    -0.318 C  
HETATM    5  H   UNL     1     -11.676  11.031  67.603  1.00  0.00     0.000 HD 
HETATM    6  O   UNL     1     -12.071  11.209  68.448  1.00  0.00    -0.605 OA 
BRANCH   4   7
HETATM    7  C   UNL     1     -12.017  13.559  67.813  1.00  0.00    -0.334 C  
HETATM    8  H   UNL     1     -11.714  15.484  67.507  1.00  0.00     0.000 HD 
HETATM    9  O   UNL     1     -11.482  14.836  68.162  1.00  0.00    -0.295 OA 
BRANCH   7  10
HETATM   10  C   UNL     1     -11.512  13.149  66.407  1.00  0.00    -0.334 C  
HETATM   11  H   UNL     1     -10.193  13.804  65.051  1.00  0.00     0.000 HD 
HETATM   12  O   UNL     1     -10.504  14.056  65.913  1.00  0.00    -0.292 OA 
BRANCH  10  13
HETATM   13  C   UNL     1     -12.632  13.061  65.363  1.00  0.00    -0.422 C  
HETATM   14  C   UNL     1     -12.142  12.848  63.918  1.00  0.00    -0.480 C  
HETATM   15  O   UNL     1     -13.496  14.191  65.494  1.00  0.00    -0.710 OA 
HETATM   16  O   UNL     1     -11.123  11.970  63.774  1.00  0.00    -0.363 OA 
HETATM   17  O   UNL     1     -12.678  13.393  62.958  1.00  0.00    -0.631 OA 
HETATM   18  H   UNL     1     -14.190  14.136  64.847  1.00  0.00     0.000 HD 
ENDBRANCH  10  13
ENDBRANCH   7  10
ENDBRANCH   4   7
ENDBRANCH   2   4
TORSDOF 4
ENDMDL
MODEL       36
REMARK 921   NORMALIZED FREE ENERGY PREDICTED BY IDOCK:   -4.40 KCAL/MOL
REMARK 922        TOTAL FREE ENERGY PREDICTED BY IDOCK:   -5.90 KCAL/MOL
REMARK 923 INTER-LIGAND FREE ENERGY PREDICTED BY IDOCK:   -5.09 KCAL/MOL
REMARK 924 INTRA-LIGAND FREE ENERGY PREDICTED BY IDOCK:   -0.81 KCAL/MOL
REMARK 927      BINDING AFFINITY PREDICTED BY RF-SCORE:    0.00 PKD
ROOT
HETATM    1  O   UNL     1     -11.583  12.525  69.987  1.00  0.00    -0.493 OA 
HETATM    2  C   UNL     1     -11.444  13.947  70.038  1.00  0.00    -0.140 C  
HETATM    3  H   UNL     1     -11.277  12.168  70.812  1.00  0.00     0.000 HD 
ENDROOT
BRANCH   2   4
HETATM    4  C   UNL     1     -11.939  14.523  68.706  1.00  0.00    -0.280 C  
HETATM    5  H   UNL     1     -12.296  16.308  68.004  1.00  0.00     0.000 HD 
HETATM    6  O   UNL     1     -11.989  15.951  68.829  1.00  0.00    -0.368 OA 
BRANCH   4   7
HETATM    7  C   UNL     1     -11.038  14.131  67.523  1.00  0.00    -0.291 C  
HETATM    8  H   UNL     1      -9.301  13.234  67.258  1.00  0.00     0.000 HD 
HETATM    9  O   UNL     1      -9.857  13.476  67.989  1.00  0.00    -0.223 OA 
BRANCH   7  10
HETATM   10  C   UNL     1     -11.783  13.211  66.523  1.00  0.00    -0.382 C  
HETATM   11  H   UNL     1     -12.408  11.311  66.431  1.00  0.00     0.000 HD 
HETATM   12  O   UNL     1     -11.950  11.875  67.044  1.00  0.00    -0.615 OA 
BRANCH  10  13
HETATM   13  C   UNL     1     -11.089  13.111  65.159  1.00  0.00    -0.287 C  
HETATM   14  C   UNL     1     -11.821  12.224  64.134  1.00  0.00    -0.419 C  
HETATM   15  O   UNL     1      -9.724  12.730  65.345  1.00  0.00    -0.443 OA 
HETATM   16  O   UNL     1     -13.167  12.357  64.109  1.00  0.00    -0.761 OA 
HETATM   17  O   UNL     1     -11.220  11.492  63.353  1.00  0.00    -0.387 OA 
HETATM   18  H   UNL     1      -9.294  12.668  64.500  1.00  0.00     0.000 HD 
ENDBRANCH  10  13
ENDBRANCH   7  10
ENDBRANCH   4   7
ENDBRANCH   2   4
TORSDOF 4
ENDMDL
MODEL       37
REMARK 921   NORMALIZED FREE ENERGY PREDICTED BY IDOCK:   -4.40 KCAL/MOL
REMARK 922        TOTAL FREE ENERGY PREDICTED BY IDOCK:   -5.90 KCAL/MOL
REMARK 923 INTER-LIGAND FREE ENERGY PREDICTED BY IDOCK:   -4.97 KCAL/MOL
REMARK 924 INTRA-LIGAND FREE ENERGY PREDICTED BY IDOCK:   -0.93 KCAL/MOL
REMARK 927      BINDING AFFINITY PREDICTED BY RF-SCORE:    0.00 PKD
ROOT
HETATM    1  O   UNL     1      -9.021  14.552  68.022  1.00  0.00    -0.168 OA 
HETATM    2  C   UNL     1     -10.200  14.738  68.811  1.00  0.00    -0.239 C  
HETATM    3  H   UNL     1      -8.366  15.172  68.320  1.00  0.00     0.000 HD 
ENDROOT
BRANCH   2   4
HETATM    4  C   UNL     1     -11.257  13.737  68.330  1.00  0.00    -0.272 C  
HETATM    5  H   UNL     1     -12.909  12.996  69.058  1.00  0.00     0.000 HD 
HETATM    6  O   UNL     1     -12.254  13.616  69.355  1.00  0.00    -0.324 OA 
BRANCH   4   7
HETATM    7  C   UNL     1     -11.916  14.164  67.007  1.00  0.00    -0.439 C  
HETATM    8  H   UNL     1     -11.621  15.530  65.615  1.00  0.00     0.000 HD 
HETATM    9  O   UNL     1     -11.214  15.267  66.433  1.00  0.00    -0.315 OA 
BRANCH   7  10
HETATM   10  C   UNL     1     -11.964  12.992  65.994  1.00  0.00    -0.440 C  
HETATM   11  H   UNL     1     -11.728  11.004  66.008  1.00  0.00     0.000 HD 
HETATM   12  O   UNL     1     -11.699  11.723  66.629  1.00  0.00    -0.548 OA 
BRANCH  10  13
HETATM   13  C   UNL     1     -10.983  13.160  64.827  1.00  0.00    -0.336 C  
HETATM   14  C   UNL     1     -11.188  12.161  63.673  1.00  0.00    -0.464 C  
HETATM   15  O   UNL     1      -9.644  13.161  65.326  1.00  0.00    -0.495 OA 
HETATM   16  O   UNL     1     -12.476  11.918  63.338  1.00  0.00    -0.578 OA 
HETATM   17  O   UNL     1     -10.247  11.667  63.059  1.00  0.00    -0.350 OA 
HETATM   18  H   UNL     1      -9.036  13.266  64.603  1.00  0.00     0.000 HD 
ENDBRANCH  10  13
ENDBRANCH   7  10
ENDBRANCH   4   7
ENDBRANCH   2   4
TORSDOF 4
ENDMDL
MODEL       38
REMARK 921   NORMALIZED FREE ENERGY PREDICTED BY IDOCK:   -4.38 KCAL/MOL
REMARK 922        TOTAL FREE ENERGY PREDICTED BY IDOCK:   -5.88 KCAL/MOL
REMARK 923 INTER-LIGAND FREE ENERGY PREDICTED BY IDOCK:   -5.48 KCAL/MOL
REMARK 924 INTRA-LIGAND FREE ENERGY PREDICTED BY IDOCK:   -0.40 KCAL/MOL
REMARK 927      BINDING AFFINITY PREDICTED BY RF-SCORE:    0.00 PKD
ROOT
HETATM    1  O   UNL     1     -11.558  16.247  63.739  1.00  0.00    -1.539 OA 
HETATM    2  C   UNL     1     -11.168  15.184  64.613  1.00  0.00    -0.343 C  
HETATM    3  H   UNL     1     -11.496  15.933  62.845  1.00  0.00     0.000 HD 
ENDROOT
BRANCH   2   4
HETATM    4  C   UNL     1     -11.269  15.691  66.055  1.00  0.00    -0.045 C  
HETATM    5  H   UNL     1     -11.317  14.868  67.823  1.00  0.00     0.000 HD 
HETATM    6  O   UNL     1     -11.255  14.554  66.930  1.00  0.00    -0.316 OA 
BRANCH   4   7
HETATM    7  C   UNL     1     -10.125  16.650  66.425  1.00  0.00    -0.315 C  
HETATM    8  H   UNL     1      -8.334  17.107  65.734  1.00  0.00     0.000 HD 
HETATM    9  O   UNL     1      -9.041  16.514  65.506  1.00  0.00    -0.404 OA 
BRANCH   7  10
HETATM   10  C   UNL     1     -10.605  18.124  66.450  1.00  0.00    -0.271 C  
HETATM   11  H   UNL     1     -11.095  19.550  65.133  1.00  0.00     0.000 HD 
HETATM   12  O   UNL     1     -10.801  18.647  65.119  1.00  0.00    -0.551 OA 
BRANCH  10  13
HETATM   13  C   UNL     1      -9.648  19.060  67.198  1.00  0.00    -0.312 C  
HETATM   14  C   UNL     1      -9.827  19.065  68.728  1.00  0.00    -0.425 C  
HETATM   15  O   UNL     1      -9.719  20.369  66.629  1.00  0.00    -0.542 OA 
HETATM   16  O   UNL     1     -10.035  17.853  69.291  1.00  0.00    -0.248 OA 
HETATM   17  O   UNL     1      -9.726  20.090  69.396  1.00  0.00    -0.167 OA 
HETATM   18  H   UNL     1      -9.126  20.949  67.092  1.00  0.00     0.000 HD 
ENDBRANCH  10  13
ENDBRANCH   7  10
ENDBRANCH   4   7
ENDBRANCH   2   4
TORSDOF 4
ENDMDL
MODEL       39
REMARK 921   NORMALIZED FREE ENERGY PREDICTED BY IDOCK:   -4.36 KCAL/MOL
REMARK 922        TOTAL FREE ENERGY PREDICTED BY IDOCK:   -5.85 KCAL/MOL
REMARK 923 INTER-LIGAND FREE ENERGY PREDICTED BY IDOCK:   -5.27 KCAL/MOL
REMARK 924 INTRA-LIGAND FREE ENERGY PREDICTED BY IDOCK:   -0.59 KCAL/MOL
REMARK 927      BINDING AFFINITY PREDICTED BY RF-SCORE:    0.00 PKD
ROOT
HETATM    1  O   UNL     1     -12.128  12.017  64.904  1.00  0.00    -0.307 OA 
HETATM    2  C   UNL     1     -11.981  12.863  63.759  1.00  0.00    -0.512 C  
HETATM    3  H   UNL     1     -11.872  11.137  64.656  1.00  0.00     0.000 HD 
ENDROOT
BRANCH   2   4
HETATM    4  C   UNL     1     -12.393  14.283  64.160  1.00  0.00    -0.327 C  
HETATM    5  H   UNL     1     -13.536  15.070  65.531  1.00  0.00     0.000 HD 
HETATM    6  O   UNL     1     -13.281  14.190  65.283  1.00  0.00    -0.760 OA 
BRANCH   4   7
HETATM    7  C   UNL     1     -11.188  15.170  64.518  1.00  0.00    -0.272 C  
HETATM    8  H   UNL     1     -10.694  17.074  64.372  1.00  0.00     0.000 HD 
HETATM    9  O   UNL     1     -11.439  16.526  64.150  1.00  0.00    -1.059 OA 
BRANCH   7  10
HETATM   10  C   UNL     1     -10.856  15.092  66.030  1.00  0.00    -0.334 C  
HETATM   11  H   UNL     1     -10.312  16.338  67.499  1.00  0.00     0.000 HD 
HETATM   12  O   UNL     1     -10.516  16.385  66.572  1.00  0.00    -0.302 OA 
BRANCH  10  13
HETATM   13  C   UNL     1      -9.713  14.121  66.349  1.00  0.00    -0.298 C  
HETATM   14  C   UNL     1      -9.960  13.228  67.579  1.00  0.00    -0.223 C  
HETATM   15  O   UNL     1      -8.482  14.842  66.428  1.00  0.00    -0.430 OA 
HETATM   16  O   UNL     1     -11.212  12.730  67.693  1.00  0.00    -0.252 OA 
HETATM   17  O   UNL     1      -9.065  12.938  68.369  1.00  0.00    -0.190 OA 
HETATM   18  H   UNL     1      -7.773  14.241  66.625  1.00  0.00     0.000 HD 
ENDBRANCH  10  13
ENDBRANCH   7  10
ENDBRANCH   4   7
ENDBRANCH   2   4
TORSDOF 4
ENDMDL
MODEL       40
REMARK 921   NORMALIZED FREE ENERGY PREDICTED BY IDOCK:   -4.36 KCAL/MOL
REMARK 922        TOTAL FREE ENERGY PREDICTED BY IDOCK:   -5.84 KCAL/MOL
REMARK 923 INTER-LIGAND FREE ENERGY PREDICTED BY IDOCK:   -5.31 KCAL/MOL
REMARK 924 INTRA-LIGAND FREE ENERGY PREDICTED BY IDOCK:   -0.54 KCAL/MOL
REMARK 927      BINDING AFFINITY PREDICTED BY RF-SCORE:    0.00 PKD
ROOT
HETATM    1  O   UNL     1     -11.371  11.127  63.144  1.00  0.00    -0.808 OA 
HETATM    2  C   UNL     1     -12.515  11.931  63.447  1.00  0.00    -0.463 C  
HETATM    3  H   UNL     1     -11.677  10.298  62.796  1.00  0.00     0.000 HD 
ENDROOT
BRANCH   2   4
HETATM    4  C   UNL     1     -12.022  13.269  64.008  1.00  0.00    -0.465 C  
HETATM    5  H   UNL     1     -12.470  15.148  63.732  1.00  0.00     0.000 HD 
HETATM    6  O   UNL     1     -12.775  14.319  63.384  1.00  0.00    -0.733 OA 
BRANCH   4   7
HETATM    7  C   UNL     1     -12.168  13.358  65.537  1.00  0.00    -0.455 C  
HETATM    8  H   UNL     1     -12.090  12.124  67.074  1.00  0.00     0.000 HD 
HETATM    9  O   UNL     1     -12.000  12.070  66.130  1.00  0.00    -0.581 OA 
BRANCH   7  10
HETATM   10  C   UNL     1     -11.145  14.350  66.147  1.00  0.00    -0.330 C  
HETATM   11  H   UNL     1      -9.653  15.525  65.514  1.00  0.00     0.000 HD 
HETATM   12  O   UNL     1     -10.281  14.917  65.140  1.00  0.00    -0.383 OA 
BRANCH  10  13
HETATM   13  C   UNL     1     -10.266  13.719  67.235  1.00  0.00    -0.253 C  
HETATM   14  C   UNL     1      -9.666  14.727  68.233  1.00  0.00    -0.218 C  
HETATM   15  O   UNL     1      -9.276  12.888  66.626  1.00  0.00    -0.241 OA 
HETATM   16  O   UNL     1     -10.502  15.709  68.639  1.00  0.00    -0.221 OA 
HETATM   17  O   UNL     1      -8.528  14.611  68.677  1.00  0.00    -0.155 OA 
HETATM   18  H   UNL     1      -8.732  12.497  67.300  1.00  0.00     0.000 HD 
ENDBRANCH  10  13
ENDBRANCH   7  10
ENDBRANCH   4   7
ENDBRANCH   2   4
TORSDOF 4
ENDMDL
MODEL       41
REMARK 921   NORMALIZED FREE ENERGY PREDICTED BY IDOCK:   -4.34 KCAL/MOL
REMARK 922        TOTAL FREE ENERGY PREDICTED BY IDOCK:   -5.83 KCAL/MOL
REMARK 923 INTER-LIGAND FREE ENERGY PREDICTED BY IDOCK:   -5.52 KCAL/MOL
REMARK 924 INTRA-LIGAND FREE ENERGY PREDICTED BY IDOCK:   -0.31 KCAL/MOL
REMARK 927      BINDING AFFINITY PREDICTED BY RF-SCORE:    0.00 PKD
ROOT
HETATM    1  O   UNL     1     -12.991  12.305  63.819  1.00  0.00    -0.766 OA 
HETATM    2  C   UNL     1     -11.884  13.210  63.873  1.00  0.00    -0.472 C  
HETATM    3  H   UNL     1     -12.787  11.627  63.186  1.00  0.00     0.000 HD 
ENDROOT
BRANCH   2   4
HETATM    4  C   UNL     1     -12.211  14.304  64.895  1.00  0.00    -0.440 C  
HETATM    5  H   UNL     1     -13.638  14.626  66.186  1.00  0.00     0.000 HD 
HETATM    6  O   UNL     1     -13.435  13.947  65.553  1.00  0.00    -0.657 OA 
BRANCH   4   7
HETATM    7  C   UNL     1     -11.094  14.494  65.935  1.00  0.00    -0.327 C  
HETATM    8  H   UNL     1      -9.759  15.872  66.393  1.00  0.00     0.000 HD 
HETATM    9  O   UNL     1     -10.449  15.754  65.750  1.00  0.00    -0.324 OA 
BRANCH   7  10
HETATM   10  C   UNL     1     -11.644  14.397  67.381  1.00  0.00    -0.375 C  
HETATM   11  H   UNL     1     -12.029  15.629  68.912  1.00  0.00     0.000 HD 
HETATM   12  O   UNL     1     -11.692  15.688  68.025  1.00  0.00    -0.306 OA 
BRANCH  10  13
HETATM   13  C   UNL     1     -10.837  13.445  68.273  1.00  0.00    -0.256 C  
HETATM   14  C   UNL     1     -11.501  12.076  68.508  1.00  0.00    -0.293 C  
HETATM   15  O   UNL     1     -10.492  14.109  69.490  1.00  0.00    -0.431 OA 
HETATM   16  O   UNL     1     -12.088  11.521  67.423  1.00  0.00    -0.593 OA 
HETATM   17  O   UNL     1     -11.449  11.500  69.591  1.00  0.00    -0.275 OA 
HETATM   18  H   UNL     1      -9.992  13.519  70.042  1.00  0.00     0.000 HD 
ENDBRANCH  10  13
ENDBRANCH   7  10
ENDBRANCH   4   7
ENDBRANCH   2   4
TORSDOF 4
ENDMDL
MODEL       42
REMARK 921   NORMALIZED FREE ENERGY PREDICTED BY IDOCK:   -4.31 KCAL/MOL
REMARK 922        TOTAL FREE ENERGY PREDICTED BY IDOCK:   -5.78 KCAL/MOL
REMARK 923 INTER-LIGAND FREE ENERGY PREDICTED BY IDOCK:   -5.19 KCAL/MOL
REMARK 924 INTRA-LIGAND FREE ENERGY PREDICTED BY IDOCK:   -0.59 KCAL/MOL
REMARK 927      BINDING AFFINITY PREDICTED BY RF-SCORE:    0.00 PKD
ROOT
HETATM    1  O   UNL     1     -12.112  11.846  64.291  1.00  0.00    -0.319 OA 
HETATM    2  C   UNL     1     -11.982  12.961  63.404  1.00  0.00    -0.537 C  
HETATM    3  H   UNL     1     -11.962  11.053  63.792  1.00  0.00     0.000 HD 
ENDROOT
BRANCH   2   4
HETATM    4  C   UNL     1     -12.224  14.242  64.209  1.00  0.00    -0.423 C  
HETATM    5  H   UNL     1     -13.386  14.763  65.687  1.00  0.00     0.000 HD 
HETATM    6  O   UNL     1     -13.236  13.969  65.188  1.00  0.00    -0.768 OA 
BRANCH   4   7
HETATM    7  C   UNL     1     -10.949  14.753  64.903  1.00  0.00    -0.412 C  
HETATM    8  H   UNL     1     -10.011  16.473  65.128  1.00  0.00     0.000 HD 
HETATM    9  O   UNL     1     -10.798  16.158  64.699  1.00  0.00    -0.650 OA 
BRANCH   7  10
HETATM   10  C   UNL     1     -10.969  14.446  66.422  1.00  0.00    -0.319 C  
HETATM   11  H   UNL     1     -10.659  15.424  68.142  1.00  0.00     0.000 HD 
HETATM   12  O   UNL     1     -10.647  15.612  67.210  1.00  0.00    -0.294 OA 
BRANCH  10  13
HETATM   13  C   UNL     1     -10.014  13.315  66.824  1.00  0.00    -0.263 C  
HETATM   14  C   UNL     1     -10.693  12.128  67.532  1.00  0.00    -0.232 C  
HETATM   15  O   UNL     1      -8.923  13.856  67.573  1.00  0.00    -0.178 OA 
HETATM   16  O   UNL     1     -11.881  11.746  67.013  1.00  0.00    -0.599 OA 
HETATM   17  O   UNL     1     -10.163  11.531  68.464  1.00  0.00    -0.201 OA 
HETATM   18  H   UNL     1      -8.331  13.156  67.822  1.00  0.00     0.000 HD 
ENDBRANCH  10  13
ENDBRANCH   7  10
ENDBRANCH   4   7
ENDBRANCH   2   4
TORSDOF 4
ENDMDL
MODEL       43
REMARK 921   NORMALIZED FREE ENERGY PREDICTED BY IDOCK:   -4.30 KCAL/MOL
REMARK 922        TOTAL FREE ENERGY PREDICTED BY IDOCK:   -5.77 KCAL/MOL
REMARK 923 INTER-LIGAND FREE ENERGY PREDICTED BY IDOCK:   -5.48 KCAL/MOL
REMARK 924 INTRA-LIGAND FREE ENERGY PREDICTED BY IDOCK:   -0.29 KCAL/MOL
REMARK 927      BINDING AFFINITY PREDICTED BY RF-SCORE:    0.00 PKD
ROOT
HETATM    1  O   UNL     1     -14.185   9.051  73.154  1.00  0.00    -1.142 OA 
HETATM    2  C   UNL     1     -13.486   8.762  71.940  1.00  0.00    -0.404 C  
HETATM    3  H   UNL     1     -14.498   8.231  73.517  1.00  0.00     0.000 HD 
ENDROOT
BRANCH   2   4
HETATM    4  C   UNL     1     -12.980  10.084  71.354  1.00  0.00    -0.418 C  
HETATM    5  H   UNL     1     -12.935  11.944  71.942  1.00  0.00     0.000 HD 
HETATM    6  O   UNL     1     -13.248  11.125  72.305  1.00  0.00    -0.413 OA 
BRANCH   4   7
HETATM    7  C   UNL     1     -11.478  10.049  71.026  1.00  0.00    -0.383 C  
HETATM    8  H   UNL     1     -10.033   8.707  70.990  1.00  0.00     0.000 HD 
HETATM    9  O   UNL     1     -10.961   8.729  71.192  1.00  0.00    -0.237 OA 
BRANCH   7  10
HETATM   10  C   UNL     1     -11.201  10.540  69.582  1.00  0.00    -0.282 C  
HETATM   11  H   UNL     1      -9.617  10.970  68.436  1.00  0.00     0.000 HD 
HETATM   12  O   UNL     1      -9.787  10.669  69.321  1.00  0.00    -0.218 OA 
BRANCH  10  13
HETATM   13  C   UNL     1     -11.874  11.879  69.259  1.00  0.00    -0.318 C  
HETATM   14  C   UNL     1     -11.670  12.362  67.811  1.00  0.00    -0.350 C  
HETATM   15  O   UNL     1     -11.484  12.855  70.227  1.00  0.00    -0.515 OA 
HETATM   16  O   UNL     1     -11.764  11.404  66.861  1.00  0.00    -0.507 OA 
HETATM   17  O   UNL     1     -11.494  13.545  67.533  1.00  0.00    -0.296 OA 
HETATM   18  H   UNL     1     -11.902  13.685  70.027  1.00  0.00     0.000 HD 
ENDBRANCH  10  13
ENDBRANCH   7  10
ENDBRANCH   4   7
ENDBRANCH   2   4
TORSDOF 4
ENDMDL
MODEL       44
REMARK 921   NORMALIZED FREE ENERGY PREDICTED BY IDOCK:   -4.26 KCAL/MOL
REMARK 922        TOTAL FREE ENERGY PREDICTED BY IDOCK:   -5.72 KCAL/MOL
REMARK 923 INTER-LIGAND FREE ENERGY PREDICTED BY IDOCK:   -5.07 KCAL/MOL
REMARK 924 INTRA-LIGAND FREE ENERGY PREDICTED BY IDOCK:   -0.65 KCAL/MOL
REMARK 927      BINDING AFFINITY PREDICTED BY RF-SCORE:    0.00 PKD
ROOT
HETATM    1  O   UNL     1     -12.526  13.727  62.901  1.00  0.00    -1.009 OA 
HETATM    2  C   UNL     1     -12.403  12.899  64.061  1.00  0.00    -0.380 C  
HETATM    3  H   UNL     1     -13.436  13.720  62.629  1.00  0.00     0.000 HD 
ENDROOT
BRANCH   2   4
HETATM    4  C   UNL     1     -10.935  12.910  64.501  1.00  0.00    -0.351 C  
HETATM    5  H   UNL     1      -9.217  12.575  63.639  1.00  0.00     0.000 HD 
HETATM    6  O   UNL     1     -10.127  12.568  63.366  1.00  0.00    -0.396 OA 
BRANCH   4   7
HETATM    7  C   UNL     1     -10.498  14.274  65.063  1.00  0.00    -0.435 C  
HETATM    8  H   UNL     1     -11.276  16.074  65.268  1.00  0.00     0.000 HD 
HETATM    9  O   UNL     1     -11.546  15.232  64.920  1.00  0.00    -0.352 OA 
BRANCH   7  10
HETATM   10  C   UNL     1     -10.088  14.167  66.554  1.00  0.00    -0.280 C  
HETATM   11  H   UNL     1      -9.757  12.728  67.907  1.00  0.00     0.000 HD 
HETATM   12  O   UNL     1     -10.008  12.794  66.992  1.00  0.00    -0.225 OA 
BRANCH  10  13
HETATM   13  C   UNL     1     -11.037  14.918  67.497  1.00  0.00    -0.317 C  
HETATM   14  C   UNL     1     -10.569  14.969  68.964  1.00  0.00    -0.245 C  
HETATM   15  O   UNL     1     -12.360  14.397  67.357  1.00  0.00    -0.623 OA 
HETATM   16  O   UNL     1      -9.248  15.196  69.144  1.00  0.00    -0.206 OA 
HETATM   17  O   UNL     1     -11.351  14.872  69.905  1.00  0.00    -0.254 OA 
HETATM   18  H   UNL     1     -12.948  14.862  67.941  1.00  0.00     0.000 HD 
ENDBRANCH  10  13
ENDBRANCH   7  10
ENDBRANCH   4   7
ENDBRANCH   2   4
TORSDOF 4
ENDMDL
MODEL       45
REMARK 921   NORMALIZED FREE ENERGY PREDICTED BY IDOCK:   -4.23 KCAL/MOL
REMARK 922        TOTAL FREE ENERGY PREDICTED BY IDOCK:   -5.69 KCAL/MOL
REMARK 923 INTER-LIGAND FREE ENERGY PREDICTED BY IDOCK:   -5.35 KCAL/MOL
REMARK 924 INTRA-LIGAND FREE ENERGY PREDICTED BY IDOCK:   -0.34 KCAL/MOL
REMARK 927      BINDING AFFINITY PREDICTED BY RF-SCORE:    0.00 PKD
ROOT
HETATM    1  O   UNL     1      -9.789  14.203  68.189  1.00  0.00    -0.216 OA 
HETATM    2  C   UNL     1     -11.003  13.570  67.774  1.00  0.00    -0.266 C  
HETATM    3  H   UNL     1      -9.442  13.720  68.929  1.00  0.00     0.000 HD 
ENDROOT
BRANCH   2   4
HETATM    4  C   UNL     1     -11.562  14.348  66.579  1.00  0.00    -0.378 C  
HETATM    5  H   UNL     1     -10.802  15.323  65.069  1.00  0.00     0.000 HD 
HETATM    6  O   UNL     1     -10.455  14.841  65.810  1.00  0.00    -0.298 OA 
BRANCH   4   7
HETATM    7  C   UNL     1     -12.476  13.488  65.689  1.00  0.00    -0.479 C  
HETATM    8  H   UNL     1     -14.308  13.589  64.965  1.00  0.00     0.000 HD 
HETATM    9  O   UNL     1     -13.744  14.120  65.515  1.00  0.00    -0.396 OA 
BRANCH   7  10
HETATM   10  C   UNL     1     -11.831  13.222  64.305  1.00  0.00    -0.417 C  
HETATM   11  H   UNL     1     -12.186  13.676  62.387  1.00  0.00     0.000 HD 
HETATM   12  O   UNL     1     -12.581  13.838  63.236  1.00  0.00    -0.830 OA 
BRANCH  10  13
HETATM   13  C   UNL     1     -11.678  11.730  63.985  1.00  0.00    -0.327 C  
HETATM   14  C   UNL     1     -10.224  11.221  63.996  1.00  0.00    -0.348 C  
HETATM   15  O   UNL     1     -12.359  11.431  62.765  1.00  0.00    -0.888 OA 
HETATM   16  O   UNL     1      -9.451  11.697  64.998  1.00  0.00    -0.205 OA 
HETATM   17  O   UNL     1      -9.813  10.394  63.188  1.00  0.00    -0.299 OA 
HETATM   18  H   UNL     1     -12.264  10.506  62.567  1.00  0.00     0.000 HD 
ENDBRANCH  10  13
ENDBRANCH   7  10
ENDBRANCH   4   7
ENDBRANCH   2   4
TORSDOF 4
ENDMDL
MODEL       46
REMARK 921   NORMALIZED FREE ENERGY PREDICTED BY IDOCK:   -4.22 KCAL/MOL
REMARK 922        TOTAL FREE ENERGY PREDICTED BY IDOCK:   -5.68 KCAL/MOL
REMARK 923 INTER-LIGAND FREE ENERGY PREDICTED BY IDOCK:   -5.41 KCAL/MOL
REMARK 924 INTRA-LIGAND FREE ENERGY PREDICTED BY IDOCK:   -0.27 KCAL/MOL
REMARK 927      BINDING AFFINITY PREDICTED BY RF-SCORE:    0.00 PKD
ROOT
HETATM    1  O   UNL     1     -12.522  13.981  67.613  1.00  0.00    -0.498 OA 
HETATM    2  C   UNL     1     -11.963  14.557  66.429  1.00  0.00    -0.334 C  
HETATM    3  H   UNL     1     -12.023  14.294  68.358  1.00  0.00     0.000 HD 
ENDROOT
BRANCH   2   4
HETATM    4  C   UNL     1     -12.769  14.053  65.227  1.00  0.00    -0.439 C  
HETATM    5  H   UNL     1     -13.021  14.623  63.379  1.00  0.00     0.000 HD 
HETATM    6  O   UNL     1     -12.521  14.935  64.123  1.00  0.00    -0.763 OA 
BRANCH   4   7
HETATM    7  C   UNL     1     -12.406  12.610  64.836  1.00  0.00    -0.498 C  
HETATM    8  H   UNL     1     -12.671  11.418  63.287  1.00  0.00     0.000 HD 
HETATM    9  O   UNL     1     -12.895  12.309  63.529  1.00  0.00    -0.768 OA 
BRANCH   7  10
HETATM   10  C   UNL     1     -10.875  12.377  64.885  1.00  0.00    -0.297 C  
HETATM   11  H   UNL     1      -9.310  12.504  63.643  1.00  0.00     0.000 HD 
HETATM   12  O   UNL     1     -10.249  12.647  63.613  1.00  0.00    -0.383 OA 
BRANCH  10  13
HETATM   13  C   UNL     1     -10.492  10.957  65.318  1.00  0.00    -0.230 C  
HETATM   14  C   UNL     1     -10.601  10.700  66.832  1.00  0.00    -0.254 C  
HETATM   15  O   UNL     1      -9.204  10.628  64.792  1.00  0.00    -0.196 OA 
HETATM   16  O   UNL     1     -11.688  11.232  67.435  1.00  0.00    -0.580 OA 
HETATM   17  O   UNL     1      -9.788  10.008  67.440  1.00  0.00    -0.172 OA 
HETATM   18  H   UNL     1      -8.967   9.748  65.060  1.00  0.00     0.000 HD 
ENDBRANCH  10  13
ENDBRANCH   7  10
ENDBRANCH   4   7
ENDBRANCH   2   4
TORSDOF 4
ENDMDL
MODEL       47
REMARK 921   NORMALIZED FREE ENERGY PREDICTED BY IDOCK:   -4.22 KCAL/MOL
REMARK 922        TOTAL FREE ENERGY PREDICTED BY IDOCK:   -5.67 KCAL/MOL
REMARK 923 INTER-LIGAND FREE ENERGY PREDICTED BY IDOCK:   -5.21 KCAL/MOL
REMARK 924 INTRA-LIGAND FREE ENERGY PREDICTED BY IDOCK:   -0.46 KCAL/MOL
REMARK 927      BINDING AFFINITY PREDICTED BY RF-SCORE:    0.00 PKD
ROOT
HETATM    1  O   UNL     1     -14.058   8.933  73.387  1.00  0.00    -1.256 OA 
HETATM    2  C   UNL     1     -13.943   8.675  71.985  1.00  0.00    -0.446 C  
HETATM    3  H   UNL     1     -14.577   8.238  73.774  1.00  0.00     0.000 HD 
ENDROOT
BRANCH   2   4
HETATM    4  C   UNL     1     -13.105   9.796  71.361  1.00  0.00    -0.400 C  
HETATM    5  H   UNL     1     -12.996  11.734  71.562  1.00  0.00     0.000 HD 
HETATM    6  O   UNL     1     -13.515  11.039  71.949  1.00  0.00    -0.349 OA 
BRANCH   4   7
HETATM    7  C   UNL     1     -11.595   9.592  71.570  1.00  0.00    -0.395 C  
HETATM    8  H   UNL     1     -10.416   8.256  72.417  1.00  0.00     0.000 HD 
HETATM    9  O   UNL     1     -11.349   8.382  72.288  1.00  0.00    -0.336 OA 
BRANCH   7  10
HETATM   10  C   UNL     1     -10.835   9.560  70.220  1.00  0.00    -0.269 C  
HETATM   11  H   UNL     1      -8.947   9.717  69.572  1.00  0.00     0.000 HD 
HETATM   12  O   UNL     1      -9.413   9.737  70.400  1.00  0.00    -0.247 OA 
BRANCH  10  13
HETATM   13  C   UNL     1     -11.328  10.616  69.223  1.00  0.00    -0.282 C  
HETATM   14  C   UNL     1     -10.866  10.388  67.772  1.00  0.00    -0.297 C  
HETATM   15  O   UNL     1     -11.002  11.920  69.709  1.00  0.00    -0.467 OA 
HETATM   16  O   UNL     1     -10.902   9.105  67.346  1.00  0.00    -0.243 OA 
HETATM   17  O   UNL     1     -10.544  11.314  67.033  1.00  0.00    -0.222 OA 
HETATM   18  H   UNL     1     -11.308  12.574  69.091  1.00  0.00     0.000 HD 
ENDBRANCH  10  13
ENDBRANCH   7  10
ENDBRANCH   4   7
ENDBRANCH   2   4
TORSDOF 4
ENDMDL
MODEL       48
REMARK 921   NORMALIZED FREE ENERGY PREDICTED BY IDOCK:   -4.21 KCAL/MOL
REMARK 922        TOTAL FREE ENERGY PREDICTED BY IDOCK:   -5.67 KCAL/MOL
REMARK 923 INTER-LIGAND FREE ENERGY PREDICTED BY IDOCK:   -5.20 KCAL/MOL
REMARK 924 INTRA-LIGAND FREE ENERGY PREDICTED BY IDOCK:   -0.47 KCAL/MOL
REMARK 927      BINDING AFFINITY PREDICTED BY RF-SCORE:    0.00 PKD
ROOT
HETATM    1  O   UNL     1      -7.494  18.150  65.425  1.00  0.00    -0.499 OA 
HETATM    2  C   UNL     1      -8.026  18.231  66.751  1.00  0.00    -0.244 C  
HETATM    3  H   UNL     1      -6.584  18.419  65.455  1.00  0.00     0.000 HD 
ENDROOT
BRANCH   2   4
HETATM    4  C   UNL     1      -9.495  17.797  66.702  1.00  0.00    -0.292 C  
HETATM    5  H   UNL     1     -11.149  18.546  65.987  1.00  0.00     0.000 HD 
HETATM    6  O   UNL     1     -10.239  18.815  66.017  1.00  0.00    -0.455 OA 
BRANCH   4   7
HETATM    7  C   UNL     1      -9.688  16.444  65.996  1.00  0.00    -0.326 C  
HETATM    8  H   UNL     1      -8.728  14.725  65.869  1.00  0.00     0.000 HD 
HETATM    9  O   UNL     1      -8.609  15.561  66.305  1.00  0.00    -0.291 OA 
BRANCH   7  10
HETATM   10  C   UNL     1     -11.032  15.783  66.394  1.00  0.00    -0.159 C  
HETATM   11  H   UNL     1     -12.085  15.442  68.063  1.00  0.00     0.000 HD 
HETATM   12  O   UNL     1     -11.261  15.847  67.818  1.00  0.00    -0.326 OA 
BRANCH  10  13
HETATM   13  C   UNL     1     -11.140  14.317  65.956  1.00  0.00    -0.319 C  
HETATM   14  C   UNL     1     -12.321  14.018  65.014  1.00  0.00    -0.441 C  
HETATM   15  O   UNL     1     -11.123  13.472  67.108  1.00  0.00    -0.282 OA 
HETATM   16  O   UNL     1     -12.548  14.944  64.055  1.00  0.00    -0.832 OA 
HETATM   17  O   UNL     1     -12.974  12.982  65.091  1.00  0.00    -0.729 OA 
HETATM   18  H   UNL     1     -11.189  12.564  66.836  1.00  0.00     0.000 HD 
ENDBRANCH  10  13
ENDBRANCH   7  10
ENDBRANCH   4   7
ENDBRANCH   2   4
TORSDOF 4
ENDMDL
MODEL       49
REMARK 921   NORMALIZED FREE ENERGY PREDICTED BY IDOCK:   -4.20 KCAL/MOL
REMARK 922        TOTAL FREE ENERGY PREDICTED BY IDOCK:   -5.65 KCAL/MOL
REMARK 923 INTER-LIGAND FREE ENERGY PREDICTED BY IDOCK:   -5.21 KCAL/MOL
REMARK 924 INTRA-LIGAND FREE ENERGY PREDICTED BY IDOCK:   -0.44 KCAL/MOL
REMARK 927      BINDING AFFINITY PREDICTED BY RF-SCORE:    0.00 PKD
ROOT
HETATM    1  O   UNL     1     -11.492   6.655  67.665  1.00  0.00    -0.687 OA 
HETATM    2  C   UNL     1     -10.865   7.087  68.875  1.00  0.00    -0.167 C  
HETATM    3  H   UNL     1     -11.262   7.268  66.977  1.00  0.00     0.000 HD 
ENDROOT
BRANCH   2   4
HETATM    4  C   UNL     1     -11.235   6.096  69.984  1.00  0.00    -0.401 C  
HETATM    5  H   UNL     1     -10.251   5.019  71.279  1.00  0.00     0.000 HD 
HETATM    6  O   UNL     1     -10.021   5.632  70.592  1.00  0.00    -0.181 OA 
BRANCH   4   7
HETATM    7  C   UNL     1     -12.149   6.721  71.053  1.00  0.00    -0.372 C  
HETATM    8  H   UNL     1     -12.603   6.393  72.944  1.00  0.00     0.000 HD 
HETATM    9  O   UNL     1     -12.039   6.007  72.284  1.00  0.00    -0.301 OA 
BRANCH   7  10
HETATM   10  C   UNL     1     -11.809   8.216  71.285  1.00  0.00    -0.287 C  
HETATM   11  H   UNL     1     -10.561   9.299  72.415  1.00  0.00     0.000 HD 
HETATM   12  O   UNL     1     -10.770   8.382  72.272  1.00  0.00    -0.303 OA 
BRANCH  10  13
HETATM   13  C   UNL     1     -13.021   9.051  71.718  1.00  0.00    -0.377 C  
HETATM   14  C   UNL     1     -12.893  10.558  71.425  1.00  0.00    -0.447 C  
HETATM   15  O   UNL     1     -13.325   8.778  73.087  1.00  0.00    -0.918 OA 
HETATM   16  O   UNL     1     -12.350  10.873  70.227  1.00  0.00    -0.302 OA 
HETATM   17  O   UNL     1     -13.311  11.414  72.200  1.00  0.00    -0.469 OA 
HETATM   18  H   UNL     1     -14.076   9.295  73.355  1.00  0.00     0.000 HD 
ENDBRANCH  10  13
ENDBRANCH   7  10
ENDBRANCH   4   7
ENDBRANCH   2   4
TORSDOF 4
ENDMDL
MODEL       50
REMARK 921   NORMALIZED FREE ENERGY PREDICTED BY IDOCK:   -4.19 KCAL/MOL
REMARK 922        TOTAL FREE ENERGY PREDICTED BY IDOCK:   -5.64 KCAL/MOL
REMARK 923 INTER-LIGAND FREE ENERGY PREDICTED BY IDOCK:   -5.25 KCAL/MOL
REMARK 924 INTRA-LIGAND FREE ENERGY PREDICTED BY IDOCK:   -0.39 KCAL/MOL
REMARK 927      BINDING AFFINITY PREDICTED BY RF-SCORE:    0.00 PKD
ROOT
HETATM    1  O   UNL     1     -11.427  10.060  68.306  1.00  0.00    -0.530 OA 
HETATM    2  C   UNL     1     -11.288  11.044  69.335  1.00  0.00    -0.284 C  
HETATM    3  H   UNL     1     -11.793   9.275  68.695  1.00  0.00     0.000 HD 
ENDROOT
BRANCH   2   4
HETATM    4  C   UNL     1     -10.698  12.311  68.706  1.00  0.00    -0.214 C  
HETATM    5  H   UNL     1      -9.190  12.716  67.535  1.00  0.00     0.000 HD 
HETATM    6  O   UNL     1      -9.556  11.931  67.925  1.00  0.00    -0.181 OA 
BRANCH   4   7
HETATM    7  C   UNL     1     -11.711  13.058  67.821  1.00  0.00    -0.359 C  
HETATM    8  H   UNL     1     -12.555  14.840  67.771  1.00  0.00     0.000 HD 
HETATM    9  O   UNL     1     -11.929  14.379  68.317  1.00  0.00    -0.329 OA 
BRANCH   7  10
HETATM   10  C   UNL     1     -11.235  13.126  66.348  1.00  0.00    -0.300 C  
HETATM   11  H   UNL     1     -10.247  14.401  65.162  1.00  0.00     0.000 HD 
HETATM   12  O   UNL     1     -10.539  14.358  66.065  1.00  0.00    -0.287 OA 
BRANCH  10  13
HETATM   13  C   UNL     1     -12.377  12.976  65.335  1.00  0.00    -0.486 C  
HETATM   14  C   UNL     1     -11.925  12.946  63.863  1.00  0.00    -0.480 C  
HETATM   15  O   UNL     1     -13.372  13.970  65.587  1.00  0.00    -0.690 OA 
HETATM   16  O   UNL     1     -10.810  12.223  63.614  1.00  0.00    -0.398 OA 
HETATM   17  O   UNL     1     -12.566  13.491  62.969  1.00  0.00    -0.716 OA 
HETATM   18  H   UNL     1     -14.080  13.877  64.960  1.00  0.00     0.000 HD 
ENDBRANCH  10  13
ENDBRANCH   7  10
ENDBRANCH   4   7
ENDBRANCH   2   4
TORSDOF 4
ENDMDL
MODEL       51
REMARK 921   NORMALIZED FREE ENERGY PREDICTED BY IDOCK:   -4.17 KCAL/MOL
REMARK 922        TOTAL FREE ENERGY PREDICTED BY IDOCK:   -5.62 KCAL/MOL
REMARK 923 INTER-LIGAND FREE ENERGY PREDICTED BY IDOCK:   -4.49 KCAL/MOL
REMARK 924 INTRA-LIGAND FREE ENERGY PREDICTED BY IDOCK:   -1.13 KCAL/MOL
REMARK 927      BINDING AFFINITY PREDICTED BY RF-SCORE:    0.00 PKD
ROOT
HETATM    1  O   UNL     1      -9.588  14.444  65.346  1.00  0.00    -0.538 OA 
HETATM    2  C   UNL     1     -10.911  14.696  64.866  1.00  0.00    -0.407 C  
HETATM    3  H   UNL     1      -9.002  15.073  64.942  1.00  0.00     0.000 HD 
ENDROOT
BRANCH   2   4
HETATM    4  C   UNL     1     -11.856  13.682  65.519  1.00  0.00    -0.362 C  
HETATM    5  H   UNL     1     -13.790  13.456  65.644  1.00  0.00     0.000 HD 
HETATM    6  O   UNL     1     -13.205  14.085  65.239  1.00  0.00    -0.782 OA 
BRANCH   4   7
HETATM    7  C   UNL     1     -11.623  12.248  65.013  1.00  0.00    -0.343 C  
HETATM    8  H   UNL     1     -10.709  11.375  63.498  1.00  0.00     0.000 HD 
HETATM    9  O   UNL     1     -10.854  12.261  63.811  1.00  0.00    -0.366 OA 
BRANCH   7  10
HETATM   10  C   UNL     1     -10.909  11.379  66.080  1.00  0.00    -0.249 C  
HETATM   11  H   UNL     1     -10.071  11.627  67.881  1.00  0.00     0.000 HD 
HETATM   12  O   UNL     1     -10.510  12.159  67.227  1.00  0.00    -0.214 OA 
BRANCH  10  13
HETATM   13  C   UNL     1      -9.671  10.652  65.539  1.00  0.00    -0.237 C  
HETATM   14  C   UNL     1      -9.313   9.358  66.291  1.00  0.00    -0.198 C  
HETATM   15  O   UNL     1      -8.577  11.568  65.459  1.00  0.00    -0.392 OA 
HETATM   16  O   UNL     1     -10.361   8.574  66.631  1.00  0.00    -0.298 OA 
HETATM   17  O   UNL     1      -8.151   9.029  66.513  1.00  0.00    -0.108 OA 
HETATM   18  H   UNL     1      -7.810  11.117  65.124  1.00  0.00     0.000 HD 
ENDBRANCH  10  13
ENDBRANCH   7  10
ENDBRANCH   4   7
ENDBRANCH   2   4
TORSDOF 4
ENDMDL
MODEL       52
REMARK 921   NORMALIZED FREE ENERGY PREDICTED BY IDOCK:   -4.17 KCAL/MOL
REMARK 922        TOTAL FREE ENERGY PREDICTED BY IDOCK:   -5.62 KCAL/MOL
REMARK 923 INTER-LIGAND FREE ENERGY PREDICTED BY IDOCK:   -4.92 KCAL/MOL
REMARK 924 INTRA-LIGAND FREE ENERGY PREDICTED BY IDOCK:   -0.69 KCAL/MOL
REMARK 927      BINDING AFFINITY PREDICTED BY RF-SCORE:    0.00 PKD
ROOT
HETATM    1  O   UNL     1     -14.156   9.039  73.292  1.00  0.00    -1.218 OA 
HETATM    2  C   UNL     1     -13.957   8.771  71.901  1.00  0.00    -0.436 C  
HETATM    3  H   UNL     1     -14.824   8.446  73.614  1.00  0.00     0.000 HD 
ENDROOT
BRANCH   2   4
HETATM    4  C   UNL     1     -12.879   9.728  71.381  1.00  0.00    -0.392 C  
HETATM    5  H   UNL     1     -12.477  11.626  71.593  1.00  0.00     0.000 HD 
HETATM    6  O   UNL     1     -13.145  11.033  71.915  1.00  0.00    -0.486 OA 
BRANCH   4   7
HETATM    7  C   UNL     1     -11.458   9.284  71.769  1.00  0.00    -0.378 C  
HETATM    8  H   UNL     1     -10.630   7.857  72.850  1.00  0.00     0.000 HD 
HETATM    9  O   UNL     1     -11.508   8.132  72.610  1.00  0.00    -0.392 OA 
BRANCH   7  10
HETATM   10  C   UNL     1     -10.598   8.979  70.517  1.00  0.00    -0.227 C  
HETATM   11  H   UNL     1     -10.603   9.422  68.564  1.00  0.00     0.000 HD 
HETATM   12  O   UNL     1     -11.130   9.609  69.333  1.00  0.00    -0.217 OA 
BRANCH  10  13
HETATM   13  C   UNL     1     -10.449   7.478  70.236  1.00  0.00    -0.222 C  
HETATM   14  C   UNL     1      -9.347   7.126  69.219  1.00  0.00    -0.146 C  
HETATM   15  O   UNL     1     -11.721   6.929  69.886  1.00  0.00    -0.562 OA 
HETATM   16  O   UNL     1      -8.196   7.824  69.345  1.00  0.00    -0.127 OA 
HETATM   17  O   UNL     1      -9.482   6.230  68.391  1.00  0.00    -0.120 OA 
HETATM   18  H   UNL     1     -11.629   6.000  69.712  1.00  0.00     0.000 HD 
ENDBRANCH  10  13
ENDBRANCH   7  10
ENDBRANCH   4   7
ENDBRANCH   2   4
TORSDOF 4
ENDMDL
MODEL       53
REMARK 921   NORMALIZED FREE ENERGY PREDICTED BY IDOCK:   -4.10 KCAL/MOL
REMARK 922        TOTAL FREE ENERGY PREDICTED BY IDOCK:   -5.53 KCAL/MOL
REMARK 923 INTER-LIGAND FREE ENERGY PREDICTED BY IDOCK:   -5.17 KCAL/MOL
REMARK 924 INTRA-LIGAND FREE ENERGY PREDICTED BY IDOCK:   -0.36 KCAL/MOL
REMARK 927      BINDING AFFINITY PREDICTED BY RF-SCORE:    0.00 PKD
ROOT
HETATM    1  O   UNL     1     -12.289  10.536  68.654  1.00  0.00    -0.785 OA 
HETATM    2  C   UNL     1     -11.928  11.892  68.934  1.00  0.00    -0.254 C  
HETATM    3  H   UNL     1     -12.567  10.131  69.466  1.00  0.00     0.000 HD 
ENDROOT
BRANCH   2   4
HETATM    4  C   UNL     1     -11.479  12.546  67.623  1.00  0.00    -0.334 C  
HETATM    5  H   UNL     1     -11.842  12.264  65.727  1.00  0.00     0.000 HD 
HETATM    6  O   UNL     1     -12.120  11.858  66.539  1.00  0.00    -0.568 OA 
BRANCH   4   7
HETATM    7  C   UNL     1     -11.818  14.045  67.565  1.00  0.00    -0.407 C  
HETATM    8  H   UNL     1     -11.913  15.560  68.825  1.00  0.00     0.000 HD 
HETATM    9  O   UNL     1     -11.703  14.634  68.860  1.00  0.00    -0.283 OA 
BRANCH   7  10
HETATM   10  C   UNL     1     -10.898  14.796  66.568  1.00  0.00    -0.319 C  
HETATM   11  H   UNL     1      -9.115  14.529  65.699  1.00  0.00     0.000 HD 
HETATM   12  O   UNL     1      -9.679  14.068  66.310  1.00  0.00    -0.288 OA 
BRANCH  10  13
HETATM   13  C   UNL     1     -10.524  16.209  67.036  1.00  0.00    -0.306 C  
HETATM   14  C   UNL     1     -10.031  17.142  65.915  1.00  0.00    -0.194 C  
HETATM   15  O   UNL     1      -9.607  16.122  68.128  1.00  0.00    -0.213 OA 
HETATM   16  O   UNL     1     -10.713  17.062  64.751  1.00  0.00    -0.760 OA 
HETATM   17  O   UNL     1      -9.119  17.946  66.086  1.00  0.00    -0.462 OA 
HETATM   18  H   UNL     1      -9.376  16.997  68.418  1.00  0.00     0.000 HD 
ENDBRANCH  10  13
ENDBRANCH   7  10
ENDBRANCH   4   7
ENDBRANCH   2   4
TORSDOF 4
ENDMDL
MODEL       54
REMARK 921   NORMALIZED FREE ENERGY PREDICTED BY IDOCK:   -4.10 KCAL/MOL
REMARK 922        TOTAL FREE ENERGY PREDICTED BY IDOCK:   -5.53 KCAL/MOL
REMARK 923 INTER-LIGAND FREE ENERGY PREDICTED BY IDOCK:   -5.20 KCAL/MOL
REMARK 924 INTRA-LIGAND FREE ENERGY PREDICTED BY IDOCK:   -0.32 KCAL/MOL
REMARK 927      BINDING AFFINITY PREDICTED BY RF-SCORE:    0.00 PKD
ROOT
HETATM    1  O   UNL     1     -12.411  13.708  62.965  1.00  0.00    -1.041 OA 
HETATM    2  C   UNL     1     -12.311  12.328  63.330  1.00  0.00    -0.517 C  
HETATM    3  H   UNL     1     -12.925  13.766  62.168  1.00  0.00     0.000 HD 
ENDROOT
BRANCH   2   4
HETATM    4  C   UNL     1     -11.481  12.234  64.615  1.00  0.00    -0.336 C  
HETATM    5  H   UNL     1      -9.587  12.048  65.043  1.00  0.00     0.000 HD 
HETATM    6  O   UNL     1     -10.101  12.106  64.247  1.00  0.00    -0.301 OA 
BRANCH   4   7
HETATM    7  C   UNL     1     -11.667  13.459  65.529  1.00  0.00    -0.340 C  
HETATM    8  H   UNL     1     -13.170  14.502  66.266  1.00  0.00     0.000 HD 
HETATM    9  O   UNL     1     -13.055  13.746  65.702  1.00  0.00    -0.591 OA 
BRANCH   7  10
HETATM   10  C   UNL     1     -11.004  13.239  66.912  1.00  0.00    -0.283 C  
HETATM   11  H   UNL     1     -11.448  13.547  68.840  1.00  0.00     0.000 HD 
HETATM   12  O   UNL     1     -11.854  13.681  67.991  1.00  0.00    -0.335 OA 
BRANCH  10  13
HETATM   13  C   UNL     1      -9.647  13.942  67.051  1.00  0.00    -0.254 C  
HETATM   14  C   UNL     1      -9.604  15.366  66.467  1.00  0.00    -0.275 C  
HETATM   15  O   UNL     1      -8.618  13.099  66.530  1.00  0.00    -0.426 OA 
HETATM   16  O   UNL     1     -10.695  16.127  66.711  1.00  0.00    -0.310 OA 
HETATM   17  O   UNL     1      -8.621  15.801  65.874  1.00  0.00    -0.194 OA 
HETATM   18  H   UNL     1      -7.777  13.534  66.616  1.00  0.00     0.000 HD 
ENDBRANCH  10  13
ENDBRANCH   7  10
ENDBRANCH   4   7
ENDBRANCH   2   4
TORSDOF 4
ENDMDL
MODEL       55
REMARK 921   NORMALIZED FREE ENERGY PREDICTED BY IDOCK:   -4.08 KCAL/MOL
REMARK 922        TOTAL FREE ENERGY PREDICTED BY IDOCK:   -5.50 KCAL/MOL
REMARK 923 INTER-LIGAND FREE ENERGY PREDICTED BY IDOCK:   -5.15 KCAL/MOL
REMARK 924 INTRA-LIGAND FREE ENERGY PREDICTED BY IDOCK:   -0.35 KCAL/MOL
REMARK 927      BINDING AFFINITY PREDICTED BY RF-SCORE:    0.00 PKD
ROOT
HETATM    1  O   UNL     1      -9.645  12.183  63.573  1.00  0.00    -0.591 OA 
HETATM    2  C   UNL     1     -10.634  11.301  64.111  1.00  0.00    -0.373 C  
HETATM    3  H   UNL     1      -9.771  12.229  62.633  1.00  0.00     0.000 HD 
ENDROOT
BRANCH   2   4
HETATM    4  C   UNL     1     -10.431  11.227  65.629  1.00  0.00    -0.261 C  
HETATM    5  H   UNL     1      -9.043  11.788  66.880  1.00  0.00     0.000 HD 
HETATM    6  O   UNL     1      -9.169  11.833  65.940  1.00  0.00    -0.223 OA 
BRANCH   4   7
HETATM    7  C   UNL     1     -11.555  11.930  66.409  1.00  0.00    -0.243 C  
HETATM    8  H   UNL     1     -12.640  11.581  68.019  1.00  0.00     0.000 HD 
HETATM    9  O   UNL     1     -11.946  11.147  67.537  1.00  0.00    -0.580 OA 
BRANCH   7  10
HETATM   10  C   UNL     1     -11.121  13.342  66.880  1.00  0.00    -0.289 C  
HETATM   11  H   UNL     1     -11.517  14.592  68.393  1.00  0.00     0.000 HD 
HETATM   12  O   UNL     1     -11.782  13.726  68.104  1.00  0.00    -0.317 OA 
BRANCH  10  13
HETATM   13  C   UNL     1     -11.375  14.434  65.833  1.00  0.00    -0.332 C  
HETATM   14  C   UNL     1     -12.559  14.151  64.890  1.00  0.00    -0.342 C  
HETATM   15  O   UNL     1     -10.162  14.712  65.131  1.00  0.00    -0.383 OA 
HETATM   16  O   UNL     1     -13.657  13.624  65.479  1.00  0.00    -0.414 OA 
HETATM   17  O   UNL     1     -12.530  14.439  63.698  1.00  0.00    -0.805 OA 
HETATM   18  H   UNL     1     -10.319  15.389  64.482  1.00  0.00     0.000 HD 
ENDBRANCH  10  13
ENDBRANCH   7  10
ENDBRANCH   4   7
ENDBRANCH   2   4
TORSDOF 4
ENDMDL
MODEL       56
REMARK 921   NORMALIZED FREE ENERGY PREDICTED BY IDOCK:   -4.07 KCAL/MOL
REMARK 922        TOTAL FREE ENERGY PREDICTED BY IDOCK:   -5.49 KCAL/MOL
REMARK 923 INTER-LIGAND FREE ENERGY PREDICTED BY IDOCK:   -4.87 KCAL/MOL
REMARK 924 INTRA-LIGAND FREE ENERGY PREDICTED BY IDOCK:   -0.62 KCAL/MOL
REMARK 927      BINDING AFFINITY PREDICTED BY RF-SCORE:    0.00 PKD
ROOT
HETATM    1  O   UNL     1     -13.540  14.579  70.610  1.00  0.00    -0.480 OA 
HETATM    2  C   UNL     1     -12.354  13.779  70.591  1.00  0.00    -0.375 C  
HETATM    3  H   UNL     1     -14.026  14.368  71.398  1.00  0.00     0.000 HD 
ENDROOT
BRANCH   2   4
HETATM    4  C   UNL     1     -11.570  14.119  69.319  1.00  0.00    -0.304 C  
HETATM    5  H   UNL     1     -11.615  13.541  67.456  1.00  0.00     0.000 HD 
HETATM    6  O   UNL     1     -12.101  13.330  68.244  1.00  0.00    -0.333 OA 
BRANCH   4   7
HETATM    7  C   UNL     1     -11.649  15.613  68.958  1.00  0.00    -0.386 C  
HETATM    8  H   UNL     1     -11.433  17.341  69.885  1.00  0.00     0.000 HD 
HETATM    9  O   UNL     1     -11.385  16.418  70.108  1.00  0.00    -0.329 OA 
BRANCH   7  10
HETATM   10  C   UNL     1     -10.652  15.976  67.828  1.00  0.00    -0.309 C  
HETATM   11  H   UNL     1      -8.744  15.602  67.350  1.00  0.00     0.000 HD 
HETATM   12  O   UNL     1      -9.356  15.379  68.043  1.00  0.00    -0.194 OA 
BRANCH  10  13
HETATM   13  C   UNL     1     -10.462  17.488  67.652  1.00  0.00    -0.370 C  
HETATM   14  C   UNL     1     -10.031  17.916  66.237  1.00  0.00    -0.331 C  
HETATM   15  O   UNL     1      -9.587  17.980  68.669  1.00  0.00    -0.316 OA 
HETATM   16  O   UNL     1     -10.651  17.272  65.222  1.00  0.00    -0.667 OA 
HETATM   17  O   UNL     1      -9.225  18.821  66.043  1.00  0.00    -0.476 OA 
HETATM   18  H   UNL     1      -9.470  18.917  68.560  1.00  0.00     0.000 HD 
ENDBRANCH  10  13
ENDBRANCH   7  10
ENDBRANCH   4   7
ENDBRANCH   2   4
TORSDOF 4
ENDMDL
MODEL       57
REMARK 921   NORMALIZED FREE ENERGY PREDICTED BY IDOCK:   -4.07 KCAL/MOL
REMARK 922        TOTAL FREE ENERGY PREDICTED BY IDOCK:   -5.49 KCAL/MOL
REMARK 923 INTER-LIGAND FREE ENERGY PREDICTED BY IDOCK:   -5.06 KCAL/MOL
REMARK 924 INTRA-LIGAND FREE ENERGY PREDICTED BY IDOCK:   -0.42 KCAL/MOL
REMARK 927      BINDING AFFINITY PREDICTED BY RF-SCORE:    0.00 PKD
ROOT
HETATM    1  O   UNL     1      -6.171  20.207  69.160  1.00  0.00    -0.292 OA 
HETATM    2  C   UNL     1      -7.408  19.500  69.034  1.00  0.00    -0.357 C  
HETATM    3  H   UNL     1      -6.263  20.839  69.863  1.00  0.00     0.000 HD 
ENDROOT
BRANCH   2   4
HETATM    4  C   UNL     1      -7.260  18.480  67.899  1.00  0.00    -0.237 C  
HETATM    5  H   UNL     1      -5.913  17.174  67.364  1.00  0.00     0.000 HD 
HETATM    6  O   UNL     1      -6.005  17.806  68.067  1.00  0.00    -0.159 OA 
BRANCH   4   7
HETATM    7  C   UNL     1      -8.406  17.454  67.875  1.00  0.00    -0.230 C  
HETATM    8  H   UNL     1     -10.288  17.369  68.458  1.00  0.00     0.000 HD 
HETATM    9  O   UNL     1      -9.580  18.003  68.473  1.00  0.00    -0.310 OA 
BRANCH   7  10
HETATM   10  C   UNL     1      -8.724  16.994  66.429  1.00  0.00    -0.273 C  
HETATM   11  H   UNL     1      -8.082  17.375  64.572  1.00  0.00     0.000 HD 
HETATM   12  O   UNL     1      -7.887  17.657  65.458  1.00  0.00    -0.418 OA 
BRANCH  10  13
HETATM   13  C   UNL     1     -10.188  17.215  66.032  1.00  0.00    -0.321 C  
HETATM   14  C   UNL     1     -10.712  16.241  64.960  1.00  0.00    -0.298 C  
HETATM   15  O   UNL     1     -10.385  18.585  65.678  1.00  0.00    -0.594 OA 
HETATM   16  O   UNL     1     -10.323  14.954  65.105  1.00  0.00    -0.382 OA 
HETATM   17  O   UNL     1     -11.480  16.597  64.070  1.00  0.00    -1.192 OA 
HETATM   18  H   UNL     1     -11.293  18.722  65.432  1.00  0.00     0.000 HD 
ENDBRANCH  10  13
ENDBRANCH   7  10
ENDBRANCH   4   7
ENDBRANCH   2   4
TORSDOF 4
ENDMDL
MODEL       58
REMARK 921   NORMALIZED FREE ENERGY PREDICTED BY IDOCK:   -4.04 KCAL/MOL
REMARK 922        TOTAL FREE ENERGY PREDICTED BY IDOCK:   -5.46 KCAL/MOL
REMARK 923 INTER-LIGAND FREE ENERGY PREDICTED BY IDOCK:   -4.94 KCAL/MOL
REMARK 924 INTRA-LIGAND FREE ENERGY PREDICTED BY IDOCK:   -0.52 KCAL/MOL
REMARK 927      BINDING AFFINITY PREDICTED BY RF-SCORE:    0.00 PKD
ROOT
HETATM    1  O   UNL     1     -12.535  14.041  63.058  1.00  0.00    -1.101 OA 
HETATM    2  C   UNL     1     -12.174  12.872  63.800  1.00  0.00    -0.476 C  
HETATM    3  H   UNL     1     -12.635  13.793  62.147  1.00  0.00     0.000 HD 
ENDROOT
BRANCH   2   4
HETATM    4  C   UNL     1     -12.013  13.273  65.271  1.00  0.00    -0.388 C  
HETATM    5  H   UNL     1     -11.877  12.321  66.969  1.00  0.00     0.000 HD 
HETATM    6  O   UNL     1     -11.977  12.073  66.058  1.00  0.00    -0.559 OA 
BRANCH   4   7
HETATM    7  C   UNL     1     -10.742  14.102  65.522  1.00  0.00    -0.324 C  
HETATM    8  H   UNL     1      -9.937  15.766  64.834  1.00  0.00     0.000 HD 
HETATM    9  O   UNL     1     -10.723  15.254  64.679  1.00  0.00    -0.365 OA 
BRANCH   7  10
HETATM   10  C   UNL     1     -10.633  14.539  67.005  1.00  0.00    -0.278 C  
HETATM   11  H   UNL     1     -11.863  15.077  68.490  1.00  0.00     0.000 HD 
HETATM   12  O   UNL     1     -11.929  14.808  67.581  1.00  0.00    -0.345 OA 
BRANCH  10  13
HETATM   13  C   UNL     1      -9.750  15.776  67.208  1.00  0.00    -0.223 C  
HETATM   14  C   UNL     1      -8.913  15.757  68.500  1.00  0.00    -0.194 C  
HETATM   15  O   UNL     1     -10.547  16.956  67.082  1.00  0.00    -0.313 OA 
HETATM   16  O   UNL     1      -8.349  14.567  68.808  1.00  0.00    -0.160 OA 
HETATM   17  O   UNL     1      -8.720  16.766  69.171  1.00  0.00    -0.210 OA 
HETATM   18  H   UNL     1      -9.999  17.723  67.208  1.00  0.00     0.000 HD 
ENDBRANCH  10  13
ENDBRANCH   7  10
ENDBRANCH   4   7
ENDBRANCH   2   4
TORSDOF 4
ENDMDL
MODEL       59
REMARK 921   NORMALIZED FREE ENERGY PREDICTED BY IDOCK:   -4.03 KCAL/MOL
REMARK 922        TOTAL FREE ENERGY PREDICTED BY IDOCK:   -5.44 KCAL/MOL
REMARK 923 INTER-LIGAND FREE ENERGY PREDICTED BY IDOCK:   -5.08 KCAL/MOL
REMARK 924 INTRA-LIGAND FREE ENERGY PREDICTED BY IDOCK:   -0.36 KCAL/MOL
REMARK 927      BINDING AFFINITY PREDICTED BY RF-SCORE:    0.00 PKD
ROOT
HETATM    1  O   UNL     1      -9.839  10.903  69.445  1.00  0.00    -0.399 OA 
HETATM    2  C   UNL     1     -10.180   9.894  68.491  1.00  0.00    -0.177 C  
HETATM    3  H   UNL     1      -9.211  10.535  70.054  1.00  0.00     0.000 HD 
ENDROOT
BRANCH   2   4
HETATM    4  C   UNL     1     -11.194  10.489  67.509  1.00  0.00    -0.224 C  
HETATM    5  H   UNL     1     -12.694  11.731  67.633  1.00  0.00     0.000 HD 
HETATM    6  O   UNL     1     -12.066  11.362  68.242  1.00  0.00    -0.606 OA 
BRANCH   4   7
HETATM    7  C   UNL     1     -10.521  11.264  66.362  1.00  0.00    -0.257 C  
HETATM    8  H   UNL     1     -10.019  10.928  64.485  1.00  0.00     0.000 HD 
HETATM    9  O   UNL     1     -10.434  10.449  65.193  1.00  0.00    -0.255 OA 
BRANCH   7  10
HETATM   10  C   UNL     1     -11.289  12.569  66.033  1.00  0.00    -0.344 C  
HETATM   11  H   UNL     1     -12.895  13.123  64.973  1.00  0.00     0.000 HD 
HETATM   12  O   UNL     1     -12.424  12.322  65.175  1.00  0.00    -0.563 OA 
BRANCH  10  13
HETATM   13  C   UNL     1     -10.410  13.638  65.372  1.00  0.00    -0.332 C  
HETATM   14  C   UNL     1     -10.852  15.087  65.649  1.00  0.00    -0.349 C  
HETATM   15  O   UNL     1     -10.283  13.356  63.977  1.00  0.00    -0.718 OA 
HETATM   16  O   UNL     1     -11.245  15.342  66.918  1.00  0.00    -0.322 OA 
HETATM   17  O   UNL     1     -10.793  15.965  64.793  1.00  0.00    -0.533 OA 
HETATM   18  H   UNL     1      -9.738  14.018  63.567  1.00  0.00     0.000 HD 
ENDBRANCH  10  13
ENDBRANCH   7  10
ENDBRANCH   4   7
ENDBRANCH   2   4
TORSDOF 4
ENDMDL
MODEL       60
REMARK 921   NORMALIZED FREE ENERGY PREDICTED BY IDOCK:   -4.02 KCAL/MOL
REMARK 922        TOTAL FREE ENERGY PREDICTED BY IDOCK:   -5.43 KCAL/MOL
REMARK 923 INTER-LIGAND FREE ENERGY PREDICTED BY IDOCK:   -5.10 KCAL/MOL
REMARK 924 INTRA-LIGAND FREE ENERGY PREDICTED BY IDOCK:   -0.33 KCAL/MOL
REMARK 927      BINDING AFFINITY PREDICTED BY RF-SCORE:    0.00 PKD
ROOT
HETATM    1  O   UNL     1      -8.763  13.452  68.864  1.00  0.00    -0.370 OA 
HETATM    2  C   UNL     1      -9.725  12.463  68.487  1.00  0.00    -0.136 C  
HETATM    3  H   UNL     1      -8.801  13.557  69.807  1.00  0.00     0.000 HD 
ENDROOT
BRANCH   2   4
HETATM    4  C   UNL     1      -9.664  12.294  66.965  1.00  0.00    -0.205 C  
HETATM    5  H   UNL     1      -8.404  11.511  65.698  1.00  0.00     0.000 HD 
HETATM    6  O   UNL     1      -8.442  11.615  66.641  1.00  0.00    -0.170 OA 
BRANCH   4   7
HETATM    7  C   UNL     1     -10.863  11.507  66.409  1.00  0.00    -0.285 C  
HETATM    8  H   UNL     1     -12.689  11.044  66.994  1.00  0.00     0.000 HD 
HETATM    9  O   UNL     1     -11.948  11.530  67.337  1.00  0.00    -0.623 OA 
BRANCH   7  10
HETATM   10  C   UNL     1     -11.331  12.075  65.046  1.00  0.00    -0.310 C  
HETATM   11  H   UNL     1     -10.963  11.769  63.101  1.00  0.00     0.000 HD 
HETATM   12  O   UNL     1     -10.677  11.421  63.938  1.00  0.00    -0.350 OA 
BRANCH  10  13
HETATM   13  C   UNL     1     -11.108  13.587  64.911  1.00  0.00    -0.346 C  
HETATM   14  C   UNL     1     -12.395  14.405  64.701  1.00  0.00    -0.418 C  
HETATM   15  O   UNL     1     -10.123  13.836  63.905  1.00  0.00    -0.513 OA 
HETATM   16  O   UNL     1     -13.454  14.025  65.451  1.00  0.00    -0.679 OA 
HETATM   17  O   UNL     1     -12.440  15.374  63.948  1.00  0.00    -0.695 OA 
HETATM   18  H   UNL     1      -9.985  14.772  63.822  1.00  0.00     0.000 HD 
ENDBRANCH  10  13
ENDBRANCH   7  10
ENDBRANCH   4   7
ENDBRANCH   2   4
TORSDOF 4
ENDMDL
MODEL       61
REMARK 921   NORMALIZED FREE ENERGY PREDICTED BY IDOCK:   -3.97 KCAL/MOL
REMARK 922        TOTAL FREE ENERGY PREDICTED BY IDOCK:   -5.37 KCAL/MOL
REMARK 923 INTER-LIGAND FREE ENERGY PREDICTED BY IDOCK:   -5.06 KCAL/MOL
REMARK 924 INTRA-LIGAND FREE ENERGY PREDICTED BY IDOCK:   -0.31 KCAL/MOL
REMARK 927      BINDING AFFINITY PREDICTED BY RF-SCORE:    0.00 PKD
ROOT
HETATM    1  O   UNL     1     -11.781  16.264  63.874  1.00  0.00    -1.441 OA 
HETATM    2  C   UNL     1     -11.924  14.847  64.001  1.00  0.00    -0.091 C  
HETATM    3  H   UNL     1     -11.425  16.450  63.014  1.00  0.00     0.000 HD 
ENDROOT
BRANCH   2   4
HETATM    4  C   UNL     1     -12.499  14.548  65.390  1.00  0.00    -0.260 C  
HETATM    5  H   UNL     1     -13.592  13.134  66.172  1.00  0.00     0.000 HD 
HETATM    6  O   UNL     1     -13.236  13.319  65.312  1.00  0.00    -0.625 OA 
BRANCH   4   7
HETATM    7  C   UNL     1     -11.409  14.436  66.469  1.00  0.00    -0.350 C  
HETATM    8  H   UNL     1     -10.261  15.664  67.502  1.00  0.00     0.000 HD 
HETATM    9  O   UNL     1     -10.934  15.732  66.835  1.00  0.00    -0.300 OA 
BRANCH   7  10
HETATM   10  C   UNL     1     -11.931  13.698  67.728  1.00  0.00    -0.352 C  
HETATM   11  H   UNL     1     -12.076  14.035  69.696  1.00  0.00     0.000 HD 
HETATM   12  O   UNL     1     -11.756  14.487  68.924  1.00  0.00    -0.287 OA 
BRANCH  10  13
HETATM   13  C   UNL     1     -11.265  12.335  67.950  1.00  0.00    -0.274 C  
HETATM   14  C   UNL     1      -9.735  12.336  67.774  1.00  0.00    -0.199 C  
HETATM   15  O   UNL     1     -11.914  11.350  67.143  1.00  0.00    -0.532 OA 
HETATM   16  O   UNL     1      -9.092  13.404  68.297  1.00  0.00    -0.189 OA 
HETATM   17  O   UNL     1      -9.136  11.402  67.249  1.00  0.00    -0.158 OA 
HETATM   18  H   UNL     1     -11.502  10.505  67.281  1.00  0.00     0.000 HD 
ENDBRANCH  10  13
ENDBRANCH   7  10
ENDBRANCH   4   7
ENDBRANCH   2   4
TORSDOF 4
ENDMDL
MODEL       62
REMARK 921   NORMALIZED FREE ENERGY PREDICTED BY IDOCK:   -3.97 KCAL/MOL
REMARK 922        TOTAL FREE ENERGY PREDICTED BY IDOCK:   -5.36 KCAL/MOL
REMARK 923 INTER-LIGAND FREE ENERGY PREDICTED BY IDOCK:   -5.02 KCAL/MOL
REMARK 924 INTRA-LIGAND FREE ENERGY PREDICTED BY IDOCK:   -0.35 KCAL/MOL
REMARK 927      BINDING AFFINITY PREDICTED BY RF-SCORE:    0.00 PKD
ROOT
HETATM    1  O   UNL     1     -10.858  18.685  66.606  1.00  0.00    -0.312 OA 
HETATM    2  C   UNL     1      -9.509  18.281  66.860  1.00  0.00    -0.290 C  
HETATM    3  H   UNL     1     -10.993  19.534  67.009  1.00  0.00     0.000 HD 
ENDROOT
BRANCH   2   4
HETATM    4  C   UNL     1      -9.292  16.911  66.210  1.00  0.00    -0.262 C  
HETATM    5  H   UNL     1      -7.751  15.899  65.570  1.00  0.00     0.000 HD 
HETATM    6  O   UNL     1      -7.886  16.748  65.973  1.00  0.00    -0.330 OA 
BRANCH   4   7
HETATM    7  C   UNL     1      -9.813  15.754  67.081  1.00  0.00    -0.226 C  
HETATM    8  H   UNL     1     -10.196  15.436  68.989  1.00  0.00     0.000 HD 
HETATM    9  O   UNL     1      -9.874  16.150  68.451  1.00  0.00    -0.215 OA 
BRANCH   7  10
HETATM   10  C   UNL     1     -11.211  15.278  66.612  1.00  0.00    -0.232 C  
HETATM   11  H   UNL     1     -12.781  14.298  67.376  1.00  0.00     0.000 HD 
HETATM   12  O   UNL     1     -11.923  14.590  67.663  1.00  0.00    -0.374 OA 
BRANCH  10  13
HETATM   13  C   UNL     1     -11.158  14.358  65.386  1.00  0.00    -0.331 C  
HETATM   14  C   UNL     1     -12.037  14.814  64.208  1.00  0.00    -0.394 C  
HETATM   15  O   UNL     1     -11.424  13.012  65.787  1.00  0.00    -0.310 OA 
HETATM   16  O   UNL     1     -12.026  16.143  63.955  1.00  0.00    -0.897 OA 
HETATM   17  O   UNL     1     -12.659  14.020  63.507  1.00  0.00    -0.842 OA 
HETATM   18  H   UNL     1     -11.391  12.442  65.028  1.00  0.00     0.000 HD 
ENDBRANCH  10  13
ENDBRANCH   7  10
ENDBRANCH   4   7
ENDBRANCH   2   4
TORSDOF 4
ENDMDL
MODEL       63
REMARK 921   NORMALIZED FREE ENERGY PREDICTED BY IDOCK:   -3.96 KCAL/MOL
REMARK 922        TOTAL FREE ENERGY PREDICTED BY IDOCK:   -5.35 KCAL/MOL
REMARK 923 INTER-LIGAND FREE ENERGY PREDICTED BY IDOCK:   -4.51 KCAL/MOL
REMARK 924 INTRA-LIGAND FREE ENERGY PREDICTED BY IDOCK:   -0.84 KCAL/MOL
REMARK 927      BINDING AFFINITY PREDICTED BY RF-SCORE:    0.00 PKD
ROOT
HETATM    1  O   UNL     1      -9.534  15.838  67.594  1.00  0.00    -0.216 OA 
HETATM    2  C   UNL     1     -10.132  14.941  66.654  1.00  0.00    -0.258 C  
HETATM    3  H   UNL     1      -8.631  15.978  67.336  1.00  0.00     0.000 HD 
ENDROOT
BRANCH   2   4
HETATM    4  C   UNL     1     -11.590  14.716  67.071  1.00  0.00    -0.371 C  
HETATM    5  H   UNL     1     -13.192  14.007  66.213  1.00  0.00     0.000 HD 
HETATM    6  O   UNL     1     -12.289  14.146  65.955  1.00  0.00    -0.444 OA 
BRANCH   4   7
HETATM    7  C   UNL     1     -11.718  13.794  68.296  1.00  0.00    -0.359 C  
HETATM    8  H   UNL     1     -10.563  12.553  69.303  1.00  0.00     0.000 HD 
HETATM    9  O   UNL     1     -10.484  13.122  68.547  1.00  0.00    -0.249 OA 
BRANCH   7  10
HETATM   10  C   UNL     1     -12.147  14.585  69.558  1.00  0.00    -0.306 C  
HETATM   11  H   UNL     1     -11.278  15.651  71.012  1.00  0.00     0.000 HD 
HETATM   12  O   UNL     1     -11.015  15.166  70.238  1.00  0.00    -0.261 OA 
BRANCH  10  13
HETATM   13  C   UNL     1     -12.930  13.736  70.567  1.00  0.00    -0.055 C  
HETATM   14  C   UNL     1     -13.587  14.541  71.703  1.00  0.00    -0.391 C  
HETATM   15  O   UNL     1     -12.098  12.678  71.047  1.00  0.00    -0.413 OA 
HETATM   16  O   UNL     1     -14.165  15.705  71.331  1.00  0.00    -0.535 OA 
HETATM   17  O   UNL     1     -13.636  14.125  72.857  1.00  0.00    -0.651 OA 
HETATM   18  H   UNL     1     -12.583  12.152  71.672  1.00  0.00     0.000 HD 
ENDBRANCH  10  13
ENDBRANCH   7  10
ENDBRANCH   4   7
ENDBRANCH   2   4
TORSDOF 4
ENDMDL
MODEL       64
REMARK 921   NORMALIZED FREE ENERGY PREDICTED BY IDOCK:   -3.94 KCAL/MOL
REMARK 922        TOTAL FREE ENERGY PREDICTED BY IDOCK:   -5.33 KCAL/MOL
REMARK 923 INTER-LIGAND FREE ENERGY PREDICTED BY IDOCK:   -4.46 KCAL/MOL
REMARK 924 INTRA-LIGAND FREE ENERGY PREDICTED BY IDOCK:   -0.86 KCAL/MOL
REMARK 927      BINDING AFFINITY PREDICTED BY RF-SCORE:    0.00 PKD
ROOT
HETATM    1  O   UNL     1      -8.879  14.456  68.998  1.00  0.00    -0.339 OA 
HETATM    2  C   UNL     1      -9.133  15.864  68.981  1.00  0.00    -0.240 C  
HETATM    3  H   UNL     1      -8.171  14.292  69.610  1.00  0.00     0.000 HD 
ENDROOT
BRANCH   2   4
HETATM    4  C   UNL     1     -10.275  16.130  67.994  1.00  0.00    -0.252 C  
HETATM    5  H   UNL     1     -11.489  17.613  67.631  1.00  0.00     0.000 HD 
HETATM    6  O   UNL     1     -10.781  17.449  68.242  1.00  0.00    -0.371 OA 
BRANCH   4   7
HETATM    7  C   UNL     1      -9.828  16.009  66.527  1.00  0.00    -0.267 C  
HETATM    8  H   UNL     1      -8.164  15.606  65.547  1.00  0.00     0.000 HD 
HETATM    9  O   UNL     1      -8.440  15.681  66.453  1.00  0.00    -0.284 OA 
BRANCH   7  10
HETATM   10  C   UNL     1     -10.656  14.942  65.767  1.00  0.00    -0.331 C  
HETATM   11  H   UNL     1     -11.882  14.858  64.187  1.00  0.00     0.000 HD 
HETATM   12  O   UNL     1     -11.373  15.512  64.652  1.00  0.00    -0.424 OA 
BRANCH  10  13
HETATM   13  C   UNL     1     -11.664  14.208  66.662  1.00  0.00    -0.403 C  
HETATM   14  C   UNL     1     -11.277  12.757  67.001  1.00  0.00    -0.292 C  
HETATM   15  O   UNL     1     -12.971  14.315  66.095  1.00  0.00    -0.454 OA 
HETATM   16  O   UNL     1      -9.971  12.555  67.287  1.00  0.00    -0.208 OA 
HETATM   17  O   UNL     1     -12.108  11.856  67.066  1.00  0.00    -0.600 OA 
HETATM   18  H   UNL     1     -13.595  13.861  66.650  1.00  0.00     0.000 HD 
ENDBRANCH  10  13
ENDBRANCH   7  10
ENDBRANCH   4   7
ENDBRANCH   2   4
TORSDOF 4
ENDMDL
MODEL       65
REMARK 921   NORMALIZED FREE ENERGY PREDICTED BY IDOCK:   -3.92 KCAL/MOL
REMARK 922        TOTAL FREE ENERGY PREDICTED BY IDOCK:   -5.30 KCAL/MOL
REMARK 923 INTER-LIGAND FREE ENERGY PREDICTED BY IDOCK:   -4.63 KCAL/MOL
REMARK 924 INTRA-LIGAND FREE ENERGY PREDICTED BY IDOCK:   -0.67 KCAL/MOL
REMARK 927      BINDING AFFINITY PREDICTED BY RF-SCORE:    0.00 PKD
ROOT
HETATM    1  O   UNL     1      -9.640  13.006  65.266  1.00  0.00    -0.488 OA 
HETATM    2  C   UNL     1     -11.026  12.890  64.931  1.00  0.00    -0.301 C  
HETATM    3  H   UNL     1      -9.140  12.511  64.628  1.00  0.00     0.000 HD 
ENDROOT
BRANCH   2   4
HETATM    4  C   UNL     1     -11.834  13.688  65.960  1.00  0.00    -0.385 C  
HETATM    5  H   UNL     1     -13.555  14.607  65.976  1.00  0.00     0.000 HD 
HETATM    6  O   UNL     1     -13.055  14.112  65.338  1.00  0.00    -0.743 OA 
BRANCH   4   7
HETATM    7  C   UNL     1     -12.148  12.872  67.226  1.00  0.00    -0.212 C  
HETATM    8  H   UNL     1     -11.735  11.077  67.933  1.00  0.00     0.000 HD 
HETATM    9  O   UNL     1     -11.542  11.582  67.151  1.00  0.00    -0.516 OA 
BRANCH   7  10
HETATM   10  C   UNL     1     -11.664  13.601  68.505  1.00  0.00    -0.357 C  
HETATM   11  H   UNL     1     -12.318  13.926  70.370  1.00  0.00     0.000 HD 
HETATM   12  O   UNL     1     -12.614  13.479  69.585  1.00  0.00    -0.146 OA 
BRANCH  10  13
HETATM   13  C   UNL     1     -11.381  15.092  68.282  1.00  0.00    -0.327 C  
HETATM   14  C   UNL     1      -9.914  15.503  68.506  1.00  0.00    -0.208 C  
HETATM   15  O   UNL     1     -12.298  15.873  69.051  1.00  0.00    -0.529 OA 
HETATM   16  O   UNL     1      -8.989  14.643  68.022  1.00  0.00    -0.164 OA 
HETATM   17  O   UNL     1      -9.605  16.567  69.034  1.00  0.00    -0.252 OA 
HETATM   18  H   UNL     1     -12.122  16.796  68.912  1.00  0.00     0.000 HD 
ENDBRANCH  10  13
ENDBRANCH   7  10
ENDBRANCH   4   7
ENDBRANCH   2   4
TORSDOF 4
ENDMDL
MODEL       66
REMARK 921   NORMALIZED FREE ENERGY PREDICTED BY IDOCK:   -3.89 KCAL/MOL
REMARK 922        TOTAL FREE ENERGY PREDICTED BY IDOCK:   -5.27 KCAL/MOL
REMARK 923 INTER-LIGAND FREE ENERGY PREDICTED BY IDOCK:   -4.85 KCAL/MOL
REMARK 924 INTRA-LIGAND FREE ENERGY PREDICTED BY IDOCK:   -0.42 KCAL/MOL
REMARK 927      BINDING AFFINITY PREDICTED BY RF-SCORE:    0.00 PKD
ROOT
HETATM    1  O   UNL     1     -12.406  14.133  63.001  1.00  0.00    -1.070 OA 
HETATM    2  C   UNL     1     -12.099  14.583  64.324  1.00  0.00    -0.425 C  
HETATM    3  H   UNL     1     -12.443  14.892  62.432  1.00  0.00     0.000 HD 
ENDROOT
BRANCH   2   4
HETATM    4  C   UNL     1     -12.038  13.358  65.242  1.00  0.00    -0.413 C  
HETATM    5  H   UNL     1     -13.021  11.679  65.396  1.00  0.00     0.000 HD 
HETATM    6  O   UNL     1     -13.059  12.438  64.827  1.00  0.00    -0.806 OA 
BRANCH   4   7
HETATM    7  C   UNL     1     -10.665  12.664  65.211  1.00  0.00    -0.289 C  
HETATM    8  H   UNL     1      -9.093  12.614  64.022  1.00  0.00     0.000 HD 
HETATM    9  O   UNL     1      -9.941  13.043  64.041  1.00  0.00    -0.308 OA 
BRANCH   7  10
HETATM   10  C   UNL     1      -9.831  13.002  66.473  1.00  0.00    -0.263 C  
HETATM   11  H   UNL     1      -8.525  14.400  67.062  1.00  0.00     0.000 HD 
HETATM   12  O   UNL     1      -9.037  14.193  66.288  1.00  0.00    -0.177 OA 
BRANCH  10  13
HETATM   13  C   UNL     1      -8.897  11.864  66.904  1.00  0.00    -0.197 C  
HETATM   14  C   UNL     1      -9.127  11.360  68.341  1.00  0.00    -0.179 C  
HETATM   15  O   UNL     1      -7.541  12.241  66.660  1.00  0.00    -0.375 OA 
HETATM   16  O   UNL     1     -10.421  11.241  68.714  1.00  0.00    -0.195 OA 
HETATM   17  O   UNL     1      -8.201  11.031  69.076  1.00  0.00    -0.150 OA 
HETATM   18  H   UNL     1      -6.962  11.536  66.927  1.00  0.00     0.000 HD 
ENDBRANCH  10  13
ENDBRANCH   7  10
ENDBRANCH   4   7
ENDBRANCH   2   4
TORSDOF 4
ENDMDL
MODEL       67
REMARK 921   NORMALIZED FREE ENERGY PREDICTED BY IDOCK:   -3.89 KCAL/MOL
REMARK 922        TOTAL FREE ENERGY PREDICTED BY IDOCK:   -5.26 KCAL/MOL
REMARK 923 INTER-LIGAND FREE ENERGY PREDICTED BY IDOCK:   -4.77 KCAL/MOL
REMARK 924 INTRA-LIGAND FREE ENERGY PREDICTED BY IDOCK:   -0.49 KCAL/MOL
REMARK 927      BINDING AFFINITY PREDICTED BY RF-SCORE:    0.00 PKD
ROOT
HETATM    1  O   UNL     1     -12.000   4.920  73.146  1.00  0.00    -0.426 OA 
HETATM    2  C   UNL     1     -11.095   6.027  73.191  1.00  0.00    -0.203 C  
HETATM    3  H   UNL     1     -12.226   4.686  74.038  1.00  0.00     0.000 HD 
ENDROOT
BRANCH   2   4
HETATM    4  C   UNL     1     -10.731   6.405  71.751  1.00  0.00    -0.233 C  
HETATM    5  H   UNL     1     -10.202   5.433  70.145  1.00  0.00     0.000 HD 
HETATM    6  O   UNL     1     -10.427   5.198  71.037  1.00  0.00    -0.221 OA 
BRANCH   4   7
HETATM    7  C   UNL     1     -11.862   7.165  71.037  1.00  0.00    -0.333 C  
HETATM    8  H   UNL     1     -13.830   7.261  71.133  1.00  0.00     0.000 HD 
HETATM    9  O   UNL     1     -13.131   6.792  71.574  1.00  0.00    -0.310 OA 
BRANCH   7  10
HETATM   10  C   UNL     1     -11.677   8.699  71.155  1.00  0.00    -0.288 C  
HETATM   11  H   UNL     1     -10.471   9.983  72.107  1.00  0.00     0.000 HD 
HETATM   12  O   UNL     1     -10.585   9.042  72.034  1.00  0.00    -0.345 OA 
BRANCH  10  13
HETATM   13  C   UNL     1     -12.936   9.425  71.646  1.00  0.00    -0.391 C  
HETATM   14  C   UNL     1     -12.910  10.951  71.446  1.00  0.00    -0.449 C  
HETATM   15  O   UNL     1     -13.207   9.048  72.997  1.00  0.00    -0.802 OA 
HETATM   16  O   UNL     1     -12.402  11.374  70.267  1.00  0.00    -0.314 OA 
HETATM   17  O   UNL     1     -13.375  11.728  72.275  1.00  0.00    -0.455 OA 
HETATM   18  H   UNL     1     -13.987   9.497  73.301  1.00  0.00     0.000 HD 
ENDBRANCH  10  13
ENDBRANCH   7  10
ENDBRANCH   4   7
ENDBRANCH   2   4
TORSDOF 4
ENDMDL
MODEL       68
REMARK 921   NORMALIZED FREE ENERGY PREDICTED BY IDOCK:   -3.87 KCAL/MOL
REMARK 922        TOTAL FREE ENERGY PREDICTED BY IDOCK:   -5.25 KCAL/MOL
REMARK 923 INTER-LIGAND FREE ENERGY PREDICTED BY IDOCK:   -4.75 KCAL/MOL
REMARK 924 INTRA-LIGAND FREE ENERGY PREDICTED BY IDOCK:   -0.50 KCAL/MOL
REMARK 927      BINDING AFFINITY PREDICTED BY RF-SCORE:    0.00 PKD
ROOT
HETATM    1  O   UNL     1      -9.213  10.944  67.454  1.00  0.00    -0.147 OA 
HETATM    2  C   UNL     1      -9.798  10.870  66.151  1.00  0.00    -0.222 C  
HETATM    3  H   UNL     1      -8.845  10.093  67.662  1.00  0.00     0.000 HD 
ENDROOT
BRANCH   2   4
HETATM    4  C   UNL     1     -10.392  12.242  65.816  1.00  0.00    -0.258 C  
HETATM    5  H   UNL     1     -10.647  13.294  64.193  1.00  0.00     0.000 HD 
HETATM    6  O   UNL     1     -10.279  12.444  64.400  1.00  0.00    -0.315 OA 
BRANCH   4   7
HETATM    7  C   UNL     1     -11.863  12.369  66.247  1.00  0.00    -0.364 C  
HETATM    8  H   UNL     1     -13.001  11.730  67.727  1.00  0.00     0.000 HD 
HETATM    9  O   UNL     1     -12.092  11.651  67.460  1.00  0.00    -0.611 OA 
BRANCH   7  10
HETATM   10  C   UNL     1     -12.273  13.852  66.434  1.00  0.00    -0.449 C  
HETATM   11  H   UNL     1     -13.294  15.251  65.429  1.00  0.00     0.000 HD 
HETATM   12  O   UNL     1     -13.043  14.341  65.315  1.00  0.00    -0.707 OA 
BRANCH  10  13
HETATM   13  C   UNL     1     -11.077  14.789  66.640  1.00  0.00    -0.333 C  
HETATM   14  C   UNL     1     -11.181  15.692  67.884  1.00  0.00    -0.328 C  
HETATM   15  O   UNL     1     -10.835  15.526  65.440  1.00  0.00    -0.353 OA 
HETATM   16  O   UNL     1     -11.668  15.095  68.995  1.00  0.00    -0.308 OA 
HETATM   17  O   UNL     1     -10.792  16.857  67.882  1.00  0.00    -0.354 OA 
HETATM   18  H   UNL     1     -10.094  16.107  65.568  1.00  0.00     0.000 HD 
ENDBRANCH  10  13
ENDBRANCH   7  10
ENDBRANCH   4   7
ENDBRANCH   2   4
TORSDOF 4
ENDMDL
MODEL       69
REMARK 921   NORMALIZED FREE ENERGY PREDICTED BY IDOCK:   -3.87 KCAL/MOL
REMARK 922        TOTAL FREE ENERGY PREDICTED BY IDOCK:   -5.24 KCAL/MOL
REMARK 923 INTER-LIGAND FREE ENERGY PREDICTED BY IDOCK:   -5.86 KCAL/MOL
REMARK 924 INTRA-LIGAND FREE ENERGY PREDICTED BY IDOCK:    0.62 KCAL/MOL
REMARK 927      BINDING AFFINITY PREDICTED BY RF-SCORE:    0.00 PKD
ROOT
HETATM    1  O   UNL     1     -12.993  14.506  69.935  1.00  0.00    -0.533 OA 
HETATM    2  C   UNL     1     -11.991  13.781  69.216  1.00  0.00    -0.352 C  
HETATM    3  H   UNL     1     -13.054  14.139  70.809  1.00  0.00     0.000 HD 
ENDROOT
BRANCH   2   4
HETATM    4  C   UNL     1     -11.891  14.375  67.807  1.00  0.00    -0.368 C  
HETATM    5  H   UNL     1     -10.827  15.769  66.953  1.00  0.00     0.000 HD 
HETATM    6  O   UNL     1     -10.889  15.401  67.826  1.00  0.00    -0.285 OA 
BRANCH   4   7
HETATM    7  C   UNL     1     -11.540  13.319  66.745  1.00  0.00    -0.365 C  
HETATM    8  H   UNL     1     -11.817  11.385  66.476  1.00  0.00     0.000 HD 
HETATM    9  O   UNL     1     -12.034  12.037  67.133  1.00  0.00    -0.601 OA 
BRANCH   7  10
HETATM   10  C   UNL     1     -12.112  13.700  65.356  1.00  0.00    -0.403 C  
HETATM   11  H   UNL     1     -13.599  13.118  64.149  1.00  0.00     0.000 HD 
HETATM   12  O   UNL     1     -13.248  12.885  65.001  1.00  0.00    -0.765 OA 
BRANCH  10  13
HETATM   13  C   UNL     1     -11.078  13.600  64.227  1.00  0.00    -0.315 C  
HETATM   14  C   UNL     1     -10.991  12.213  63.563  1.00  0.00    -0.453 C  
HETATM   15  O   UNL     1      -9.812  14.069  64.697  1.00  0.00    -0.565 OA 
HETATM   16  O   UNL     1     -12.176  11.601  63.340  1.00  0.00    -0.448 OA 
HETATM   17  O   UNL     1      -9.923  11.724  63.206  1.00  0.00    -0.403 OA 
HETATM   18  H   UNL     1      -9.172  14.007  63.997  1.00  0.00     0.000 HD 
ENDBRANCH  10  13
ENDBRANCH   7  10
ENDBRANCH   4   7
ENDBRANCH   2   4
TORSDOF 4
ENDMDL
MODEL       70
REMARK 921   NORMALIZED FREE ENERGY PREDICTED BY IDOCK:   -3.86 KCAL/MOL
REMARK 922        TOTAL FREE ENERGY PREDICTED BY IDOCK:   -5.23 KCAL/MOL
REMARK 923 INTER-LIGAND FREE ENERGY PREDICTED BY IDOCK:   -5.06 KCAL/MOL
REMARK 924 INTRA-LIGAND FREE ENERGY PREDICTED BY IDOCK:   -0.17 KCAL/MOL
REMARK 927      BINDING AFFINITY PREDICTED BY RF-SCORE:    0.00 PKD
ROOT
HETATM    1  O   UNL     1     -11.235  14.698  71.069  1.00  0.00    -0.519 OA 
HETATM    2  C   UNL     1     -12.144  14.817  69.971  1.00  0.00    -0.329 C  
HETATM    3  H   UNL     1     -11.706  14.905  71.867  1.00  0.00     0.000 HD 
ENDROOT
BRANCH   2   4
HETATM    4  C   UNL     1     -11.383  14.482  68.683  1.00  0.00    -0.276 C  
HETATM    5  H   UNL     1     -11.648  13.263  67.183  1.00  0.00     0.000 HD 
HETATM    6  O   UNL     1     -12.119  13.471  67.981  1.00  0.00    -0.347 OA 
BRANCH   4   7
HETATM    7  C   UNL     1     -11.187  15.710  67.778  1.00  0.00    -0.297 C  
HETATM    8  H   UNL     1     -10.882  17.646  68.006  1.00  0.00     0.000 HD 
HETATM    9  O   UNL     1     -11.003  16.887  68.565  1.00  0.00    -0.350 OA 
BRANCH   7  10
HETATM   10  C   UNL     1      -9.977  15.525  66.826  1.00  0.00    -0.249 C  
HETATM   11  H   UNL     1      -8.360  16.560  66.258  1.00  0.00     0.000 HD 
HETATM   12  O   UNL     1      -9.102  16.673  66.842  1.00  0.00    -0.211 OA 
BRANCH  10  13
HETATM   13  C   UNL     1     -10.386  15.252  65.374  1.00  0.00    -0.393 C  
HETATM   14  C   UNL     1     -11.325  16.311  64.766  1.00  0.00    -0.210 C  
HETATM   15  O   UNL     1     -10.905  13.925  65.265  1.00  0.00    -0.304 OA 
HETATM   16  O   UNL     1     -11.026  17.594  65.068  1.00  0.00    -0.780 OA 
HETATM   17  O   UNL     1     -12.245  16.013  64.009  1.00  0.00    -0.792 OA 
HETATM   18  H   UNL     1     -11.158  13.756  64.365  1.00  0.00     0.000 HD 
ENDBRANCH  10  13
ENDBRANCH   7  10
ENDBRANCH   4   7
ENDBRANCH   2   4
TORSDOF 4
ENDMDL
MODEL       71
REMARK 921   NORMALIZED FREE ENERGY PREDICTED BY IDOCK:   -3.85 KCAL/MOL
REMARK 922        TOTAL FREE ENERGY PREDICTED BY IDOCK:   -5.22 KCAL/MOL
REMARK 923 INTER-LIGAND FREE ENERGY PREDICTED BY IDOCK:   -4.64 KCAL/MOL
REMARK 924 INTRA-LIGAND FREE ENERGY PREDICTED BY IDOCK:   -0.58 KCAL/MOL
REMARK 927      BINDING AFFINITY PREDICTED BY RF-SCORE:    0.00 PKD
ROOT
HETATM    1  O   UNL     1      -8.726  16.369  68.902  1.00  0.00    -0.238 OA 
HETATM    2  C   UNL     1      -9.892  15.819  69.522  1.00  0.00    -0.283 C  
HETATM    3  H   UNL     1      -8.487  17.160  69.370  1.00  0.00     0.000 HD 
ENDROOT
BRANCH   2   4
HETATM    4  C   UNL     1     -10.276  14.542  68.767  1.00  0.00    -0.244 C  
HETATM    5  H   UNL     1     -11.898  13.476  68.564  1.00  0.00     0.000 HD 
HETATM    6  O   UNL     1     -11.660  14.268  69.032  1.00  0.00    -0.266 OA 
BRANCH   4   7
HETATM    7  C   UNL     1     -10.048  14.662  67.251  1.00  0.00    -0.236 C  
HETATM    8  H   UNL     1      -8.538  14.487  65.994  1.00  0.00     0.000 HD 
HETATM    9  O   UNL     1      -8.679  14.414  66.931  1.00  0.00    -0.221 OA 
BRANCH   7  10
HETATM   10  C   UNL     1     -10.954  13.682  66.462  1.00  0.00    -0.295 C  
HETATM   11  H   UNL     1     -10.957  11.747  65.947  1.00  0.00     0.000 HD 
HETATM   12  O   UNL     1     -10.402  12.348  66.431  1.00  0.00    -0.229 OA 
BRANCH  10  13
HETATM   13  C   UNL     1     -11.215  14.128  65.018  1.00  0.00    -0.356 C  
HETATM   14  C   UNL     1     -12.072  13.149  64.194  1.00  0.00    -0.430 C  
HETATM   15  O   UNL     1      -9.974  14.445  64.385  1.00  0.00    -0.588 OA 
HETATM   16  O   UNL     1     -13.123  12.605  64.847  1.00  0.00    -0.850 OA 
HETATM   17  O   UNL     1     -11.851  12.925  63.007  1.00  0.00    -0.403 OA 
HETATM   18  H   UNL     1     -10.135  14.721  63.490  1.00  0.00     0.000 HD 
ENDBRANCH  10  13
ENDBRANCH   7  10
ENDBRANCH   4   7
ENDBRANCH   2   4
TORSDOF 4
ENDMDL
MODEL       72
REMARK 921   NORMALIZED FREE ENERGY PREDICTED BY IDOCK:   -3.84 KCAL/MOL
REMARK 922        TOTAL FREE ENERGY PREDICTED BY IDOCK:   -5.21 KCAL/MOL
REMARK 923 INTER-LIGAND FREE ENERGY PREDICTED BY IDOCK:   -4.60 KCAL/MOL
REMARK 924 INTRA-LIGAND FREE ENERGY PREDICTED BY IDOCK:   -0.61 KCAL/MOL
REMARK 927      BINDING AFFINITY PREDICTED BY RF-SCORE:    0.00 PKD
ROOT
HETATM    1  O   UNL     1      -8.562  15.463  66.148  1.00  0.00    -0.418 OA 
HETATM    2  C   UNL     1      -8.359  15.376  67.561  1.00  0.00    -0.174 C  
HETATM    3  H   UNL     1      -7.835  15.946  65.774  1.00  0.00     0.000 HD 
ENDROOT
BRANCH   2   4
HETATM    4  C   UNL     1      -9.533  14.597  68.164  1.00  0.00    -0.212 C  
HETATM    5  H   UNL     1     -11.395  14.990  68.593  1.00  0.00     0.000 HD 
HETATM    6  O   UNL     1     -10.668  15.473  68.219  1.00  0.00    -0.254 OA 
BRANCH   4   7
HETATM    7  C   UNL     1      -9.883  13.337  67.355  1.00  0.00    -0.227 C  
HETATM    8  H   UNL     1      -9.954  11.389  67.662  1.00  0.00     0.000 HD 
HETATM    9  O   UNL     1      -9.737  12.168  68.162  1.00  0.00    -0.197 OA 
BRANCH   7  10
HETATM   10  C   UNL     1     -11.327  13.406  66.795  1.00  0.00    -0.325 C  
HETATM   11  H   UNL     1     -13.083  12.492  67.093  1.00  0.00     0.000 HD 
HETATM   12  O   UNL     1     -12.198  12.450  67.436  1.00  0.00    -0.459 OA 
BRANCH  10  13
HETATM   13  C   UNL     1     -11.400  13.181  65.279  1.00  0.00    -0.296 C  
HETATM   14  C   UNL     1     -11.828  14.419  64.471  1.00  0.00    -0.449 C  
HETATM   15  O   UNL     1     -12.209  12.035  65.005  1.00  0.00    -0.366 OA 
HETATM   16  O   UNL     1     -11.285  15.591  64.873  1.00  0.00    -0.405 OA 
HETATM   17  O   UNL     1     -12.564  14.341  63.491  1.00  0.00    -0.814 OA 
HETATM   18  H   UNL     1     -12.254  11.895  64.066  1.00  0.00     0.000 HD 
ENDBRANCH  10  13
ENDBRANCH   7  10
ENDBRANCH   4   7
ENDBRANCH   2   4
TORSDOF 4
ENDMDL
MODEL       73
REMARK 921   NORMALIZED FREE ENERGY PREDICTED BY IDOCK:   -3.84 KCAL/MOL
REMARK 922        TOTAL FREE ENERGY PREDICTED BY IDOCK:   -5.20 KCAL/MOL
REMARK 923 INTER-LIGAND FREE ENERGY PREDICTED BY IDOCK:   -4.77 KCAL/MOL
REMARK 924 INTRA-LIGAND FREE ENERGY PREDICTED BY IDOCK:   -0.43 KCAL/MOL
REMARK 927      BINDING AFFINITY PREDICTED BY RF-SCORE:    0.00 PKD
ROOT
HETATM    1  O   UNL     1     -10.761  18.841  67.200  1.00  0.00    -0.429 OA 
HETATM    2  C   UNL     1      -9.905  18.004  67.982  1.00  0.00    -0.323 C  
HETATM    3  H   UNL     1     -10.434  19.731  67.255  1.00  0.00     0.000 HD 
ENDROOT
BRANCH   2   4
HETATM    4  C   UNL     1     -10.432  16.567  67.893  1.00  0.00    -0.313 C  
HETATM    5  H   UNL     1     -12.014  15.620  68.529  1.00  0.00     0.000 HD 
HETATM    6  O   UNL     1     -11.688  16.510  68.584  1.00  0.00    -0.180 OA 
BRANCH   4   7
HETATM    7  C   UNL     1     -10.612  16.093  66.441  1.00  0.00    -0.269 C  
HETATM    8  H   UNL     1      -9.782  16.448  64.687  1.00  0.00     0.000 HD 
HETATM    9  O   UNL     1      -9.671  16.741  65.584  1.00  0.00    -0.539 OA 
BRANCH   7  10
HETATM   10  C   UNL     1     -10.453  14.556  66.322  1.00  0.00    -0.301 C  
HETATM   11  H   UNL     1      -9.945  13.217  64.924  1.00  0.00     0.000 HD 
HETATM   12  O   UNL     1     -10.043  14.159  64.997  1.00  0.00    -0.383 OA 
BRANCH  10  13
HETATM   13  C   UNL     1     -11.730  13.786  66.681  1.00  0.00    -0.394 C  
HETATM   14  C   UNL     1     -11.543  12.710  67.766  1.00  0.00    -0.348 C  
HETATM   15  O   UNL     1     -12.327  13.271  65.489  1.00  0.00    -0.435 OA 
HETATM   16  O   UNL     1     -10.751  13.064  68.804  1.00  0.00    -0.248 OA 
HETATM   17  O   UNL     1     -12.121  11.628  67.723  1.00  0.00    -0.613 OA 
HETATM   18  H   UNL     1     -13.119  12.794  65.711  1.00  0.00     0.000 HD 
ENDBRANCH  10  13
ENDBRANCH   7  10
ENDBRANCH   4   7
ENDBRANCH   2   4
TORSDOF 4
ENDMDL
MODEL       74
REMARK 921   NORMALIZED FREE ENERGY PREDICTED BY IDOCK:   -3.83 KCAL/MOL
REMARK 922        TOTAL FREE ENERGY PREDICTED BY IDOCK:   -5.20 KCAL/MOL
REMARK 923 INTER-LIGAND FREE ENERGY PREDICTED BY IDOCK:   -5.53 KCAL/MOL
REMARK 924 INTRA-LIGAND FREE ENERGY PREDICTED BY IDOCK:    0.33 KCAL/MOL
REMARK 927      BINDING AFFINITY PREDICTED BY RF-SCORE:    0.00 PKD
ROOT
HETATM    1  O   UNL     1      -9.336  16.726  67.371  1.00  0.00    -0.230 OA 
HETATM    2  C   UNL     1      -9.476  16.948  65.965  1.00  0.00    -0.195 C  
HETATM    3  H   UNL     1      -8.526  17.133  67.655  1.00  0.00     0.000 HD 
ENDROOT
BRANCH   2   4
HETATM    4  C   UNL     1     -10.783  16.292  65.507  1.00  0.00    -0.313 C  
HETATM    5  H   UNL     1     -12.022  16.539  64.020  1.00  0.00     0.000 HD 
HETATM    6  O   UNL     1     -11.212  16.945  64.303  1.00  0.00    -1.204 OA 
BRANCH   4   7
HETATM    7  C   UNL     1     -10.630  14.782  65.257  1.00  0.00    -0.395 C  
HETATM    8  H   UNL     1      -9.630  13.276  66.046  1.00  0.00     0.000 HD 
HETATM    9  O   UNL     1      -9.725  14.209  66.200  1.00  0.00    -0.294 OA 
BRANCH   7  10
HETATM   10  C   UNL     1     -11.995  14.053  65.335  1.00  0.00    -0.380 C  
HETATM   11  H   UNL     1     -13.165  13.233  66.737  1.00  0.00     0.000 HD 
HETATM   12  O   UNL     1     -12.328  13.680  66.689  1.00  0.00    -0.397 OA 
BRANCH  10  13
HETATM   13  C   UNL     1     -12.061  12.795  64.460  1.00  0.00    -0.414 C  
HETATM   14  C   UNL     1     -11.128  11.655  64.911  1.00  0.00    -0.253 C  
HETATM   15  O   UNL     1     -11.871  13.155  63.090  1.00  0.00    -0.800 OA 
HETATM   16  O   UNL     1     -11.067  11.449  66.246  1.00  0.00    -0.289 OA 
HETATM   17  O   UNL     1     -10.528  10.944  64.111  1.00  0.00    -0.364 OA 
HETATM   18  H   UNL     1     -11.912  12.376  62.549  1.00  0.00     0.000 HD 
ENDBRANCH  10  13
ENDBRANCH   7  10
ENDBRANCH   4   7
ENDBRANCH   2   4
TORSDOF 4
ENDMDL
MODEL       75
REMARK 921   NORMALIZED FREE ENERGY PREDICTED BY IDOCK:   -3.83 KCAL/MOL
REMARK 922        TOTAL FREE ENERGY PREDICTED BY IDOCK:   -5.19 KCAL/MOL
REMARK 923 INTER-LIGAND FREE ENERGY PREDICTED BY IDOCK:   -4.59 KCAL/MOL
REMARK 924 INTRA-LIGAND FREE ENERGY PREDICTED BY IDOCK:   -0.60 KCAL/MOL
REMARK 927      BINDING AFFINITY PREDICTED BY RF-SCORE:    0.00 PKD
ROOT
HETATM    1  O   UNL     1      -9.943  13.612  64.577  1.00  0.00    -0.622 OA 
HETATM    2  C   UNL     1     -10.717  14.665  65.160  1.00  0.00    -0.414 C  
HETATM    3  H   UNL     1      -9.833  13.804  63.653  1.00  0.00     0.000 HD 
ENDROOT
BRANCH   2   4
HETATM    4  C   UNL     1     -10.895  14.356  66.650  1.00  0.00    -0.304 C  
HETATM    5  H   UNL     1     -11.616  15.305  68.195  1.00  0.00     0.000 HD 
HETATM    6  O   UNL     1     -11.506  15.496  67.272  1.00  0.00    -0.246 OA 
BRANCH   4   7
HETATM    7  C   UNL     1     -11.754  13.104  66.895  1.00  0.00    -0.387 C  
HETATM    8  H   UNL     1     -12.899  11.900  65.832  1.00  0.00     0.000 HD 
HETATM    9  O   UNL     1     -12.369  12.674  65.680  1.00  0.00    -0.581 OA 
BRANCH   7  10
HETATM   10  C   UNL     1     -10.912  11.947  67.491  1.00  0.00    -0.247 C  
HETATM   11  H   UNL     1      -9.599  10.579  66.849  1.00  0.00     0.000 HD 
HETATM   12  O   UNL     1     -10.115  11.289  66.484  1.00  0.00    -0.206 OA 
BRANCH  10  13
HETATM   13  C   UNL     1     -11.760  10.885  68.203  1.00  0.00    -0.154 C  
HETATM   14  C   UNL     1     -11.818  11.036  69.734  1.00  0.00    -0.347 C  
HETATM   15  O   UNL     1     -11.339   9.583  67.790  1.00  0.00    -0.467 OA 
HETATM   16  O   UNL     1     -11.948  12.303  70.188  1.00  0.00    -0.334 OA 
HETATM   17  O   UNL     1     -11.808  10.068  70.489  1.00  0.00    -0.280 OA 
HETATM   18  H   UNL     1     -11.865   8.925  68.231  1.00  0.00     0.000 HD 
ENDBRANCH  10  13
ENDBRANCH   7  10
ENDBRANCH   4   7
ENDBRANCH   2   4
TORSDOF 4
ENDMDL
MODEL       76
REMARK 921   NORMALIZED FREE ENERGY PREDICTED BY IDOCK:   -3.80 KCAL/MOL
REMARK 922        TOTAL FREE ENERGY PREDICTED BY IDOCK:   -5.16 KCAL/MOL
REMARK 923 INTER-LIGAND FREE ENERGY PREDICTED BY IDOCK:   -4.61 KCAL/MOL
REMARK 924 INTRA-LIGAND FREE ENERGY PREDICTED BY IDOCK:   -0.55 KCAL/MOL
REMARK 927      BINDING AFFINITY PREDICTED BY RF-SCORE:    0.00 PKD
ROOT
HETATM    1  O   UNL     1      -9.598  10.529  69.530  1.00  0.00    -0.349 OA 
HETATM    2  C   UNL     1      -9.378   9.418  70.403  1.00  0.00    -0.268 C  
HETATM    3  H   UNL     1      -9.130  11.278  69.880  1.00  0.00     0.000 HD 
ENDROOT
BRANCH   2   4
HETATM    4  C   UNL     1     -10.133   8.210  69.837  1.00  0.00    -0.195 C  
HETATM    5  H   UNL     1      -9.844   6.281  69.790  1.00  0.00     0.000 HD 
HETATM    6  O   UNL     1      -9.376   7.029  70.141  1.00  0.00    -0.161 OA 
BRANCH   4   7
HETATM    7  C   UNL     1     -11.555   8.081  70.409  1.00  0.00    -0.068 C  
HETATM    8  H   UNL     1     -12.761   6.630  70.983  1.00  0.00     0.000 HD 
HETATM    9  O   UNL     1     -11.883   6.709  70.629  1.00  0.00    -0.382 OA 
BRANCH   7  10
HETATM   10  C   UNL     1     -11.707   8.872  71.734  1.00  0.00    -0.362 C  
HETATM   11  H   UNL     1     -11.645   8.504  73.701  1.00  0.00     0.000 HD 
HETATM   12  O   UNL     1     -11.552   8.020  72.888  1.00  0.00    -0.397 OA 
BRANCH  10  13
HETATM   13  C   UNL     1     -13.051   9.602  71.852  1.00  0.00    -0.436 C  
HETATM   14  C   UNL     1     -12.963  11.130  71.684  1.00  0.00    -0.443 C  
HETATM   15  O   UNL     1     -13.699   9.215  73.066  1.00  0.00    -0.894 OA 
HETATM   16  O   UNL     1     -12.137  11.560  70.703  1.00  0.00    -0.363 OA 
HETATM   17  O   UNL     1     -13.642  11.903  72.353  1.00  0.00    -0.289 OA 
HETATM   18  H   UNL     1     -14.531   9.667  73.139  1.00  0.00     0.000 HD 
ENDBRANCH  10  13
ENDBRANCH   7  10
ENDBRANCH   4   7
ENDBRANCH   2   4
TORSDOF 4
ENDMDL
MODEL       77
REMARK 921   NORMALIZED FREE ENERGY PREDICTED BY IDOCK:   -3.79 KCAL/MOL
REMARK 922        TOTAL FREE ENERGY PREDICTED BY IDOCK:   -5.15 KCAL/MOL
REMARK 923 INTER-LIGAND FREE ENERGY PREDICTED BY IDOCK:   -4.73 KCAL/MOL
REMARK 924 INTRA-LIGAND FREE ENERGY PREDICTED BY IDOCK:   -0.42 KCAL/MOL
REMARK 927      BINDING AFFINITY PREDICTED BY RF-SCORE:    0.00 PKD
ROOT
HETATM    1  O   UNL     1     -12.516  13.873  63.332  1.00  0.00    -1.068 OA 
HETATM    2  C   UNL     1     -12.139  14.938  64.209  1.00  0.00    -0.353 C  
HETATM    3  H   UNL     1     -12.898  14.255  62.550  1.00  0.00     0.000 HD 
ENDROOT
BRANCH   2   4
HETATM    4  C   UNL     1     -11.523  14.321  65.470  1.00  0.00    -0.329 C  
HETATM    5  H   UNL     1     -12.150  13.910  67.271  1.00  0.00     0.000 HD 
HETATM    6  O   UNL     1     -12.532  14.292  66.490  1.00  0.00    -0.428 OA 
BRANCH   4   7
HETATM    7  C   UNL     1     -10.982  12.902  65.229  1.00  0.00    -0.283 C  
HETATM    8  H   UNL     1      -9.744  12.016  63.974  1.00  0.00     0.000 HD 
HETATM    9  O   UNL     1     -10.079  12.893  64.123  1.00  0.00    -0.350 OA 
BRANCH   7  10
HETATM   10  C   UNL     1     -10.269  12.345  66.488  1.00  0.00    -0.227 C  
HETATM   11  H   UNL     1      -8.425  12.327  67.267  1.00  0.00     0.000 HD 
HETATM   12  O   UNL     1      -8.863  12.668  66.495  1.00  0.00    -0.172 OA 
BRANCH  10  13
HETATM   13  C   UNL     1     -10.414  10.826  66.644  1.00  0.00    -0.246 C  
HETATM   14  C   UNL     1     -11.097  10.382  67.950  1.00  0.00    -0.299 C  
HETATM   15  O   UNL     1      -9.144  10.203  66.443  1.00  0.00    -0.148 OA 
HETATM   16  O   UNL     1     -12.163  11.123  68.329  1.00  0.00    -0.613 OA 
HETATM   17  O   UNL     1     -10.737   9.387  68.572  1.00  0.00    -0.214 OA 
HETATM   18  H   UNL     1      -9.234   9.262  66.539  1.00  0.00     0.000 HD 
ENDBRANCH  10  13
ENDBRANCH   7  10
ENDBRANCH   4   7
ENDBRANCH   2   4
TORSDOF 4
ENDMDL
MODEL       78
REMARK 921   NORMALIZED FREE ENERGY PREDICTED BY IDOCK:   -3.78 KCAL/MOL
REMARK 922        TOTAL FREE ENERGY PREDICTED BY IDOCK:   -5.13 KCAL/MOL
REMARK 923 INTER-LIGAND FREE ENERGY PREDICTED BY IDOCK:   -4.71 KCAL/MOL
REMARK 924 INTRA-LIGAND FREE ENERGY PREDICTED BY IDOCK:   -0.42 KCAL/MOL
REMARK 927      BINDING AFFINITY PREDICTED BY RF-SCORE:    0.00 PKD
ROOT
HETATM    1  O   UNL     1      -6.629  19.477  68.361  1.00  0.00    -0.243 OA 
HETATM    2  C   UNL     1      -6.840  19.087  67.001  1.00  0.00    -0.198 C  
HETATM    3  H   UNL     1      -5.716  19.716  68.462  1.00  0.00     0.000 HD 
ENDROOT
BRANCH   2   4
HETATM    4  C   UNL     1      -8.315  18.703  66.838  1.00  0.00    -0.264 C  
HETATM    5  H   UNL     1      -9.771  19.230  65.652  1.00  0.00     0.000 HD 
HETATM    6  O   UNL     1      -8.857  19.468  65.752  1.00  0.00    -0.388 OA 
BRANCH   4   7
HETATM    7  C   UNL     1      -8.507  17.201  66.568  1.00  0.00    -0.274 C  
HETATM    8  H   UNL     1      -8.207  15.505  67.529  1.00  0.00     0.000 HD 
HETATM    9  O   UNL     1      -8.088  16.433  67.696  1.00  0.00    -0.152 OA 
BRANCH   7  10
HETATM   10  C   UNL     1      -9.984  16.870  66.231  1.00  0.00    -0.309 C  
HETATM   11  H   UNL     1     -11.723  16.676  67.204  1.00  0.00     0.000 HD 
HETATM   12  O   UNL     1     -10.817  16.879  67.409  1.00  0.00    -0.278 OA 
BRANCH  10  13
HETATM   13  C   UNL     1     -10.156  15.517  65.530  1.00  0.00    -0.373 C  
HETATM   14  C   UNL     1     -11.388  15.428  64.611  1.00  0.00    -0.355 C  
HETATM   15  O   UNL     1     -10.112  14.468  66.500  1.00  0.00    -0.259 OA 
HETATM   16  O   UNL     1     -11.631  16.524  63.857  1.00  0.00    -1.175 OA 
HETATM   17  O   UNL     1     -12.069  14.409  64.524  1.00  0.00    -0.445 OA 
HETATM   18  H   UNL     1     -10.219  13.630  66.066  1.00  0.00     0.000 HD 
ENDBRANCH  10  13
ENDBRANCH   7  10
ENDBRANCH   4   7
ENDBRANCH   2   4
TORSDOF 4
ENDMDL
MODEL       79
REMARK 921   NORMALIZED FREE ENERGY PREDICTED BY IDOCK:   -3.76 KCAL/MOL
REMARK 922        TOTAL FREE ENERGY PREDICTED BY IDOCK:   -5.11 KCAL/MOL
REMARK 923 INTER-LIGAND FREE ENERGY PREDICTED BY IDOCK:   -4.09 KCAL/MOL
REMARK 924 INTRA-LIGAND FREE ENERGY PREDICTED BY IDOCK:   -1.02 KCAL/MOL
REMARK 927      BINDING AFFINITY PREDICTED BY RF-SCORE:    0.00 PKD
ROOT
HETATM    1  O   UNL     1      -9.811   6.139  70.504  1.00  0.00    -0.174 OA 
HETATM    2  C   UNL     1      -9.796   5.631  71.841  1.00  0.00    -0.166 C  
HETATM    3  H   UNL     1      -8.989   5.904  70.090  1.00  0.00     0.000 HD 
ENDROOT
BRANCH   2   4
HETATM    4  C   UNL     1     -11.122   6.010  72.510  1.00  0.00    -0.279 C  
HETATM    5  H   UNL     1     -12.097   5.436  74.099  1.00  0.00     0.000 HD 
HETATM    6  O   UNL     1     -11.275   5.201  73.685  1.00  0.00    -0.296 OA 
BRANCH   4   7
HETATM    7  C   UNL     1     -11.187   7.500  72.888  1.00  0.00    -0.346 C  
HETATM    8  H   UNL     1      -9.954   9.038  72.939  1.00  0.00     0.000 HD 
HETATM    9  O   UNL     1      -9.914   8.118  72.705  1.00  0.00    -0.272 OA 
BRANCH   7  10
HETATM   10  C   UNL     1     -12.256   8.250  72.053  1.00  0.00    -0.348 C  
HETATM   11  H   UNL     1     -13.737   7.800  70.783  1.00  0.00     0.000 HD 
HETATM   12  O   UNL     1     -13.081   7.340  71.295  1.00  0.00    -0.369 OA 
BRANCH  10  13
HETATM   13  C   UNL     1     -11.656   9.275  71.083  1.00  0.00    -0.327 C  
HETATM   14  C   UNL     1     -12.573  10.473  70.774  1.00  0.00    -0.382 C  
HETATM   15  O   UNL     1     -11.201   8.608  69.905  1.00  0.00    -0.416 OA 
HETATM   16  O   UNL     1     -13.246  10.978  71.833  1.00  0.00    -0.473 OA 
HETATM   17  O   UNL     1     -12.643  10.973  69.655  1.00  0.00    -0.238 OA 
HETATM   18  H   UNL     1     -10.829   9.244  69.304  1.00  0.00     0.000 HD 
ENDBRANCH  10  13
ENDBRANCH   7  10
ENDBRANCH   4   7
ENDBRANCH   2   4
TORSDOF 4
ENDMDL
MODEL       80
REMARK 921   NORMALIZED FREE ENERGY PREDICTED BY IDOCK:   -3.74 KCAL/MOL
REMARK 922        TOTAL FREE ENERGY PREDICTED BY IDOCK:   -5.09 KCAL/MOL
REMARK 923 INTER-LIGAND FREE ENERGY PREDICTED BY IDOCK:   -4.50 KCAL/MOL
REMARK 924 INTRA-LIGAND FREE ENERGY PREDICTED BY IDOCK:   -0.59 KCAL/MOL
REMARK 927      BINDING AFFINITY PREDICTED BY RF-SCORE:    0.00 PKD
ROOT
HETATM    1  O   UNL     1     -11.894  11.563  66.976  1.00  0.00    -0.568 OA 
HETATM    2  C   UNL     1     -11.877  12.320  68.190  1.00  0.00    -0.311 C  
HETATM    3  H   UNL     1     -12.643  10.981  67.001  1.00  0.00     0.000 HD 
ENDROOT
BRANCH   2   4
HETATM    4  C   UNL     1     -10.668  13.260  68.150  1.00  0.00    -0.249 C  
HETATM    5  H   UNL     1      -8.731  13.040  68.062  1.00  0.00     0.000 HD 
HETATM    6  O   UNL     1      -9.481  12.457  68.086  1.00  0.00    -0.204 OA 
BRANCH   4   7
HETATM    7  C   UNL     1     -10.711  14.226  66.953  1.00  0.00    -0.290 C  
HETATM    8  H   UNL     1     -12.083  15.022  65.781  1.00  0.00     0.000 HD 
HETATM    9  O   UNL     1     -12.057  14.425  66.520  1.00  0.00    -0.418 OA 
BRANCH   7  10
HETATM   10  C   UNL     1     -10.069  15.593  67.305  1.00  0.00    -0.255 C  
HETATM   11  H   UNL     1     -10.618  17.319  68.156  1.00  0.00     0.000 HD 
HETATM   12  O   UNL     1     -11.012  16.481  67.941  1.00  0.00    -0.343 OA 
BRANCH  10  13
HETATM   13  C   UNL     1      -9.476  16.313  66.087  1.00  0.00    -0.339 C  
HETATM   14  C   UNL     1      -8.442  17.402  66.432  1.00  0.00    -0.257 C  
HETATM   15  O   UNL     1     -10.533  16.798  65.257  1.00  0.00    -0.630 OA 
HETATM   16  O   UNL     1      -7.572  17.085  67.418  1.00  0.00    -0.159 OA 
HETATM   17  O   UNL     1      -8.374  18.460  65.813  1.00  0.00    -0.478 OA 
HETATM   18  H   UNL     1     -10.166  17.244  64.503  1.00  0.00     0.000 HD 
ENDBRANCH  10  13
ENDBRANCH   7  10
ENDBRANCH   4   7
ENDBRANCH   2   4
TORSDOF 4
ENDMDL
MODEL       81
REMARK 921   NORMALIZED FREE ENERGY PREDICTED BY IDOCK:   -3.74 KCAL/MOL
REMARK 922        TOTAL FREE ENERGY PREDICTED BY IDOCK:   -5.09 KCAL/MOL
REMARK 923 INTER-LIGAND FREE ENERGY PREDICTED BY IDOCK:   -4.77 KCAL/MOL
REMARK 924 INTRA-LIGAND FREE ENERGY PREDICTED BY IDOCK:   -0.32 KCAL/MOL
REMARK 927      BINDING AFFINITY PREDICTED BY RF-SCORE:    0.00 PKD
ROOT
HETATM    1  O   UNL     1     -12.067  11.329  68.277  1.00  0.00    -0.619 OA 
HETATM    2  C   UNL     1     -11.279  12.411  67.771  1.00  0.00    -0.275 C  
HETATM    3  H   UNL     1     -11.528  10.826  68.876  1.00  0.00     0.000 HD 
ENDROOT
BRANCH   2   4
HETATM    4  C   UNL     1     -12.148  13.223  66.805  1.00  0.00    -0.345 C  
HETATM    5  H   UNL     1     -12.310  15.105  66.319  1.00  0.00     0.000 HD 
HETATM    6  O   UNL     1     -11.771  14.602  66.918  1.00  0.00    -0.375 OA 
BRANCH   4   7
HETATM    7  C   UNL     1     -12.001  12.758  65.345  1.00  0.00    -0.436 C  
HETATM    8  H   UNL     1     -12.436  13.454  63.552  1.00  0.00     0.000 HD 
HETATM    9  O   UNL     1     -12.527  13.741  64.453  1.00  0.00    -0.601 OA 
BRANCH   7  10
HETATM   10  C   UNL     1     -10.521  12.469  64.989  1.00  0.00    -0.297 C  
HETATM   11  H   UNL     1      -8.938  13.472  64.284  1.00  0.00     0.000 HD 
HETATM   12  O   UNL     1      -9.846  13.649  64.503  1.00  0.00    -0.152 OA 
BRANCH  10  13
HETATM   13  C   UNL     1     -10.355  11.357  63.946  1.00  0.00    -0.379 C  
HETATM   14  C   UNL     1      -9.639  10.097  64.466  1.00  0.00    -0.311 C  
HETATM   15  O   UNL     1      -9.747  11.893  62.769  1.00  0.00    -0.469 OA 
HETATM   16  O   UNL     1      -9.994   9.699  65.709  1.00  0.00    -0.293 OA 
HETATM   17  O   UNL     1      -8.846   9.462  63.777  1.00  0.00    -0.219 OA 
HETATM   18  H   UNL     1      -9.645  11.204  62.123  1.00  0.00     0.000 HD 
ENDBRANCH  10  13
ENDBRANCH   7  10
ENDBRANCH   4   7
ENDBRANCH   2   4
TORSDOF 4
ENDMDL
MODEL       82
REMARK 921   NORMALIZED FREE ENERGY PREDICTED BY IDOCK:   -3.71 KCAL/MOL
REMARK 922        TOTAL FREE ENERGY PREDICTED BY IDOCK:   -5.05 KCAL/MOL
REMARK 923 INTER-LIGAND FREE ENERGY PREDICTED BY IDOCK:   -5.46 KCAL/MOL
REMARK 924 INTRA-LIGAND FREE ENERGY PREDICTED BY IDOCK:    0.41 KCAL/MOL
REMARK 927      BINDING AFFINITY PREDICTED BY RF-SCORE:    0.00 PKD
ROOT
HETATM    1  O   UNL     1      -9.982  10.491  64.673  1.00  0.00    -0.308 OA 
HETATM    2  C   UNL     1     -10.295  10.383  66.064  1.00  0.00    -0.192 C  
HETATM    3  H   UNL     1      -9.496   9.716  64.418  1.00  0.00     0.000 HD 
ENDROOT
BRANCH   2   4
HETATM    4  C   UNL     1     -11.080  11.633  66.475  1.00  0.00    -0.301 C  
HETATM    5  H   UNL     1     -12.412  12.060  67.836  1.00  0.00     0.000 HD 
HETATM    6  O   UNL     1     -11.925  11.285  67.581  1.00  0.00    -0.634 OA 
BRANCH   4   7
HETATM    7  C   UNL     1     -10.163  12.805  66.866  1.00  0.00    -0.236 C  
HETATM    8  H   UNL     1      -8.251  13.264  66.708  1.00  0.00     0.000 HD 
HETATM    9  O   UNL     1      -8.818  12.540  66.467  1.00  0.00    -0.185 OA 
BRANCH   7  10
HETATM   10  C   UNL     1     -10.642  14.135  66.232  1.00  0.00    -0.284 C  
HETATM   11  H   UNL     1     -12.094  15.483  66.521  1.00  0.00     0.000 HD 
HETATM   12  O   UNL     1     -11.799  14.667  66.910  1.00  0.00    -0.381 OA 
BRANCH  10  13
HETATM   13  C   UNL     1     -10.975  14.010  64.740  1.00  0.00    -0.402 C  
HETATM   14  C   UNL     1     -12.363  13.412  64.444  1.00  0.00    -0.341 C  
HETATM   15  O   UNL     1      -9.920  13.314  64.072  1.00  0.00    -0.762 OA 
HETATM   16  O   UNL     1     -13.364  13.847  65.243  1.00  0.00    -0.732 OA 
HETATM   17  O   UNL     1     -12.559  12.640  63.510  1.00  0.00    -0.696 OA 
HETATM   18  H   UNL     1     -10.126  13.237  63.148  1.00  0.00     0.000 HD 
ENDBRANCH  10  13
ENDBRANCH   7  10
ENDBRANCH   4   7
ENDBRANCH   2   4
TORSDOF 4
ENDMDL
MODEL       83
REMARK 921   NORMALIZED FREE ENERGY PREDICTED BY IDOCK:   -3.69 KCAL/MOL
REMARK 922        TOTAL FREE ENERGY PREDICTED BY IDOCK:   -5.02 KCAL/MOL
REMARK 923 INTER-LIGAND FREE ENERGY PREDICTED BY IDOCK:   -4.41 KCAL/MOL
REMARK 924 INTRA-LIGAND FREE ENERGY PREDICTED BY IDOCK:   -0.61 KCAL/MOL
REMARK 927      BINDING AFFINITY PREDICTED BY RF-SCORE:    0.00 PKD
ROOT
HETATM    1  O   UNL     1     -12.363  11.522  70.322  1.00  0.00    -0.304 OA 
HETATM    2  C   UNL     1     -11.087  11.146  69.795  1.00  0.00    -0.202 C  
HETATM    3  H   UNL     1     -12.385  11.283  71.241  1.00  0.00     0.000 HD 
ENDROOT
BRANCH   2   4
HETATM    4  C   UNL     1     -11.051  11.534  68.313  1.00  0.00    -0.239 C  
HETATM    5  H   UNL     1     -11.845  10.843  66.670  1.00  0.00     0.000 HD 
HETATM    6  O   UNL     1     -11.868  10.603  67.589  1.00  0.00    -0.411 OA 
BRANCH   4   7
HETATM    7  C   UNL     1     -11.547  12.969  68.065  1.00  0.00    -0.343 C  
HETATM    8  H   UNL     1     -11.357  14.736  68.921  1.00  0.00     0.000 HD 
HETATM    9  O   UNL     1     -11.051  13.849  69.074  1.00  0.00    -0.254 OA 
BRANCH   7  10
HETATM   10  C   UNL     1     -11.118  13.483  66.667  1.00  0.00    -0.298 C  
HETATM   11  H   UNL     1      -9.441  13.619  65.582  1.00  0.00     0.000 HD 
HETATM   12  O   UNL     1      -9.704  13.303  66.439  1.00  0.00    -0.269 OA 
BRANCH  10  13
HETATM   13  C   UNL     1     -11.457  14.961  66.436  1.00  0.00    -0.280 C  
HETATM   14  C   UNL     1     -11.535  15.373  64.955  1.00  0.00    -0.311 C  
HETATM   15  O   UNL     1     -10.562  15.780  67.192  1.00  0.00    -0.305 OA 
HETATM   16  O   UNL     1     -12.148  14.487  64.137  1.00  0.00    -0.454 OA 
HETATM   17  O   UNL     1     -11.124  16.458  64.553  1.00  0.00    -0.742 OA 
HETATM   18  H   UNL     1     -10.773  16.696  67.049  1.00  0.00     0.000 HD 
ENDBRANCH  10  13
ENDBRANCH   7  10
ENDBRANCH   4   7
ENDBRANCH   2   4
TORSDOF 4
ENDMDL
MODEL       84
REMARK 921   NORMALIZED FREE ENERGY PREDICTED BY IDOCK:   -3.68 KCAL/MOL
REMARK 922        TOTAL FREE ENERGY PREDICTED BY IDOCK:   -5.02 KCAL/MOL
REMARK 923 INTER-LIGAND FREE ENERGY PREDICTED BY IDOCK:   -4.67 KCAL/MOL
REMARK 924 INTRA-LIGAND FREE ENERGY PREDICTED BY IDOCK:   -0.35 KCAL/MOL
REMARK 927      BINDING AFFINITY PREDICTED BY RF-SCORE:    0.00 PKD
ROOT
HETATM    1  O   UNL     1      -7.498  18.505  68.752  1.00  0.00    -0.290 OA 
HETATM    2  C   UNL     1      -8.552  17.680  68.247  1.00  0.00    -0.268 C  
HETATM    3  H   UNL     1      -7.291  18.214  69.632  1.00  0.00     0.000 HD 
ENDROOT
BRANCH   2   4
HETATM    4  C   UNL     1      -8.886  18.150  66.826  1.00  0.00    -0.264 C  
HETATM    5  H   UNL     1      -8.080  17.940  65.062  1.00  0.00     0.000 HD 
HETATM    6  O   UNL     1      -7.873  17.649  65.942  1.00  0.00    -0.523 OA 
BRANCH   4   7
HETATM    7  C   UNL     1     -10.272  17.674  66.358  1.00  0.00    -0.364 C  
HETATM    8  H   UNL     1     -11.700  18.325  65.162  1.00  0.00     0.000 HD 
HETATM    9  O   UNL     1     -10.844  18.618  65.452  1.00  0.00    -0.569 OA 
BRANCH   7  10
HETATM   10  C   UNL     1     -10.194  16.283  65.679  1.00  0.00    -0.343 C  
HETATM   11  H   UNL     1     -10.897  15.390  64.031  1.00  0.00     0.000 HD 
HETATM   12  O   UNL     1     -10.945  16.244  64.447  1.00  0.00    -0.708 OA 
BRANCH  10  13
HETATM   13  C   UNL     1     -10.687  15.143  66.579  1.00  0.00    -0.310 C  
HETATM   14  C   UNL     1      -9.679  13.993  66.761  1.00  0.00    -0.278 C  
HETATM   15  O   UNL     1     -11.964  14.692  66.121  1.00  0.00    -0.338 OA 
HETATM   16  O   UNL     1      -8.392  14.371  66.932  1.00  0.00    -0.185 OA 
HETATM   17  O   UNL     1     -10.028  12.817  66.809  1.00  0.00    -0.227 OA 
HETATM   18  H   UNL     1     -12.269  13.986  66.679  1.00  0.00     0.000 HD 
ENDBRANCH  10  13
ENDBRANCH   7  10
ENDBRANCH   4   7
ENDBRANCH   2   4
TORSDOF 4
ENDMDL
MODEL       85
REMARK 921   NORMALIZED FREE ENERGY PREDICTED BY IDOCK:   -3.68 KCAL/MOL
REMARK 922        TOTAL FREE ENERGY PREDICTED BY IDOCK:   -5.01 KCAL/MOL
REMARK 923 INTER-LIGAND FREE ENERGY PREDICTED BY IDOCK:   -4.17 KCAL/MOL
REMARK 924 INTRA-LIGAND FREE ENERGY PREDICTED BY IDOCK:   -0.84 KCAL/MOL
REMARK 927      BINDING AFFINITY PREDICTED BY RF-SCORE:    0.00 PKD
ROOT
HETATM    1  O   UNL     1      -8.222  18.291  65.726  1.00  0.00    -0.503 OA 
HETATM    2  C   UNL     1      -7.997  19.222  66.788  1.00  0.00    -0.271 C  
HETATM    3  H   UNL     1      -8.042  18.731  64.904  1.00  0.00     0.000 HD 
ENDROOT
BRANCH   2   4
HETATM    4  C   UNL     1      -8.287  18.512  68.115  1.00  0.00    -0.296 C  
HETATM    5  H   UNL     1      -7.858  18.831  69.991  1.00  0.00     0.000 HD 
HETATM    6  O   UNL     1      -7.678  19.271  69.169  1.00  0.00    -0.328 OA 
BRANCH   4   7
HETATM    7  C   UNL     1      -9.794  18.358  68.385  1.00  0.00    -0.371 C  
HETATM    8  H   UNL     1     -11.480  19.059  67.638  1.00  0.00     0.000 HD 
HETATM    9  O   UNL     1     -10.549  19.154  67.471  1.00  0.00    -0.434 OA 
BRANCH   7  10
HETATM   10  C   UNL     1     -10.240  16.877  68.278  1.00  0.00    -0.318 C  
HETATM   11  H   UNL     1     -11.392  15.594  69.295  1.00  0.00     0.000 HD 
HETATM   12  O   UNL     1     -11.118  16.502  69.360  1.00  0.00    -0.311 OA 
BRANCH  10  13
HETATM   13  C   UNL     1      -9.065  15.892  68.249  1.00  0.00    -0.185 C  
HETATM   14  C   UNL     1      -9.011  15.001  66.994  1.00  0.00    -0.234 C  
HETATM   15  O   UNL     1      -9.044  15.139  69.463  1.00  0.00    -0.366 OA 
HETATM   16  O   UNL     1      -9.295  15.624  65.827  1.00  0.00    -0.332 OA 
HETATM   17  O   UNL     1      -8.675  13.821  67.041  1.00  0.00    -0.224 OA 
HETATM   18  H   UNL     1      -8.316  14.528  69.445  1.00  0.00     0.000 HD 
ENDBRANCH  10  13
ENDBRANCH   7  10
ENDBRANCH   4   7
ENDBRANCH   2   4
TORSDOF 4
ENDMDL
MODEL       86
REMARK 921   NORMALIZED FREE ENERGY PREDICTED BY IDOCK:   -3.67 KCAL/MOL
REMARK 922        TOTAL FREE ENERGY PREDICTED BY IDOCK:   -5.00 KCAL/MOL
REMARK 923 INTER-LIGAND FREE ENERGY PREDICTED BY IDOCK:   -4.35 KCAL/MOL
REMARK 924 INTRA-LIGAND FREE ENERGY PREDICTED BY IDOCK:   -0.65 KCAL/MOL
REMARK 927      BINDING AFFINITY PREDICTED BY RF-SCORE:    0.00 PKD
ROOT
HETATM    1  O   UNL     1     -14.238   8.966  73.351  1.00  0.00    -1.241 OA 
HETATM    2  C   UNL     1     -14.180   8.484  72.005  1.00  0.00    -0.453 C  
HETATM    3  H   UNL     1     -14.939   8.507  73.799  1.00  0.00     0.000 HD 
ENDROOT
BRANCH   2   4
HETATM    4  C   UNL     1     -13.048   9.223  71.283  1.00  0.00    -0.265 C  
HETATM    5  H   UNL     1     -12.706  11.067  70.746  1.00  0.00     0.000 HD 
HETATM    6  O   UNL     1     -13.407  10.609  71.193  1.00  0.00    -0.286 OA 
BRANCH   4   7
HETATM    7  C   UNL     1     -11.695   9.079  72.002  1.00  0.00    -0.347 C  
HETATM    8  H   UNL     1     -10.811   7.764  73.176  1.00  0.00     0.000 HD 
HETATM    9  O   UNL     1     -11.646   7.853  72.732  1.00  0.00    -0.383 OA 
BRANCH   7  10
HETATM   10  C   UNL     1     -10.513   9.138  71.002  1.00  0.00    -0.298 C  
HETATM   11  H   UNL     1     -10.241   9.125  69.018  1.00  0.00     0.000 HD 
HETATM   12  O   UNL     1     -10.965   9.089  69.632  1.00  0.00    -0.220 OA 
BRANCH  10  13
HETATM   13  C   UNL     1      -9.488   8.016  71.210  1.00  0.00    -0.157 C  
HETATM   14  C   UNL     1      -8.061   8.363  70.746  1.00  0.00    -0.111 C  
HETATM   15  O   UNL     1      -9.980   6.807  70.630  1.00  0.00    -0.186 OA 
HETATM   16  O   UNL     1      -7.642   9.614  71.042  1.00  0.00    -0.326 OA 
HETATM   17  O   UNL     1      -7.332   7.540  70.199  1.00  0.00    -0.074 OA 
HETATM   18  H   UNL     1      -9.345   6.112  70.759  1.00  0.00     0.000 HD 
ENDBRANCH  10  13
ENDBRANCH   7  10
ENDBRANCH   4   7
ENDBRANCH   2   4
TORSDOF 4
ENDMDL
MODEL       87
REMARK 921   NORMALIZED FREE ENERGY PREDICTED BY IDOCK:   -3.67 KCAL/MOL
REMARK 922        TOTAL FREE ENERGY PREDICTED BY IDOCK:   -5.00 KCAL/MOL
REMARK 923 INTER-LIGAND FREE ENERGY PREDICTED BY IDOCK:   -4.81 KCAL/MOL
REMARK 924 INTRA-LIGAND FREE ENERGY PREDICTED BY IDOCK:   -0.19 KCAL/MOL
REMARK 927      BINDING AFFINITY PREDICTED BY RF-SCORE:    0.00 PKD
ROOT
HETATM    1  O   UNL     1     -10.029  14.192  65.146  1.00  0.00    -0.529 OA 
HETATM    2  C   UNL     1      -9.978  13.551  66.424  1.00  0.00    -0.295 C  
HETATM    3  H   UNL     1      -9.597  13.630  64.515  1.00  0.00     0.000 HD 
ENDROOT
BRANCH   2   4
HETATM    4  C   UNL     1     -10.677  14.459  67.441  1.00  0.00    -0.280 C  
HETATM    5  H   UNL     1     -11.500  16.227  67.400  1.00  0.00     0.000 HD 
HETATM    6  O   UNL     1     -11.067  15.665  66.769  1.00  0.00    -0.284 OA 
BRANCH   4   7
HETATM    7  C   UNL     1     -11.909  13.793  68.078  1.00  0.00    -0.373 C  
HETATM    8  H   UNL     1     -12.919  12.112  67.869  1.00  0.00     0.000 HD 
HETATM    9  O   UNL     1     -12.158  12.524  67.475  1.00  0.00    -0.453 OA 
BRANCH   7  10
HETATM   10  C   UNL     1     -11.731  13.618  69.608  1.00  0.00    -0.320 C  
HETATM   11  H   UNL     1     -11.918  12.162  70.970  1.00  0.00     0.000 HD 
HETATM   12  O   UNL     1     -12.027  12.270  70.032  1.00  0.00    -0.327 OA 
BRANCH  10  13
HETATM   13  C   UNL     1     -12.593  14.581  70.432  1.00  0.00    -0.346 C  
HETATM   14  C   UNL     1     -11.831  15.793  71.000  1.00  0.00    -0.420 C  
HETATM   15  O   UNL     1     -13.297  13.850  71.438  1.00  0.00    -0.333 OA 
HETATM   16  O   UNL     1     -10.940  16.364  70.158  1.00  0.00    -0.349 OA 
HETATM   17  O   UNL     1     -12.060  16.247  72.117  1.00  0.00    -0.496 OA 
HETATM   18  H   UNL     1     -13.832  14.447  71.949  1.00  0.00     0.000 HD 
ENDBRANCH  10  13
ENDBRANCH   7  10
ENDBRANCH   4   7
ENDBRANCH   2   4
TORSDOF 4
ENDMDL
MODEL       88
REMARK 921   NORMALIZED FREE ENERGY PREDICTED BY IDOCK:   -3.67 KCAL/MOL
REMARK 922        TOTAL FREE ENERGY PREDICTED BY IDOCK:   -4.99 KCAL/MOL
REMARK 923 INTER-LIGAND FREE ENERGY PREDICTED BY IDOCK:   -4.20 KCAL/MOL
REMARK 924 INTRA-LIGAND FREE ENERGY PREDICTED BY IDOCK:   -0.79 KCAL/MOL
REMARK 927      BINDING AFFINITY PREDICTED BY RF-SCORE:    0.00 PKD
ROOT
HETATM    1  O   UNL     1     -10.863  16.928  67.595  1.00  0.00    -0.325 OA 
HETATM    2  C   UNL     1      -9.699  16.953  68.425  1.00  0.00    -0.263 C  
HETATM    3  H   UNL     1     -10.967  17.787  67.206  1.00  0.00     0.000 HD 
ENDROOT
BRANCH   2   4
HETATM    4  C   UNL     1      -9.531  15.565  69.053  1.00  0.00    -0.242 C  
HETATM    5  H   UNL     1      -8.140  14.655  70.074  1.00  0.00     0.000 HD 
HETATM    6  O   UNL     1      -8.244  15.515  69.686  1.00  0.00    -0.230 OA 
BRANCH   4   7
HETATM    7  C   UNL     1     -10.631  15.244  70.079  1.00  0.00    -0.270 C  
HETATM    8  H   UNL     1     -11.978  16.241  71.120  1.00  0.00     0.000 HD 
HETATM    9  O   UNL     1     -11.298  16.439  70.487  1.00  0.00    -0.363 OA 
BRANCH   7  10
HETATM   10  C   UNL     1     -11.664  14.239  69.508  1.00  0.00    -0.316 C  
HETATM   11  H   UNL     1     -12.844  12.772  70.187  1.00  0.00     0.000 HD 
HETATM   12  O   UNL     1     -12.211  13.388  70.537  1.00  0.00    -0.350 OA 
BRANCH  10  13
HETATM   13  C   UNL     1     -11.090  13.346  68.401  1.00  0.00    -0.273 C  
HETATM   14  C   UNL     1     -11.909  13.343  67.096  1.00  0.00    -0.382 C  
HETATM   15  O   UNL     1     -10.865  12.033  68.916  1.00  0.00    -0.220 OA 
HETATM   16  O   UNL     1     -12.381  14.548  66.704  1.00  0.00    -0.342 OA 
HETATM   17  O   UNL     1     -12.071  12.326  66.427  1.00  0.00    -0.623 OA 
HETATM   18  H   UNL     1     -10.509  11.479  68.230  1.00  0.00     0.000 HD 
ENDBRANCH  10  13
ENDBRANCH   7  10
ENDBRANCH   4   7
ENDBRANCH   2   4
TORSDOF 4
ENDMDL
MODEL       89
REMARK 921   NORMALIZED FREE ENERGY PREDICTED BY IDOCK:   -3.66 KCAL/MOL
REMARK 922        TOTAL FREE ENERGY PREDICTED BY IDOCK:   -4.98 KCAL/MOL
REMARK 923 INTER-LIGAND FREE ENERGY PREDICTED BY IDOCK:   -4.63 KCAL/MOL
REMARK 924 INTRA-LIGAND FREE ENERGY PREDICTED BY IDOCK:   -0.35 KCAL/MOL
REMARK 927      BINDING AFFINITY PREDICTED BY RF-SCORE:    0.00 PKD
ROOT
HETATM    1  O   UNL     1     -11.214  10.935  69.032  1.00  0.00    -0.223 OA 
HETATM    2  C   UNL     1      -9.806  10.821  68.810  1.00  0.00    -0.194 C  
HETATM    3  H   UNL     1     -11.348  11.315  69.891  1.00  0.00     0.000 HD 
ENDROOT
BRANCH   2   4
HETATM    4  C   UNL     1      -9.589  10.208  67.422  1.00  0.00    -0.154 C  
HETATM    5  H   UNL     1     -10.592   9.008  66.255  1.00  0.00     0.000 HD 
HETATM    6  O   UNL     1     -10.726   9.388  67.115  1.00  0.00    -0.249 OA 
BRANCH   4   7
HETATM    7  C   UNL     1      -9.402  11.274  66.328  1.00  0.00    -0.207 C  
HETATM    8  H   UNL     1      -8.150  11.624  64.845  1.00  0.00     0.000 HD 
HETATM    9  O   UNL     1      -8.266  10.966  65.521  1.00  0.00    -0.143 OA 
BRANCH   7  10
HETATM   10  C   UNL     1     -10.661  11.394  65.433  1.00  0.00    -0.275 C  
HETATM   11  H   UNL     1     -11.306  10.694  63.671  1.00  0.00     0.000 HD 
HETATM   12  O   UNL     1     -10.534  10.620  64.221  1.00  0.00    -0.349 OA 
BRANCH  10  13
HETATM   13  C   UNL     1     -10.993  12.841  65.047  1.00  0.00    -0.289 C  
HETATM   14  C   UNL     1     -12.303  13.004  64.254  1.00  0.00    -0.366 C  
HETATM   15  O   UNL     1      -9.870  13.428  64.387  1.00  0.00    -0.649 OA 
HETATM   16  O   UNL     1     -13.340  12.251  64.684  1.00  0.00    -0.717 OA 
HETATM   17  O   UNL     1     -12.416  13.808  63.333  1.00  0.00    -0.817 OA 
HETATM   18  H   UNL     1     -10.076  14.325  64.148  1.00  0.00     0.000 HD 
ENDBRANCH  10  13
ENDBRANCH   7  10
ENDBRANCH   4   7
ENDBRANCH   2   4
TORSDOF 4
ENDMDL
MODEL       90
REMARK 921   NORMALIZED FREE ENERGY PREDICTED BY IDOCK:   -3.63 KCAL/MOL
REMARK 922        TOTAL FREE ENERGY PREDICTED BY IDOCK:   -4.95 KCAL/MOL
REMARK 923 INTER-LIGAND FREE ENERGY PREDICTED BY IDOCK:   -4.35 KCAL/MOL
REMARK 924 INTRA-LIGAND FREE ENERGY PREDICTED BY IDOCK:   -0.59 KCAL/MOL
REMARK 927      BINDING AFFINITY PREDICTED BY RF-SCORE:    0.00 PKD
ROOT
HETATM    1  O   UNL     1     -11.032  11.171  69.937  1.00  0.00    -0.429 OA 
HETATM    2  C   UNL     1     -12.378  10.803  70.252  1.00  0.00    -0.341 C  
HETATM    3  H   UNL     1     -10.966  11.268  68.994  1.00  0.00     0.000 HD 
ENDROOT
BRANCH   2   4
HETATM    4  C   UNL     1     -12.485  10.646  71.773  1.00  0.00    -0.219 C  
HETATM    5  H   UNL     1     -13.464  11.543  73.203  1.00  0.00     0.000 HD 
HETATM    6  O   UNL     1     -13.398  11.640  72.260  1.00  0.00    -0.443 OA 
BRANCH   4   7
HETATM    7  C   UNL     1     -12.965   9.245  72.190  1.00  0.00    -0.424 C  
HETATM    8  H   UNL     1     -14.219   7.882  71.512  1.00  0.00     0.000 HD 
HETATM    9  O   UNL     1     -13.923   8.747  71.255  1.00  0.00    -0.309 OA 
BRANCH   7  10
HETATM   10  C   UNL     1     -11.782   8.251  72.304  1.00  0.00    -0.388 C  
HETATM   11  H   UNL     1      -9.787   8.286  72.132  1.00  0.00     0.000 HD 
HETATM   12  O   UNL     1     -10.513   8.896  72.062  1.00  0.00    -0.338 OA 
BRANCH  10  13
HETATM   13  C   UNL     1     -11.902   7.055  71.350  1.00  0.00    -0.320 C  
HETATM   14  C   UNL     1     -11.219   5.769  71.851  1.00  0.00    -0.227 C  
HETATM   15  O   UNL     1     -11.467   7.441  70.044  1.00  0.00    -0.450 OA 
HETATM   16  O   UNL     1     -11.381   5.500  73.166  1.00  0.00    -0.286 OA 
HETATM   17  O   UNL     1     -10.619   5.009  71.096  1.00  0.00    -0.179 OA 
HETATM   18  H   UNL     1     -11.542   6.700  69.454  1.00  0.00     0.000 HD 
ENDBRANCH  10  13
ENDBRANCH   7  10
ENDBRANCH   4   7
ENDBRANCH   2   4
TORSDOF 4
ENDMDL
MODEL       91
REMARK 921   NORMALIZED FREE ENERGY PREDICTED BY IDOCK:   -3.61 KCAL/MOL
REMARK 922        TOTAL FREE ENERGY PREDICTED BY IDOCK:   -4.92 KCAL/MOL
REMARK 923 INTER-LIGAND FREE ENERGY PREDICTED BY IDOCK:   -4.30 KCAL/MOL
REMARK 924 INTRA-LIGAND FREE ENERGY PREDICTED BY IDOCK:   -0.63 KCAL/MOL
REMARK 927      BINDING AFFINITY PREDICTED BY RF-SCORE:    0.00 PKD
ROOT
HETATM    1  O   UNL     1     -12.198  14.744  67.207  1.00  0.00    -0.502 OA 
HETATM    2  C   UNL     1     -11.108  13.986  66.675  1.00  0.00    -0.309 C  
HETATM    3  H   UNL     1     -13.006  14.297  66.985  1.00  0.00     0.000 HD 
ENDROOT
BRANCH   2   4
HETATM    4  C   UNL     1      -9.805  14.708  67.035  1.00  0.00    -0.244 C  
HETATM    5  H   UNL     1      -7.920  14.216  67.137  1.00  0.00     0.000 HD 
HETATM    6  O   UNL     1      -8.727  13.769  66.914  1.00  0.00    -0.219 OA 
BRANCH   4   7
HETATM    7  C   UNL     1      -9.538  15.928  66.136  1.00  0.00    -0.333 C  
HETATM    8  H   UNL     1     -10.525  16.982  64.792  1.00  0.00     0.000 HD 
HETATM    9  O   UNL     1     -10.690  16.228  65.347  1.00  0.00    -0.379 OA 
BRANCH   7  10
HETATM   10  C   UNL     1      -9.142  17.172  66.972  1.00  0.00    -0.230 C  
HETATM   11  H   UNL     1      -9.029  17.692  68.902  1.00  0.00     0.000 HD 
HETATM   12  O   UNL     1      -9.272  16.930  68.389  1.00  0.00    -0.236 OA 
BRANCH  10  13
HETATM   13  C   UNL     1      -9.958  18.422  66.622  1.00  0.00    -0.368 C  
HETATM   14  C   UNL     1      -9.122  19.706  66.464  1.00  0.00    -0.373 C  
HETATM   15  O   UNL     1     -11.028  18.571  67.557  1.00  0.00    -0.371 OA 
HETATM   16  O   UNL     1      -7.950  19.557  65.806  1.00  0.00    -0.416 OA 
HETATM   17  O   UNL     1      -9.521  20.799  66.854  1.00  0.00    -0.315 OA 
HETATM   18  H   UNL     1     -11.534  19.345  67.340  1.00  0.00     0.000 HD 
ENDBRANCH  10  13
ENDBRANCH   7  10
ENDBRANCH   4   7
ENDBRANCH   2   4
TORSDOF 4
ENDMDL
MODEL       92
REMARK 921   NORMALIZED FREE ENERGY PREDICTED BY IDOCK:   -3.61 KCAL/MOL
REMARK 922        TOTAL FREE ENERGY PREDICTED BY IDOCK:   -4.92 KCAL/MOL
REMARK 923 INTER-LIGAND FREE ENERGY PREDICTED BY IDOCK:   -4.49 KCAL/MOL
REMARK 924 INTRA-LIGAND FREE ENERGY PREDICTED BY IDOCK:   -0.43 KCAL/MOL
REMARK 927      BINDING AFFINITY PREDICTED BY RF-SCORE:    0.00 PKD
ROOT
HETATM    1  O   UNL     1     -12.176   5.870  72.749  1.00  0.00    -0.542 OA 
HETATM    2  C   UNL     1     -11.207   6.914  72.620  1.00  0.00    -0.260 C  
HETATM    3  H   UNL     1     -12.063   5.465  73.601  1.00  0.00     0.000 HD 
ENDROOT
BRANCH   2   4
HETATM    4  C   UNL     1     -11.389   7.566  71.245  1.00  0.00    -0.261 C  
HETATM    5  H   UNL     1     -11.933   6.958  69.473  1.00  0.00     0.000 HD 
HETATM    6  O   UNL     1     -11.821   6.553  70.325  1.00  0.00    -0.413 OA 
BRANCH   4   7
HETATM    7  C   UNL     1     -12.407   8.719  71.270  1.00  0.00    -0.270 C  
HETATM    8  H   UNL     1     -13.601   9.572  72.588  1.00  0.00     0.000 HD 
HETATM    9  O   UNL     1     -12.972   8.859  72.573  1.00  0.00    -0.418 OA 
BRANCH   7  10
HETATM   10  C   UNL     1     -11.757  10.058  70.837  1.00  0.00    -0.374 C  
HETATM   11  H   UNL     1     -12.217  12.007  70.848  1.00  0.00     0.000 HD 
HETATM   12  O   UNL     1     -12.615  11.185  71.113  1.00  0.00    -0.377 OA 
BRANCH  10  13
HETATM   13  C   UNL     1     -11.380  10.095  69.350  1.00  0.00    -0.178 C  
HETATM   14  C   UNL     1      -9.937  10.555  69.070  1.00  0.00    -0.211 C  
HETATM   15  O   UNL     1     -12.352  10.854  68.629  1.00  0.00    -0.805 OA 
HETATM   16  O   UNL     1      -8.998  10.065  69.911  1.00  0.00    -0.206 OA 
HETATM   17  O   UNL     1      -9.651  11.269  68.113  1.00  0.00    -0.173 OA 
HETATM   18  H   UNL     1     -12.118  10.876  67.709  1.00  0.00     0.000 HD 
ENDBRANCH  10  13
ENDBRANCH   7  10
ENDBRANCH   4   7
ENDBRANCH   2   4
TORSDOF 4
ENDMDL
MODEL       93
REMARK 921   NORMALIZED FREE ENERGY PREDICTED BY IDOCK:   -3.59 KCAL/MOL
REMARK 922        TOTAL FREE ENERGY PREDICTED BY IDOCK:   -4.90 KCAL/MOL
REMARK 923 INTER-LIGAND FREE ENERGY PREDICTED BY IDOCK:   -4.27 KCAL/MOL
REMARK 924 INTRA-LIGAND FREE ENERGY PREDICTED BY IDOCK:   -0.62 KCAL/MOL
REMARK 927      BINDING AFFINITY PREDICTED BY RF-SCORE:    0.00 PKD
ROOT
HETATM    1  O   UNL     1     -11.412   7.259  73.259  1.00  0.00    -0.575 OA 
HETATM    2  C   UNL     1     -10.853   6.153  72.544  1.00  0.00    -0.240 C  
HETATM    3  H   UNL     1     -11.466   7.021  74.176  1.00  0.00     0.000 HD 
ENDROOT
BRANCH   2   4
HETATM    4  C   UNL     1     -10.765   6.538  71.063  1.00  0.00    -0.243 C  
HETATM    5  H   UNL     1     -12.038   6.758  69.601  1.00  0.00     0.000 HD 
HETATM    6  O   UNL     1     -12.093   6.520  70.519  1.00  0.00    -0.367 OA 
BRANCH   4   7
HETATM    7  C   UNL     1     -10.131   7.923  70.849  1.00  0.00    -0.190 C  
HETATM    8  H   UNL     1      -8.554   8.668  69.928  1.00  0.00     0.000 HD 
HETATM    9  O   UNL     1      -8.946   7.812  70.061  1.00  0.00    -0.142 OA 
BRANCH   7  10
HETATM   10  C   UNL     1     -11.121   8.901  70.168  1.00  0.00    -0.201 C  
HETATM   11  H   UNL     1     -11.318   9.832  68.407  1.00  0.00     0.000 HD 
HETATM   12  O   UNL     1     -10.711   9.231  68.825  1.00  0.00    -0.217 OA 
BRANCH  10  13
HETATM   13  C   UNL     1     -11.313  10.208  70.947  1.00  0.00    -0.340 C  
HETATM   14  C   UNL     1     -12.691  10.354  71.619  1.00  0.00    -0.455 C  
HETATM   15  O   UNL     1     -10.987  11.317  70.107  1.00  0.00    -0.468 OA 
HETATM   16  O   UNL     1     -13.172   9.235  72.207  1.00  0.00    -0.417 OA 
HETATM   17  O   UNL     1     -13.285  11.427  71.669  1.00  0.00    -0.419 OA 
HETATM   18  H   UNL     1     -11.105  12.127  70.590  1.00  0.00     0.000 HD 
ENDBRANCH  10  13
ENDBRANCH   7  10
ENDBRANCH   4   7
ENDBRANCH   2   4
TORSDOF 4
ENDMDL
MODEL       94
REMARK 921   NORMALIZED FREE ENERGY PREDICTED BY IDOCK:   -3.58 KCAL/MOL
REMARK 922        TOTAL FREE ENERGY PREDICTED BY IDOCK:   -4.89 KCAL/MOL
REMARK 923 INTER-LIGAND FREE ENERGY PREDICTED BY IDOCK:   -4.31 KCAL/MOL
REMARK 924 INTRA-LIGAND FREE ENERGY PREDICTED BY IDOCK:   -0.58 KCAL/MOL
REMARK 927      BINDING AFFINITY PREDICTED BY RF-SCORE:    0.00 PKD
ROOT
HETATM    1  O   UNL     1     -13.841   7.451  70.789  1.00  0.00    -0.577 OA 
HETATM    2  C   UNL     1     -12.678   6.977  71.474  1.00  0.00    -0.381 C  
HETATM    3  H   UNL     1     -14.376   6.701  70.561  1.00  0.00     0.000 HD 
ENDROOT
BRANCH   2   4
HETATM    4  C   UNL     1     -11.814   8.188  71.842  1.00  0.00    -0.317 C  
HETATM    5  H   UNL     1     -10.622   8.655  73.314  1.00  0.00     0.000 HD 
HETATM    6  O   UNL     1     -11.157   7.905  73.086  1.00  0.00    -0.382 OA 
BRANCH   4   7
HETATM    7  C   UNL     1     -10.769   8.518  70.762  1.00  0.00    -0.217 C  
HETATM    8  H   UNL     1     -10.309   7.889  68.950  1.00  0.00     0.000 HD 
HETATM    9  O   UNL     1     -10.954   7.685  69.617  1.00  0.00    -0.226 OA 
BRANCH   7  10
HETATM   10  C   UNL     1     -10.842  10.007  70.340  1.00  0.00    -0.318 C  
HETATM   11  H   UNL     1     -12.012  11.595  70.682  1.00  0.00     0.000 HD 
HETATM   12  O   UNL     1     -11.968  10.681  70.941  1.00  0.00    -0.332 OA 
BRANCH  10  13
HETATM   13  C   UNL     1     -10.919  10.203  68.821  1.00  0.00    -0.223 C  
HETATM   14  C   UNL     1      -9.928  11.240  68.260  1.00  0.00    -0.195 C  
HETATM   15  O   UNL     1     -12.271  10.468  68.442  1.00  0.00    -0.787 OA 
HETATM   16  O   UNL     1      -8.686  11.203  68.792  1.00  0.00    -0.161 OA 
HETATM   17  O   UNL     1     -10.228  12.007  67.350  1.00  0.00    -0.199 OA 
HETATM   18  H   UNL     1     -12.319  10.589  67.501  1.00  0.00     0.000 HD 
ENDBRANCH  10  13
ENDBRANCH   7  10
ENDBRANCH   4   7
ENDBRANCH   2   4
TORSDOF 4
ENDMDL
MODEL       95
REMARK 921   NORMALIZED FREE ENERGY PREDICTED BY IDOCK:   -3.57 KCAL/MOL
REMARK 922        TOTAL FREE ENERGY PREDICTED BY IDOCK:   -4.87 KCAL/MOL
REMARK 923 INTER-LIGAND FREE ENERGY PREDICTED BY IDOCK:   -4.35 KCAL/MOL
REMARK 924 INTRA-LIGAND FREE ENERGY PREDICTED BY IDOCK:   -0.52 KCAL/MOL
REMARK 927      BINDING AFFINITY PREDICTED BY RF-SCORE:    0.00 PKD
ROOT
HETATM    1  O   UNL     1     -11.211  16.092  64.419  1.00  0.00    -0.871 OA 
HETATM    2  C   UNL     1     -12.074  15.001  64.084  1.00  0.00    -0.223 C  
HETATM    3  H   UNL     1     -11.079  16.615  63.637  1.00  0.00     0.000 HD 
ENDROOT
BRANCH   2   4
HETATM    4  C   UNL     1     -12.288  14.158  65.345  1.00  0.00    -0.463 C  
HETATM    5  H   UNL     1     -13.549  12.778  65.903  1.00  0.00     0.000 HD 
HETATM    6  O   UNL     1     -13.417  13.300  65.121  1.00  0.00    -0.441 OA 
BRANCH   4   7
HETATM    7  C   UNL     1     -11.054  13.314  65.708  1.00  0.00    -0.279 C  
HETATM    8  H   UNL     1      -9.175  13.637  66.215  1.00  0.00     0.000 HD 
HETATM    9  O   UNL     1      -9.937  14.158  65.990  1.00  0.00    -0.301 OA 
BRANCH   7  10
HETATM   10  C   UNL     1     -11.333  12.394  66.924  1.00  0.00    -0.333 C  
HETATM   11  H   UNL     1     -12.258  12.512  68.695  1.00  0.00     0.000 HD 
HETATM   12  O   UNL     1     -12.087  13.075  67.949  1.00  0.00    -0.321 OA 
BRANCH  10  13
HETATM   13  C   UNL     1     -10.058  11.828  67.560  1.00  0.00    -0.192 C  
HETATM   14  C   UNL     1     -10.124  10.326  67.893  1.00  0.00    -0.170 C  
HETATM   15  O   UNL     1      -9.690  12.628  68.686  1.00  0.00    -0.371 OA 
HETATM   16  O   UNL     1     -10.717   9.550  66.958  1.00  0.00    -0.231 OA 
HETATM   17  O   UNL     1      -9.619   9.857  68.909  1.00  0.00    -0.159 OA 
HETATM   18  H   UNL     1      -8.900  12.278  69.080  1.00  0.00     0.000 HD 
ENDBRANCH  10  13
ENDBRANCH   7  10
ENDBRANCH   4   7
ENDBRANCH   2   4
TORSDOF 4
ENDMDL
MODEL       96
REMARK 921   NORMALIZED FREE ENERGY PREDICTED BY IDOCK:   -3.56 KCAL/MOL
REMARK 922        TOTAL FREE ENERGY PREDICTED BY IDOCK:   -4.86 KCAL/MOL
REMARK 923 INTER-LIGAND FREE ENERGY PREDICTED BY IDOCK:   -4.06 KCAL/MOL
REMARK 924 INTRA-LIGAND FREE ENERGY PREDICTED BY IDOCK:   -0.80 KCAL/MOL
REMARK 927      BINDING AFFINITY PREDICTED BY RF-SCORE:    0.00 PKD
ROOT
HETATM    1  O   UNL     1      -7.412  14.206  67.099  1.00  0.00    -0.323 OA 
HETATM    2  C   UNL     1      -7.397  13.195  68.111  1.00  0.00    -0.119 C  
HETATM    3  H   UNL     1      -6.783  14.875  67.341  1.00  0.00     0.000 HD 
ENDROOT
BRANCH   2   4
HETATM    4  C   UNL     1      -8.411  12.114  67.721  1.00  0.00    -0.160 C  
HETATM    5  H   UNL     1      -8.842  10.316  68.342  1.00  0.00     0.000 HD 
HETATM    6  O   UNL     1      -8.214  10.985  68.584  1.00  0.00    -0.137 OA 
BRANCH   4   7
HETATM    7  C   UNL     1      -9.866  12.604  67.825  1.00  0.00    -0.212 C  
HETATM    8  H   UNL     1     -10.816  14.186  68.522  1.00  0.00     0.000 HD 
HETATM    9  O   UNL     1      -9.918  13.883  68.458  1.00  0.00    -0.226 OA 
BRANCH   7  10
HETATM   10  C   UNL     1     -10.537  12.685  66.430  1.00  0.00    -0.251 C  
HETATM   11  H   UNL     1      -9.974  12.767  64.511  1.00  0.00     0.000 HD 
HETATM   12  O   UNL     1      -9.563  12.717  65.366  1.00  0.00    -0.103 OA 
BRANCH  10  13
HETATM   13  C   UNL     1     -11.460  13.900  66.273  1.00  0.00    -0.339 C  
HETATM   14  C   UNL     1     -12.443  13.805  65.091  1.00  0.00    -0.450 C  
HETATM   15  O   UNL     1     -10.677  15.095  66.246  1.00  0.00    -0.307 OA 
HETATM   16  O   UNL     1     -13.018  12.594  64.910  1.00  0.00    -0.830 OA 
HETATM   17  O   UNL     1     -12.732  14.777  64.399  1.00  0.00    -0.604 OA 
HETATM   18  H   UNL     1     -11.249  15.847  66.149  1.00  0.00     0.000 HD 
ENDBRANCH  10  13
ENDBRANCH   7  10
ENDBRANCH   4   7
ENDBRANCH   2   4
TORSDOF 4
ENDMDL
MODEL       97
REMARK 921   NORMALIZED FREE ENERGY PREDICTED BY IDOCK:   -3.56 KCAL/MOL
REMARK 922        TOTAL FREE ENERGY PREDICTED BY IDOCK:   -4.86 KCAL/MOL
REMARK 923 INTER-LIGAND FREE ENERGY PREDICTED BY IDOCK:   -4.66 KCAL/MOL
REMARK 924 INTRA-LIGAND FREE ENERGY PREDICTED BY IDOCK:   -0.20 KCAL/MOL
REMARK 927      BINDING AFFINITY PREDICTED BY RF-SCORE:    0.00 PKD
ROOT
HETATM    1  O   UNL     1     -12.845   6.421  72.251  1.00  0.00    -0.551 OA 
HETATM    2  C   UNL     1     -11.952   7.516  72.028  1.00  0.00    -0.294 C  
HETATM    3  H   UNL     1     -12.341   5.696  72.600  1.00  0.00     0.000 HD 
ENDROOT
BRANCH   2   4
HETATM    4  C   UNL     1     -12.764   8.687  71.465  1.00  0.00    -0.316 C  
HETATM    5  H   UNL     1     -14.490   9.506  71.862  1.00  0.00     0.000 HD 
HETATM    6  O   UNL     1     -13.987   8.781  72.211  1.00  0.00    -0.430 OA 
BRANCH   4   7
HETATM    7  C   UNL     1     -12.004  10.023  71.538  1.00  0.00    -0.353 C  
HETATM    8  H   UNL     1     -10.238  10.717  70.999  1.00  0.00     0.000 HD 
HETATM    9  O   UNL     1     -10.707   9.892  70.955  1.00  0.00    -0.311 OA 
BRANCH   7  10
HETATM   10  C   UNL     1     -12.783  11.158  70.828  1.00  0.00    -0.297 C  
HETATM   11  H   UNL     1     -13.333  11.645  68.965  1.00  0.00     0.000 HD 
HETATM   12  O   UNL     1     -12.856  10.949  69.402  1.00  0.00    -0.201 OA 
BRANCH  10  13
HETATM   13  C   UNL     1     -12.188  12.550  71.079  1.00  0.00    -0.098 C  
HETATM   14  C   UNL     1     -13.171  13.561  71.699  1.00  0.00    -0.366 C  
HETATM   15  O   UNL     1     -11.581  13.033  69.879  1.00  0.00    -0.456 OA 
HETATM   16  O   UNL     1     -13.970  13.070  72.674  1.00  0.00    -0.657 OA 
HETATM   17  O   UNL     1     -13.186  14.744  71.374  1.00  0.00    -0.330 OA 
HETATM   18  H   UNL     1     -11.212  13.895  70.035  1.00  0.00     0.000 HD 
ENDBRANCH  10  13
ENDBRANCH   7  10
ENDBRANCH   4   7
ENDBRANCH   2   4
TORSDOF 4
ENDMDL
MODEL       98
REMARK 921   NORMALIZED FREE ENERGY PREDICTED BY IDOCK:   -3.55 KCAL/MOL
REMARK 922        TOTAL FREE ENERGY PREDICTED BY IDOCK:   -4.85 KCAL/MOL
REMARK 923 INTER-LIGAND FREE ENERGY PREDICTED BY IDOCK:   -4.42 KCAL/MOL
REMARK 924 INTRA-LIGAND FREE ENERGY PREDICTED BY IDOCK:   -0.43 KCAL/MOL
REMARK 927      BINDING AFFINITY PREDICTED BY RF-SCORE:    0.00 PKD
ROOT
HETATM    1  O   UNL     1     -10.860   9.150  67.447  1.00  0.00    -0.410 OA 
HETATM    2  C   UNL     1     -10.000   9.138  66.304  1.00  0.00    -0.282 C  
HETATM    3  H   UNL     1     -11.321   8.320  67.479  1.00  0.00     0.000 HD 
ENDROOT
BRANCH   2   4
HETATM    4  C   UNL     1      -9.256  10.476  66.253  1.00  0.00    -0.168 C  
HETATM    5  H   UNL     1      -7.390  11.031  66.123  1.00  0.00     0.000 HD 
HETATM    6  O   UNL     1      -7.851  10.202  66.155  1.00  0.00    -0.107 OA 
BRANCH   4   7
HETATM    7  C   UNL     1      -9.701  11.355  65.071  1.00  0.00    -0.250 C  
HETATM    8  H   UNL     1     -10.881  11.181  63.500  1.00  0.00     0.000 HD 
HETATM    9  O   UNL     1     -10.605  10.639  64.229  1.00  0.00    -0.298 OA 
BRANCH   7  10
HETATM   10  C   UNL     1     -10.371  12.665  65.559  1.00  0.00    -0.286 C  
HETATM   11  H   UNL     1     -10.145  13.985  67.047  1.00  0.00     0.000 HD 
HETATM   12  O   UNL     1      -9.735  13.182  66.747  1.00  0.00    -0.232 OA 
BRANCH  10  13
HETATM   13  C   UNL     1     -11.869  12.508  65.846  1.00  0.00    -0.430 C  
HETATM   14  C   UNL     1     -12.772  13.486  65.072  1.00  0.00    -0.344 C  
HETATM   15  O   UNL     1     -12.092  12.548  67.257  1.00  0.00    -0.490 OA 
HETATM   16  O   UNL     1     -12.432  13.690  63.779  1.00  0.00    -0.703 OA 
HETATM   17  O   UNL     1     -13.768  13.998  65.576  1.00  0.00    -0.415 OA 
HETATM   18  H   UNL     1     -13.021  12.451  67.434  1.00  0.00     0.000 HD 
ENDBRANCH  10  13
ENDBRANCH   7  10
ENDBRANCH   4   7
ENDBRANCH   2   4
TORSDOF 4
ENDMDL
MODEL       99
REMARK 921   NORMALIZED FREE ENERGY PREDICTED BY IDOCK:   -3.55 KCAL/MOL
REMARK 922        TOTAL FREE ENERGY PREDICTED BY IDOCK:   -4.85 KCAL/MOL
REMARK 923 INTER-LIGAND FREE ENERGY PREDICTED BY IDOCK:   -4.20 KCAL/MOL
REMARK 924 INTRA-LIGAND FREE ENERGY PREDICTED BY IDOCK:   -0.65 KCAL/MOL
REMARK 927      BINDING AFFINITY PREDICTED BY RF-SCORE:    0.00 PKD
ROOT
HETATM    1  O   UNL     1     -12.975  12.288  71.262  1.00  0.00    -0.322 OA 
HETATM    2  C   UNL     1     -13.227  13.534  71.919  1.00  0.00    -0.422 C  
HETATM    3  H   UNL     1     -12.889  11.616  71.926  1.00  0.00     0.000 HD 
ENDROOT
BRANCH   2   4
HETATM    4  C   UNL     1     -13.367  14.619  70.846  1.00  0.00    -0.298 C  
HETATM    5  H   UNL     1     -14.498  16.188  70.587  1.00  0.00     0.000 HD 
HETATM    6  O   UNL     1     -14.411  15.516  71.252  1.00  0.00    -0.536 OA 
BRANCH   4   7
HETATM    7  C   UNL     1     -12.061  15.402  70.624  1.00  0.00    -0.369 C  
HETATM    8  H   UNL     1     -10.355  15.673  71.575  1.00  0.00     0.000 HD 
HETATM    9  O   UNL     1     -11.161  15.190  71.712  1.00  0.00    -0.389 OA 
BRANCH   7  10
HETATM   10  C   UNL     1     -11.376  14.998  69.294  1.00  0.00    -0.296 C  
HETATM   11  H   UNL     1     -10.710  13.329  68.412  1.00  0.00     0.000 HD 
HETATM   12  O   UNL     1     -11.130  13.577  69.227  1.00  0.00    -0.243 OA 
BRANCH  10  13
HETATM   13  C   UNL     1     -10.049  15.727  69.051  1.00  0.00    -0.225 C  
HETATM   14  C   UNL     1      -9.743  16.017  67.570  1.00  0.00    -0.228 C  
HETATM   15  O   UNL     1      -8.992  15.025  69.707  1.00  0.00    -0.452 OA 
HETATM   16  O   UNL     1     -10.796  16.435  66.831  1.00  0.00    -0.249 OA 
HETATM   17  O   UNL     1      -8.610  15.933  67.106  1.00  0.00    -0.173 OA 
HETATM   18  H   UNL     1      -8.169  15.477  69.556  1.00  0.00     0.000 HD 
ENDBRANCH  10  13
ENDBRANCH   7  10
ENDBRANCH   4   7
ENDBRANCH   2   4
TORSDOF 4
ENDMDL
MODEL      100
REMARK 921   NORMALIZED FREE ENERGY PREDICTED BY IDOCK:   -3.54 KCAL/MOL
REMARK 922        TOTAL FREE ENERGY PREDICTED BY IDOCK:   -4.84 KCAL/MOL
REMARK 923 INTER-LIGAND FREE ENERGY PREDICTED BY IDOCK:   -4.35 KCAL/MOL
REMARK 924 INTRA-LIGAND FREE ENERGY PREDICTED BY IDOCK:   -0.49 KCAL/MOL
REMARK 927      BINDING AFFINITY PREDICTED BY RF-SCORE:    0.00 PKD
ROOT
HETATM    1  O   UNL     1     -10.184  13.817  64.167  1.00  0.00    -0.705 OA 
HETATM    2  C   UNL     1     -10.701  14.507  65.309  1.00  0.00    -0.376 C  
HETATM    3  H   UNL     1     -10.261  14.391  63.415  1.00  0.00     0.000 HD 
ENDROOT
BRANCH   2   4
HETATM    4  C   UNL     1     -10.576  13.581  66.523  1.00  0.00    -0.281 C  
HETATM    5  H   UNL     1     -10.282  13.821  68.437  1.00  0.00     0.000 HD 
HETATM    6  O   UNL     1     -10.360  14.395  67.685  1.00  0.00    -0.236 OA 
BRANCH   4   7
HETATM    7  C   UNL     1     -11.821  12.700  66.725  1.00  0.00    -0.370 C  
HETATM    8  H   UNL     1     -13.095  11.710  65.591  1.00  0.00     0.000 HD 
HETATM    9  O   UNL     1     -12.326  12.254  65.467  1.00  0.00    -0.602 OA 
BRANCH   7  10
HETATM   10  C   UNL     1     -11.510  11.477  67.625  1.00  0.00    -0.285 C  
HETATM   11  H   UNL     1     -11.894  10.869  69.494  1.00  0.00     0.000 HD 
HETATM   12  O   UNL     1     -12.085  11.619  68.941  1.00  0.00    -0.342 OA 
BRANCH  10  13
HETATM   13  C   UNL     1     -10.008  11.208  67.783  1.00  0.00    -0.175 C  
HETATM   14  C   UNL     1      -9.572   9.780  67.406  1.00  0.00    -0.155 C  
HETATM   15  O   UNL     1      -9.592  11.585  69.098  1.00  0.00    -0.414 OA 
HETATM   16  O   UNL     1     -10.154   9.270  66.297  1.00  0.00    -0.278 OA 
HETATM   17  O   UNL     1      -8.711   9.171  68.033  1.00  0.00    -0.128 OA 
HETATM   18  H   UNL     1      -8.661  11.418  69.195  1.00  0.00     0.000 HD 
ENDBRANCH  10  13
ENDBRANCH   7  10
ENDBRANCH   4   7
ENDBRANCH   2   4
TORSDOF 4
ENDMDL
MODEL      101
REMARK 921   NORMALIZED FREE ENERGY PREDICTED BY IDOCK:   -3.54 KCAL/MOL
REMARK 922        TOTAL FREE ENERGY PREDICTED BY IDOCK:   -4.83 KCAL/MOL
REMARK 923 INTER-LIGAND FREE ENERGY PREDICTED BY IDOCK:   -4.20 KCAL/MOL
REMARK 924 INTRA-LIGAND FREE ENERGY PREDICTED BY IDOCK:   -0.63 KCAL/MOL
REMARK 927      BINDING AFFINITY PREDICTED BY RF-SCORE:    0.00 PKD
ROOT
HETATM    1  O   UNL     1     -10.145  10.477  69.906  1.00  0.00    -0.411 OA 
HETATM    2  C   UNL     1     -11.559  10.696  69.890  1.00  0.00    -0.316 C  
HETATM    3  H   UNL     1      -9.980   9.641  70.326  1.00  0.00     0.000 HD 
ENDROOT
BRANCH   2   4
HETATM    4  C   UNL     1     -11.824  12.045  69.213  1.00  0.00    -0.318 C  
HETATM    5  H   UNL     1     -12.006  13.893  69.810  1.00  0.00     0.000 HD 
HETATM    6  O   UNL     1     -11.841  13.057  70.229  1.00  0.00    -0.305 OA 
BRANCH   4   7
HETATM    7  C   UNL     1     -10.768  12.389  68.149  1.00  0.00    -0.221 C  
HETATM    8  H   UNL     1     -10.050  11.575  66.502  1.00  0.00     0.000 HD 
HETATM    9  O   UNL     1     -10.702  11.362  67.160  1.00  0.00    -0.223 OA 
BRANCH   7  10
HETATM   10  C   UNL     1     -11.071  13.749  67.468  1.00  0.00    -0.278 C  
HETATM   11  H   UNL     1     -12.438  14.516  66.223  1.00  0.00     0.000 HD 
HETATM   12  O   UNL     1     -12.252  13.683  66.641  1.00  0.00    -0.415 OA 
BRANCH  10  13
HETATM   13  C   UNL     1      -9.911  14.269  66.610  1.00  0.00    -0.275 C  
HETATM   14  C   UNL     1      -9.967  15.778  66.309  1.00  0.00    -0.295 C  
HETATM   15  O   UNL     1      -9.797  13.473  65.429  1.00  0.00    -0.481 OA 
HETATM   16  O   UNL     1     -10.339  16.563  67.346  1.00  0.00    -0.279 OA 
HETATM   17  O   UNL     1      -9.638  16.242  65.221  1.00  0.00    -0.383 OA 
HETATM   18  H   UNL     1      -9.078  13.795  64.898  1.00  0.00     0.000 HD 
ENDBRANCH  10  13
ENDBRANCH   7  10
ENDBRANCH   4   7
ENDBRANCH   2   4
TORSDOF 4
ENDMDL
MODEL      102
REMARK 921   NORMALIZED FREE ENERGY PREDICTED BY IDOCK:   -3.53 KCAL/MOL
REMARK 922        TOTAL FREE ENERGY PREDICTED BY IDOCK:   -4.83 KCAL/MOL
REMARK 923 INTER-LIGAND FREE ENERGY PREDICTED BY IDOCK:   -4.23 KCAL/MOL
REMARK 924 INTRA-LIGAND FREE ENERGY PREDICTED BY IDOCK:   -0.60 KCAL/MOL
REMARK 927      BINDING AFFINITY PREDICTED BY RF-SCORE:    0.00 PKD
ROOT
HETATM    1  O   UNL     1      -6.475  16.372  67.727  1.00  0.00    -0.118 OA 
HETATM    2  C   UNL     1      -7.382  15.381  67.234  1.00  0.00    -0.204 C  
HETATM    3  H   UNL     1      -5.594  16.022  67.669  1.00  0.00     0.000 HD 
ENDROOT
BRANCH   2   4
HETATM    4  C   UNL     1      -8.803  15.946  67.328  1.00  0.00    -0.196 C  
HETATM    5  H   UNL     1      -9.868  16.823  68.707  1.00  0.00     0.000 HD 
HETATM    6  O   UNL     1      -8.987  16.473  68.649  1.00  0.00    -0.218 OA 
BRANCH   4   7
HETATM    7  C   UNL     1      -9.071  17.045  66.285  1.00  0.00    -0.246 C  
HETATM    8  H   UNL     1     -10.329  17.356  64.797  1.00  0.00     0.000 HD 
HETATM    9  O   UNL     1     -10.163  16.677  65.441  1.00  0.00    -0.585 OA 
BRANCH   7  10
HETATM   10  C   UNL     1      -9.371  18.407  66.961  1.00  0.00    -0.281 C  
HETATM   11  H   UNL     1     -10.934  19.634  67.205  1.00  0.00     0.000 HD 
HETATM   12  O   UNL     1     -10.750  18.799  66.791  1.00  0.00    -0.401 OA 
BRANCH  10  13
HETATM   13  C   UNL     1      -8.481  19.547  66.448  1.00  0.00    -0.352 C  
HETATM   14  C   UNL     1      -7.495  20.104  67.491  1.00  0.00    -0.297 C  
HETATM   15  O   UNL     1      -9.297  20.562  65.861  1.00  0.00    -0.617 OA 
HETATM   16  O   UNL     1      -6.888  19.179  68.268  1.00  0.00    -0.241 OA 
HETATM   17  O   UNL     1      -7.232  21.300  67.571  1.00  0.00    -0.476 OA 
HETATM   18  H   UNL     1      -8.746  21.268  65.543  1.00  0.00     0.000 HD 
ENDBRANCH  10  13
ENDBRANCH   7  10
ENDBRANCH   4   7
ENDBRANCH   2   4
TORSDOF 4
ENDMDL
MODEL      103
REMARK 921   NORMALIZED FREE ENERGY PREDICTED BY IDOCK:   -3.53 KCAL/MOL
REMARK 922        TOTAL FREE ENERGY PREDICTED BY IDOCK:   -4.83 KCAL/MOL
REMARK 923 INTER-LIGAND FREE ENERGY PREDICTED BY IDOCK:   -4.68 KCAL/MOL
REMARK 924 INTRA-LIGAND FREE ENERGY PREDICTED BY IDOCK:   -0.14 KCAL/MOL
REMARK 927      BINDING AFFINITY PREDICTED BY RF-SCORE:    0.00 PKD
ROOT
HETATM    1  O   UNL     1      -8.568  10.667  65.783  1.00  0.00    -0.170 OA 
HETATM    2  C   UNL     1      -9.631  10.433  64.854  1.00  0.00    -0.289 C  
HETATM    3  H   UNL     1      -7.832  10.122  65.533  1.00  0.00     0.000 HD 
ENDROOT
BRANCH   2   4
HETATM    4  C   UNL     1     -10.819  11.313  65.257  1.00  0.00    -0.194 C  
HETATM    5  H   UNL     1     -11.548  11.990  66.935  1.00  0.00     0.000 HD 
HETATM    6  O   UNL     1     -10.812  11.445  66.685  1.00  0.00    -0.269 OA 
BRANCH   4   7
HETATM    7  C   UNL     1     -10.772  12.704  64.602  1.00  0.00    -0.326 C  
HETATM    8  H   UNL     1     -10.346  13.460  62.831  1.00  0.00     0.000 HD 
HETATM    9  O   UNL     1     -10.374  12.600  63.235  1.00  0.00    -0.308 OA 
BRANCH   7  10
HETATM   10  C   UNL     1     -12.144  13.420  64.693  1.00  0.00    -0.410 C  
HETATM   11  H   UNL     1     -13.337  14.504  63.506  1.00  0.00     0.000 HD 
HETATM   12  O   UNL     1     -12.496  14.065  63.451  1.00  0.00    -0.826 OA 
BRANCH  10  13
HETATM   13  C   UNL     1     -12.209  14.466  65.813  1.00  0.00    -0.343 C  
HETATM   14  C   UNL     1     -10.997  15.415  65.870  1.00  0.00    -0.293 C  
HETATM   15  O   UNL     1     -12.460  13.814  67.060  1.00  0.00    -0.425 OA 
HETATM   16  O   UNL     1     -10.546  15.853  64.673  1.00  0.00    -0.525 OA 
HETATM   17  O   UNL     1     -10.513  15.796  66.932  1.00  0.00    -0.304 OA 
HETATM   18  H   UNL     1     -12.501  14.462  67.754  1.00  0.00     0.000 HD 
ENDBRANCH  10  13
ENDBRANCH   7  10
ENDBRANCH   4   7
ENDBRANCH   2   4
TORSDOF 4
ENDMDL
MODEL      104
REMARK 921   NORMALIZED FREE ENERGY PREDICTED BY IDOCK:   -3.52 KCAL/MOL
REMARK 922        TOTAL FREE ENERGY PREDICTED BY IDOCK:   -4.81 KCAL/MOL
REMARK 923 INTER-LIGAND FREE ENERGY PREDICTED BY IDOCK:   -4.49 KCAL/MOL
REMARK 924 INTRA-LIGAND FREE ENERGY PREDICTED BY IDOCK:   -0.32 KCAL/MOL
REMARK 927      BINDING AFFINITY PREDICTED BY RF-SCORE:    0.00 PKD
ROOT
HETATM    1  O   UNL     1     -11.033  12.949  68.641  1.00  0.00    -0.244 OA 
HETATM    2  C   UNL     1     -10.110  13.620  67.778  1.00  0.00    -0.242 C  
HETATM    3  H   UNL     1     -10.556  12.285  69.124  1.00  0.00     0.000 HD 
ENDROOT
BRANCH   2   4
HETATM    4  C   UNL     1     -10.879  14.692  66.998  1.00  0.00    -0.304 C  
HETATM    5  H   UNL     1     -12.739  14.977  66.483  1.00  0.00     0.000 HD 
HETATM    6  O   UNL     1     -12.262  14.313  66.966  1.00  0.00    -0.424 OA 
BRANCH   4   7
HETATM    7  C   UNL     1     -10.734  16.092  67.620  1.00  0.00    -0.318 C  
HETATM    8  H   UNL     1      -9.630  16.955  69.009  1.00  0.00     0.000 HD 
HETATM    9  O   UNL     1      -9.720  16.090  68.625  1.00  0.00    -0.203 OA 
BRANCH   7  10
HETATM   10  C   UNL     1     -10.399  17.157  66.545  1.00  0.00    -0.306 C  
HETATM   11  H   UNL     1     -10.000  17.217  64.584  1.00  0.00     0.000 HD 
HETATM   12  O   UNL     1     -10.206  16.564  65.243  1.00  0.00    -0.588 OA 
BRANCH  10  13
HETATM   13  C   UNL     1      -9.156  17.989  66.883  1.00  0.00    -0.269 C  
HETATM   14  C   UNL     1      -9.448  19.463  67.221  1.00  0.00    -0.318 C  
HETATM   15  O   UNL     1      -8.186  17.841  65.845  1.00  0.00    -0.525 OA 
HETATM   16  O   UNL     1     -10.535  19.677  67.996  1.00  0.00    -0.433 OA 
HETATM   17  O   UNL     1      -8.709  20.376  66.863  1.00  0.00    -0.311 OA 
HETATM   18  H   UNL     1      -7.415  18.356  66.055  1.00  0.00     0.000 HD 
ENDBRANCH  10  13
ENDBRANCH   7  10
ENDBRANCH   4   7
ENDBRANCH   2   4
TORSDOF 4
ENDMDL
MODEL      105
REMARK 921   NORMALIZED FREE ENERGY PREDICTED BY IDOCK:   -3.50 KCAL/MOL
REMARK 922        TOTAL FREE ENERGY PREDICTED BY IDOCK:   -4.79 KCAL/MOL
REMARK 923 INTER-LIGAND FREE ENERGY PREDICTED BY IDOCK:   -4.09 KCAL/MOL
REMARK 924 INTRA-LIGAND FREE ENERGY PREDICTED BY IDOCK:   -0.70 KCAL/MOL
REMARK 927      BINDING AFFINITY PREDICTED BY RF-SCORE:    0.00 PKD
ROOT
HETATM    1  O   UNL     1     -11.092   9.480  67.791  1.00  0.00    -0.501 OA 
HETATM    2  C   UNL     1     -10.449   9.850  66.567  1.00  0.00    -0.143 C  
HETATM    3  H   UNL     1     -11.490   8.627  67.669  1.00  0.00     0.000 HD 
ENDROOT
BRANCH   2   4
HETATM    4  C   UNL     1      -9.806  11.227  66.764  1.00  0.00    -0.199 C  
HETATM    5  H   UNL     1      -8.413  12.257  65.866  1.00  0.00     0.000 HD 
HETATM    6  O   UNL     1      -8.812  11.404  65.744  1.00  0.00    -0.189 OA 
BRANCH   4   7
HETATM    7  C   UNL     1     -10.831  12.372  66.700  1.00  0.00    -0.246 C  
HETATM    8  H   UNL     1     -12.791  12.572  66.809  1.00  0.00     0.000 HD 
HETATM    9  O   UNL     1     -12.157  11.864  66.848  1.00  0.00    -0.599 OA 
BRANCH   7  10
HETATM   10  C   UNL     1     -10.557  13.440  67.790  1.00  0.00    -0.245 C  
HETATM   11  H   UNL     1      -9.073  13.948  69.034  1.00  0.00     0.000 HD 
HETATM   12  O   UNL     1      -9.242  13.293  68.365  1.00  0.00    -0.196 OA 
BRANCH  10  13
HETATM   13  C   UNL     1     -11.585  13.420  68.928  1.00  0.00    -0.314 C  
HETATM   14  C   UNL     1     -11.706  14.747  69.700  1.00  0.00    -0.314 C  
HETATM   15  O   UNL     1     -11.329  12.304  69.783  1.00  0.00    -0.460 OA 
HETATM   16  O   UNL     1     -11.682  15.865  68.940  1.00  0.00    -0.390 OA 
HETATM   17  O   UNL     1     -11.875  14.785  70.915  1.00  0.00    -0.293 OA 
HETATM   18  H   UNL     1     -11.966  12.292  70.488  1.00  0.00     0.000 HD 
ENDBRANCH  10  13
ENDBRANCH   7  10
ENDBRANCH   4   7
ENDBRANCH   2   4
TORSDOF 4
ENDMDL
MODEL      106
REMARK 921   NORMALIZED FREE ENERGY PREDICTED BY IDOCK:   -3.49 KCAL/MOL
REMARK 922        TOTAL FREE ENERGY PREDICTED BY IDOCK:   -4.77 KCAL/MOL
REMARK 923 INTER-LIGAND FREE ENERGY PREDICTED BY IDOCK:   -3.86 KCAL/MOL
REMARK 924 INTRA-LIGAND FREE ENERGY PREDICTED BY IDOCK:   -0.92 KCAL/MOL
REMARK 927      BINDING AFFINITY PREDICTED BY RF-SCORE:    0.00 PKD
ROOT
HETATM    1  O   UNL     1      -7.390  15.776  69.545  1.00  0.00    -0.213 OA 
HETATM    2  C   UNL     1      -7.192  17.001  68.834  1.00  0.00    -0.239 C  
HETATM    3  H   UNL     1      -6.538  15.437  69.792  1.00  0.00     0.000 HD 
ENDROOT
BRANCH   2   4
HETATM    4  C   UNL     1      -8.567  17.548  68.436  1.00  0.00    -0.275 C  
HETATM    5  H   UNL     1      -9.294  19.301  67.984  1.00  0.00     0.000 HD 
HETATM    6  O   UNL     1      -8.442  18.963  68.230  1.00  0.00    -0.306 OA 
BRANCH   4   7
HETATM    7  C   UNL     1      -9.122  16.882  67.165  1.00  0.00    -0.217 C  
HETATM    8  H   UNL     1      -8.531  15.522  65.864  1.00  0.00     0.000 HD 
HETATM    9  O   UNL     1      -8.188  15.934  66.649  1.00  0.00    -0.245 OA 
BRANCH   7  10
HETATM   10  C   UNL     1     -10.478  16.182  67.438  1.00  0.00    -0.310 C  
HETATM   11  H   UNL     1     -11.989  16.324  68.743  1.00  0.00     0.000 HD 
HETATM   12  O   UNL     1     -11.158  16.753  68.576  1.00  0.00    -0.342 OA 
BRANCH  10  13
HETATM   13  C   UNL     1     -10.344  14.672  67.667  1.00  0.00    -0.233 C  
HETATM   14  C   UNL     1     -11.628  13.868  67.389  1.00  0.00    -0.368 C  
HETATM   15  O   UNL     1      -9.813  14.432  68.972  1.00  0.00    -0.328 OA 
HETATM   16  O   UNL     1     -12.321  14.244  66.290  1.00  0.00    -0.443 OA 
HETATM   17  O   UNL     1     -11.966  12.913  68.082  1.00  0.00    -0.336 OA 
HETATM   18  H   UNL     1      -9.730  13.496  69.114  1.00  0.00     0.000 HD 
ENDBRANCH  10  13
ENDBRANCH   7  10
ENDBRANCH   4   7
ENDBRANCH   2   4
TORSDOF 4
ENDMDL
MODEL      107
REMARK 921   NORMALIZED FREE ENERGY PREDICTED BY IDOCK:   -3.48 KCAL/MOL
REMARK 922        TOTAL FREE ENERGY PREDICTED BY IDOCK:   -4.76 KCAL/MOL
REMARK 923 INTER-LIGAND FREE ENERGY PREDICTED BY IDOCK:   -4.27 KCAL/MOL
REMARK 924 INTRA-LIGAND FREE ENERGY PREDICTED BY IDOCK:   -0.50 KCAL/MOL
REMARK 927      BINDING AFFINITY PREDICTED BY RF-SCORE:    0.00 PKD
ROOT
HETATM    1  O   UNL     1     -10.489  18.409  68.805  1.00  0.00    -0.411 OA 
HETATM    2  C   UNL     1     -10.469  16.991  68.987  1.00  0.00    -0.337 C  
HETATM    3  H   UNL     1     -10.523  18.817  69.662  1.00  0.00     0.000 HD 
ENDROOT
BRANCH   2   4
HETATM    4  C   UNL     1     -10.412  16.333  67.604  1.00  0.00    -0.295 C  
HETATM    5  H   UNL     1      -9.680  16.812  65.860  1.00  0.00     0.000 HD 
HETATM    6  O   UNL     1      -9.715  17.220  66.717  1.00  0.00    -0.258 OA 
BRANCH   4   7
HETATM    7  C   UNL     1      -9.713  14.963  67.631  1.00  0.00    -0.212 C  
HETATM    8  H   UNL     1      -8.594  13.930  68.885  1.00  0.00     0.000 HD 
HETATM    9  O   UNL     1      -9.026  14.776  68.868  1.00  0.00    -0.186 OA 
BRANCH   7  10
HETATM   10  C   UNL     1     -10.722  13.807  67.415  1.00  0.00    -0.275 C  
HETATM   11  H   UNL     1     -12.663  13.590  66.975  1.00  0.00     0.000 HD 
HETATM   12  O   UNL     1     -12.044  14.299  67.107  1.00  0.00    -0.423 OA 
BRANCH  10  13
HETATM   13  C   UNL     1     -10.829  12.864  68.620  1.00  0.00    -0.258 C  
HETATM   14  C   UNL     1     -11.640  11.582  68.357  1.00  0.00    -0.308 C  
HETATM   15  O   UNL     1     -11.301  13.593  69.756  1.00  0.00    -0.417 OA 
HETATM   16  O   UNL     1     -11.422  10.993  67.159  1.00  0.00    -0.447 OA 
HETATM   17  O   UNL     1     -12.387  11.094  69.200  1.00  0.00    -0.438 OA 
HETATM   18  H   UNL     1     -11.366  13.009  70.502  1.00  0.00     0.000 HD 
ENDBRANCH  10  13
ENDBRANCH   7  10
ENDBRANCH   4   7
ENDBRANCH   2   4
TORSDOF 4
ENDMDL
MODEL      108
REMARK 921   NORMALIZED FREE ENERGY PREDICTED BY IDOCK:   -3.45 KCAL/MOL
REMARK 922        TOTAL FREE ENERGY PREDICTED BY IDOCK:   -4.72 KCAL/MOL
REMARK 923 INTER-LIGAND FREE ENERGY PREDICTED BY IDOCK:   -4.13 KCAL/MOL
REMARK 924 INTRA-LIGAND FREE ENERGY PREDICTED BY IDOCK:   -0.59 KCAL/MOL
REMARK 927      BINDING AFFINITY PREDICTED BY RF-SCORE:    0.00 PKD
ROOT
HETATM    1  O   UNL     1      -7.958  14.939  69.037  1.00  0.00    -0.154 OA 
HETATM    2  C   UNL     1      -8.583  16.217  68.880  1.00  0.00    -0.245 C  
HETATM    3  H   UNL     1      -7.833  14.784  69.965  1.00  0.00     0.000 HD 
ENDROOT
BRANCH   2   4
HETATM    4  C   UNL     1      -8.784  16.468  67.381  1.00  0.00    -0.182 C  
HETATM    5  H   UNL     1      -8.170  15.627  65.731  1.00  0.00     0.000 HD 
HETATM    6  O   UNL     1      -8.046  15.471  66.659  1.00  0.00    -0.240 OA 
BRANCH   4   7
HETATM    7  C   UNL     1     -10.265  16.423  66.969  1.00  0.00    -0.282 C  
HETATM    8  H   UNL     1     -11.515  17.541  65.931  1.00  0.00     0.000 HD 
HETATM    9  O   UNL     1     -10.601  17.569  66.186  1.00  0.00    -0.313 OA 
BRANCH   7  10
HETATM   10  C   UNL     1     -10.593  15.134  66.172  1.00  0.00    -0.313 C  
HETATM   11  H   UNL     1     -11.184  14.637  64.325  1.00  0.00     0.000 HD 
HETATM   12  O   UNL     1     -10.983  15.427  64.814  1.00  0.00    -0.420 OA 
BRANCH  10  13
HETATM   13  C   UNL     1     -11.698  14.289  66.817  1.00  0.00    -0.405 C  
HETATM   14  C   UNL     1     -11.205  12.980  67.463  1.00  0.00    -0.284 C  
HETATM   15  O   UNL     1     -12.750  14.078  65.874  1.00  0.00    -0.495 OA 
HETATM   16  O   UNL     1     -10.047  13.075  68.155  1.00  0.00    -0.225 OA 
HETATM   17  O   UNL     1     -11.849  11.937  67.404  1.00  0.00    -0.571 OA 
HETATM   18  H   UNL     1     -13.435  13.554  66.274  1.00  0.00     0.000 HD 
ENDBRANCH  10  13
ENDBRANCH   7  10
ENDBRANCH   4   7
ENDBRANCH   2   4
TORSDOF 4
ENDMDL
MODEL      109
REMARK 921   NORMALIZED FREE ENERGY PREDICTED BY IDOCK:   -3.44 KCAL/MOL
REMARK 922        TOTAL FREE ENERGY PREDICTED BY IDOCK:   -4.72 KCAL/MOL
REMARK 923 INTER-LIGAND FREE ENERGY PREDICTED BY IDOCK:   -4.49 KCAL/MOL
REMARK 924 INTRA-LIGAND FREE ENERGY PREDICTED BY IDOCK:   -0.23 KCAL/MOL
REMARK 927      BINDING AFFINITY PREDICTED BY RF-SCORE:    0.00 PKD
ROOT
HETATM    1  O   UNL     1      -6.263  20.309  70.856  1.00  0.00    -0.494 OA 
HETATM    2  C   UNL     1      -5.573  20.609  69.640  1.00  0.00    -0.365 C  
HETATM    3  H   UNL     1      -5.960  20.912  71.525  1.00  0.00     0.000 HD 
ENDROOT
BRANCH   2   4
HETATM    4  C   UNL     1      -6.063  19.637  68.561  1.00  0.00    -0.235 C  
HETATM    5  H   UNL     1      -6.501  17.737  68.490  1.00  0.00     0.000 HD 
HETATM    6  O   UNL     1      -6.197  18.339  69.159  1.00  0.00    -0.225 OA 
BRANCH   4   7
HETATM    7  C   UNL     1      -7.404  20.069  67.943  1.00  0.00    -0.297 C  
HETATM    8  H   UNL     1      -8.076  21.553  66.830  1.00  0.00     0.000 HD 
HETATM    9  O   UNL     1      -7.248  21.286  67.213  1.00  0.00    -0.508 OA 
BRANCH   7  10
HETATM   10  C   UNL     1      -7.978  18.972  67.010  1.00  0.00    -0.256 C  
HETATM   11  H   UNL     1      -8.047  18.573  65.049  1.00  0.00     0.000 HD 
HETATM   12  O   UNL     1      -7.695  19.246  65.622  1.00  0.00    -0.450 OA 
BRANCH  10  13
HETATM   13  C   UNL     1      -9.491  18.778  67.163  1.00  0.00    -0.305 C  
HETATM   14  C   UNL     1      -9.899  17.466  67.858  1.00  0.00    -0.287 C  
HETATM   15  O   UNL     1     -10.126  18.952  65.894  1.00  0.00    -0.506 OA 
HETATM   16  O   UNL     1      -9.144  17.114  68.923  1.00  0.00    -0.260 OA 
HETATM   17  O   UNL     1     -10.880  16.816  67.507  1.00  0.00    -0.307 OA 
HETATM   18  H   UNL     1     -11.063  18.833  65.989  1.00  0.00     0.000 HD 
ENDBRANCH  10  13
ENDBRANCH   7  10
ENDBRANCH   4   7
ENDBRANCH   2   4
TORSDOF 4
ENDMDL
MODEL      110
REMARK 921   NORMALIZED FREE ENERGY PREDICTED BY IDOCK:   -3.44 KCAL/MOL
REMARK 922        TOTAL FREE ENERGY PREDICTED BY IDOCK:   -4.72 KCAL/MOL
REMARK 923 INTER-LIGAND FREE ENERGY PREDICTED BY IDOCK:   -3.95 KCAL/MOL
REMARK 924 INTRA-LIGAND FREE ENERGY PREDICTED BY IDOCK:   -0.77 KCAL/MOL
REMARK 927      BINDING AFFINITY PREDICTED BY RF-SCORE:    0.00 PKD
ROOT
HETATM    1  O   UNL     1     -11.333  12.254  66.816  1.00  0.00    -0.298 OA 
HETATM    2  C   UNL     1     -11.850  12.337  68.147  1.00  0.00    -0.311 C  
HETATM    3  H   UNL     1     -11.234  11.336  66.594  1.00  0.00     0.000 HD 
ENDROOT
BRANCH   2   4
HETATM    4  C   UNL     1     -12.009  13.819  68.505  1.00  0.00    -0.367 C  
HETATM    5  H   UNL     1     -12.735  14.819  70.015  1.00  0.00     0.000 HD 
HETATM    6  O   UNL     1     -12.636  13.901  69.793  1.00  0.00    -0.262 OA 
BRANCH   4   7
HETATM    7  C   UNL     1     -10.666  14.568  68.528  1.00  0.00    -0.250 C  
HETATM    8  H   UNL     1      -8.748  14.107  68.533  1.00  0.00     0.000 HD 
HETATM    9  O   UNL     1      -9.578  13.644  68.519  1.00  0.00    -0.217 OA 
BRANCH   7  10
HETATM   10  C   UNL     1     -10.537  15.537  67.326  1.00  0.00    -0.299 C  
HETATM   11  H   UNL     1     -10.292  15.422  65.342  1.00  0.00     0.000 HD 
HETATM   12  O   UNL     1     -10.371  14.828  66.080  1.00  0.00    -0.279 OA 
BRANCH  10  13
HETATM   13  C   UNL     1      -9.377  16.530  67.470  1.00  0.00    -0.218 C  
HETATM   14  C   UNL     1      -9.234  17.519  66.298  1.00  0.00    -0.203 C  
HETATM   15  O   UNL     1      -8.169  15.817  67.742  1.00  0.00    -0.139 OA 
HETATM   16  O   UNL     1     -10.394  18.025  65.821  1.00  0.00    -0.583 OA 
HETATM   17  O   UNL     1      -8.140  17.871  65.867  1.00  0.00    -0.524 OA 
HETATM   18  H   UNL     1      -7.450  16.433  67.832  1.00  0.00     0.000 HD 
ENDBRANCH  10  13
ENDBRANCH   7  10
ENDBRANCH   4   7
ENDBRANCH   2   4
TORSDOF 4
ENDMDL
MODEL      111
REMARK 921   NORMALIZED FREE ENERGY PREDICTED BY IDOCK:   -3.44 KCAL/MOL
REMARK 922        TOTAL FREE ENERGY PREDICTED BY IDOCK:   -4.71 KCAL/MOL
REMARK 923 INTER-LIGAND FREE ENERGY PREDICTED BY IDOCK:   -4.45 KCAL/MOL
REMARK 924 INTRA-LIGAND FREE ENERGY PREDICTED BY IDOCK:   -0.26 KCAL/MOL
REMARK 927      BINDING AFFINITY PREDICTED BY RF-SCORE:    0.00 PKD
ROOT
HETATM    1  O   UNL     1      -7.926  15.875  69.440  1.00  0.00    -0.232 OA 
HETATM    2  C   UNL     1      -6.905  16.166  68.481  1.00  0.00    -0.135 C  
HETATM    3  H   UNL     1      -7.538  15.915  70.306  1.00  0.00     0.000 HD 
ENDROOT
BRANCH   2   4
HETATM    4  C   UNL     1      -7.531  16.102  67.084  1.00  0.00    -0.212 C  
HETATM    5  H   UNL     1      -8.803  14.933  66.177  1.00  0.00     0.000 HD 
HETATM    6  O   UNL     1      -8.415  14.973  67.043  1.00  0.00    -0.202 OA 
BRANCH   4   7
HETATM    7  C   UNL     1      -8.302  17.384  66.723  1.00  0.00    -0.248 C  
HETATM    8  H   UNL     1      -8.299  18.716  65.268  1.00  0.00     0.000 HD 
HETATM    9  O   UNL     1      -7.823  17.924  65.491  1.00  0.00    -0.459 OA 
BRANCH   7  10
HETATM   10  C   UNL     1      -9.825  17.118  66.618  1.00  0.00    -0.289 C  
HETATM   11  H   UNL     1     -11.270  17.271  65.241  1.00  0.00     0.000 HD 
HETATM   12  O   UNL     1     -10.336  17.433  65.306  1.00  0.00    -0.616 OA 
BRANCH  10  13
HETATM   13  C   UNL     1     -10.648  17.895  67.653  1.00  0.00    -0.387 C  
HETATM   14  C   UNL     1     -10.399  19.415  67.655  1.00  0.00    -0.437 C  
HETATM   15  O   UNL     1     -10.473  17.305  68.943  1.00  0.00    -0.336 OA 
HETATM   16  O   UNL     1     -10.287  19.986  66.434  1.00  0.00    -0.456 OA 
HETATM   17  O   UNL     1     -10.365  20.072  68.691  1.00  0.00    -0.437 OA 
HETATM   18  H   UNL     1     -10.983  17.786  69.584  1.00  0.00     0.000 HD 
ENDBRANCH  10  13
ENDBRANCH   7  10
ENDBRANCH   4   7
ENDBRANCH   2   4
TORSDOF 4
ENDMDL
MODEL      112
REMARK 921   NORMALIZED FREE ENERGY PREDICTED BY IDOCK:   -3.43 KCAL/MOL
REMARK 922        TOTAL FREE ENERGY PREDICTED BY IDOCK:   -4.70 KCAL/MOL
REMARK 923 INTER-LIGAND FREE ENERGY PREDICTED BY IDOCK:   -3.79 KCAL/MOL
REMARK 924 INTRA-LIGAND FREE ENERGY PREDICTED BY IDOCK:   -0.91 KCAL/MOL
REMARK 927      BINDING AFFINITY PREDICTED BY RF-SCORE:    0.00 PKD
ROOT
HETATM    1  O   UNL     1     -11.812  11.453  66.284  1.00  0.00    -0.256 OA 
HETATM    2  C   UNL     1     -11.413  12.297  65.201  1.00  0.00    -0.341 C  
HETATM    3  H   UNL     1     -12.316  10.731  65.927  1.00  0.00     0.000 HD 
ENDROOT
BRANCH   2   4
HETATM    4  C   UNL     1     -10.600  13.461  65.778  1.00  0.00    -0.282 C  
HETATM    5  H   UNL     1      -9.478  14.878  65.044  1.00  0.00     0.000 HD 
HETATM    6  O   UNL     1      -9.982  14.158  64.686  1.00  0.00    -0.239 OA 
BRANCH   4   7
HETATM    7  C   UNL     1     -11.463  14.435  66.599  1.00  0.00    -0.363 C  
HETATM    8  H   UNL     1     -13.383  14.765  66.904  1.00  0.00     0.000 HD 
HETATM    9  O   UNL     1     -12.850  14.164  66.397  1.00  0.00    -0.240 OA 
BRANCH   7  10
HETATM   10  C   UNL     1     -11.130  14.350  68.110  1.00  0.00    -0.264 C  
HETATM   11  H   UNL     1      -9.679  13.611  69.275  1.00  0.00     0.000 HD 
HETATM   12  O   UNL     1      -9.883  13.663  68.348  1.00  0.00    -0.225 OA 
BRANCH  10  13
HETATM   13  C   UNL     1     -12.224  13.660  68.933  1.00  0.00    -0.186 C  
HETATM   14  C   UNL     1     -12.382  14.201  70.366  1.00  0.00    -0.359 C  
HETATM   15  O   UNL     1     -12.029  12.245  68.895  1.00  0.00    -0.308 OA 
HETATM   16  O   UNL     1     -12.303  15.545  70.491  1.00  0.00    -0.375 OA 
HETATM   17  O   UNL     1     -12.623  13.468  71.321  1.00  0.00    -0.353 OA 
HETATM   18  H   UNL     1     -12.707  11.817  69.404  1.00  0.00     0.000 HD 
ENDBRANCH  10  13
ENDBRANCH   7  10
ENDBRANCH   4   7
ENDBRANCH   2   4
TORSDOF 4
ENDMDL
MODEL      113
REMARK 921   NORMALIZED FREE ENERGY PREDICTED BY IDOCK:   -3.42 KCAL/MOL
REMARK 922        TOTAL FREE ENERGY PREDICTED BY IDOCK:   -4.69 KCAL/MOL
REMARK 923 INTER-LIGAND FREE ENERGY PREDICTED BY IDOCK:   -4.46 KCAL/MOL
REMARK 924 INTRA-LIGAND FREE ENERGY PREDICTED BY IDOCK:   -0.23 KCAL/MOL
REMARK 927      BINDING AFFINITY PREDICTED BY RF-SCORE:    0.00 PKD
ROOT
HETATM    1  O   UNL     1     -11.045   7.954  68.394  1.00  0.00    -0.418 OA 
HETATM    2  C   UNL     1     -10.524   8.624  67.243  1.00  0.00    -0.289 C  
HETATM    3  H   UNL     1     -10.870   7.026  68.300  1.00  0.00     0.000 HD 
ENDROOT
BRANCH   2   4
HETATM    4  C   UNL     1     -10.805  10.123  67.395  1.00  0.00    -0.261 C  
HETATM    5  H   UNL     1     -11.229  11.320  68.876  1.00  0.00     0.000 HD 
HETATM    6  O   UNL     1     -11.054  10.391  68.782  1.00  0.00    -0.231 OA 
BRANCH   4   7
HETATM    7  C   UNL     1      -9.642  10.996  66.893  1.00  0.00    -0.182 C  
HETATM    8  H   UNL     1      -8.042  10.769  65.762  1.00  0.00     0.000 HD 
HETATM    9  O   UNL     1      -8.761  10.230  66.072  1.00  0.00    -0.143 OA 
BRANCH   7  10
HETATM   10  C   UNL     1     -10.156  12.225  66.102  1.00  0.00    -0.245 C  
HETATM   11  H   UNL     1      -9.792  14.191  66.006  1.00  0.00     0.000 HD 
HETATM   12  O   UNL     1      -9.477  13.437  66.491  1.00  0.00    -0.258 OA 
BRANCH  10  13
HETATM   13  C   UNL     1     -11.666  12.452  66.250  1.00  0.00    -0.395 C  
HETATM   14  C   UNL     1     -12.347  13.047  65.003  1.00  0.00    -0.473 C  
HETATM   15  O   UNL     1     -11.921  13.210  67.434  1.00  0.00    -0.365 OA 
HETATM   16  O   UNL     1     -11.935  12.539  63.819  1.00  0.00    -0.428 OA 
HETATM   17  O   UNL     1     -13.245  13.880  65.081  1.00  0.00    -0.768 OA 
HETATM   18  H   UNL     1     -12.856  13.351  67.526  1.00  0.00     0.000 HD 
ENDBRANCH  10  13
ENDBRANCH   7  10
ENDBRANCH   4   7
ENDBRANCH   2   4
TORSDOF 4
ENDMDL
MODEL      114
REMARK 921   NORMALIZED FREE ENERGY PREDICTED BY IDOCK:   -3.42 KCAL/MOL
REMARK 922        TOTAL FREE ENERGY PREDICTED BY IDOCK:   -4.69 KCAL/MOL
REMARK 923 INTER-LIGAND FREE ENERGY PREDICTED BY IDOCK:   -4.20 KCAL/MOL
REMARK 924 INTRA-LIGAND FREE ENERGY PREDICTED BY IDOCK:   -0.49 KCAL/MOL
REMARK 927      BINDING AFFINITY PREDICTED BY RF-SCORE:    0.00 PKD
ROOT
HETATM    1  O   UNL     1      -7.687  10.738  65.982  1.00  0.00    -0.153 OA 
HETATM    2  C   UNL     1      -8.819  10.886  65.120  1.00  0.00    -0.156 C  
HETATM    3  H   UNL     1      -6.903  10.887  65.468  1.00  0.00     0.000 HD 
ENDROOT
BRANCH   2   4
HETATM    4  C   UNL     1     -10.085  10.644  65.950  1.00  0.00    -0.261 C  
HETATM    5  H   UNL     1     -10.740   9.223  67.115  1.00  0.00     0.000 HD 
HETATM    6  O   UNL     1      -9.956   9.372  66.601  1.00  0.00    -0.219 OA 
BRANCH   4   7
HETATM    7  C   UNL     1     -10.324  11.746  66.997  1.00  0.00    -0.214 C  
HETATM    8  H   UNL     1      -9.414  12.440  68.604  1.00  0.00     0.000 HD 
HETATM    9  O   UNL     1      -9.267  11.760  67.957  1.00  0.00    -0.168 OA 
BRANCH   7  10
HETATM   10  C   UNL     1     -10.443  13.142  66.334  1.00  0.00    -0.282 C  
HETATM   11  H   UNL     1     -10.072  15.051  66.809  1.00  0.00     0.000 HD 
HETATM   12  O   UNL     1      -9.999  14.195  67.215  1.00  0.00    -0.243 OA 
BRANCH  10  13
HETATM   13  C   UNL     1     -11.868  13.472  65.872  1.00  0.00    -0.372 C  
HETATM   14  C   UNL     1     -12.006  13.721  64.358  1.00  0.00    -0.445 C  
HETATM   15  O   UNL     1     -12.389  14.545  66.659  1.00  0.00    -0.467 OA 
HETATM   16  O   UNL     1     -11.303  12.881  63.565  1.00  0.00    -0.443 OA 
HETATM   17  O   UNL     1     -12.750  14.584  63.901  1.00  0.00    -0.782 OA 
HETATM   18  H   UNL     1     -13.271  14.749  66.372  1.00  0.00     0.000 HD 
ENDBRANCH  10  13
ENDBRANCH   7  10
ENDBRANCH   4   7
ENDBRANCH   2   4
TORSDOF 4
ENDMDL
MODEL      115
REMARK 921   NORMALIZED FREE ENERGY PREDICTED BY IDOCK:   -3.40 KCAL/MOL
REMARK 922        TOTAL FREE ENERGY PREDICTED BY IDOCK:   -4.66 KCAL/MOL
REMARK 923 INTER-LIGAND FREE ENERGY PREDICTED BY IDOCK:   -4.39 KCAL/MOL
REMARK 924 INTRA-LIGAND FREE ENERGY PREDICTED BY IDOCK:   -0.27 KCAL/MOL
REMARK 927      BINDING AFFINITY PREDICTED BY RF-SCORE:    0.00 PKD
ROOT
HETATM    1  O   UNL     1     -11.124   9.311  67.769  1.00  0.00    -0.504 OA 
HETATM    2  C   UNL     1     -10.434   9.566  68.996  1.00  0.00    -0.213 C  
HETATM    3  H   UNL     1     -10.598   8.713  67.253  1.00  0.00     0.000 HD 
ENDROOT
BRANCH   2   4
HETATM    4  C   UNL     1     -11.284  10.532  69.829  1.00  0.00    -0.298 C  
HETATM    5  H   UNL     1     -12.962  11.492  69.571  1.00  0.00     0.000 HD 
HETATM    6  O   UNL     1     -12.436  10.894  69.055  1.00  0.00    -0.425 OA 
BRANCH   4   7
HETATM    7  C   UNL     1     -11.726   9.922  71.171  1.00  0.00    -0.396 C  
HETATM    8  H   UNL     1     -13.415   9.653  72.154  1.00  0.00     0.000 HD 
HETATM    9  O   UNL     1     -13.141  10.030  71.326  1.00  0.00    -0.365 OA 
BRANCH   7  10
HETATM   10  C   UNL     1     -11.301   8.436  71.285  1.00  0.00    -0.266 C  
HETATM   11  H   UNL     1     -12.106   6.630  70.971  1.00  0.00     0.000 HD 
HETATM   12  O   UNL     1     -12.366   7.541  70.900  1.00  0.00    -0.266 OA 
BRANCH  10  13
HETATM   13  C   UNL     1     -10.833   8.047  72.693  1.00  0.00    -0.368 C  
HETATM   14  C   UNL     1      -9.304   7.950  72.853  1.00  0.00    -0.246 C  
HETATM   15  O   UNL     1     -11.509   6.859  73.110  1.00  0.00    -0.516 OA 
HETATM   16  O   UNL     1      -8.593   8.921  72.236  1.00  0.00    -0.397 OA 
HETATM   17  O   UNL     1      -8.771   7.085  73.542  1.00  0.00    -0.127 OA 
HETATM   18  H   UNL     1     -11.220   6.619  73.983  1.00  0.00     0.000 HD 
ENDBRANCH  10  13
ENDBRANCH   7  10
ENDBRANCH   4   7
ENDBRANCH   2   4
TORSDOF 4
ENDMDL
MODEL      116
REMARK 921   NORMALIZED FREE ENERGY PREDICTED BY IDOCK:   -3.39 KCAL/MOL
REMARK 922        TOTAL FREE ENERGY PREDICTED BY IDOCK:   -4.65 KCAL/MOL
REMARK 923 INTER-LIGAND FREE ENERGY PREDICTED BY IDOCK:   -4.09 KCAL/MOL
REMARK 924 INTRA-LIGAND FREE ENERGY PREDICTED BY IDOCK:   -0.56 KCAL/MOL
REMARK 927      BINDING AFFINITY PREDICTED BY RF-SCORE:    0.00 PKD
ROOT
HETATM    1  O   UNL     1     -12.383  10.549  69.118  1.00  0.00    -0.724 OA 
HETATM    2  C   UNL     1     -11.566  11.648  69.530  1.00  0.00    -0.331 C  
HETATM    3  H   UNL     1     -13.081  10.445  69.754  1.00  0.00     0.000 HD 
ENDROOT
BRANCH   2   4
HETATM    4  C   UNL     1     -10.440  11.816  68.504  1.00  0.00    -0.215 C  
HETATM    5  H   UNL     1      -8.795  10.861  68.069  1.00  0.00     0.000 HD 
HETATM    6  O   UNL     1      -9.493  10.757  68.705  1.00  0.00    -0.172 OA 
BRANCH   4   7
HETATM    7  C   UNL     1     -10.954  11.789  67.054  1.00  0.00    -0.285 C  
HETATM    8  H   UNL     1     -12.555  12.392  66.072  1.00  0.00     0.000 HD 
HETATM    9  O   UNL     1     -12.238  12.408  66.968  1.00  0.00    -0.508 OA 
BRANCH   7  10
HETATM   10  C   UNL     1      -9.968  12.499  66.091  1.00  0.00    -0.255 C  
HETATM   11  H   UNL     1      -8.444  12.003  64.892  1.00  0.00     0.000 HD 
HETATM   12  O   UNL     1      -9.048  11.568  65.483  1.00  0.00    -0.187 OA 
BRANCH  10  13
HETATM   13  C   UNL     1      -9.153  13.608  66.767  1.00  0.00    -0.217 C  
HETATM   14  C   UNL     1      -9.518  15.034  66.316  1.00  0.00    -0.311 C  
HETATM   15  O   UNL     1      -7.759  13.325  66.633  1.00  0.00    -0.241 OA 
HETATM   16  O   UNL     1     -10.841  15.275  66.166  1.00  0.00    -0.316 OA 
HETATM   17  O   UNL     1      -8.672  15.909  66.161  1.00  0.00    -0.327 OA 
HETATM   18  H   UNL     1      -7.254  14.012  67.052  1.00  0.00     0.000 HD 
ENDBRANCH  10  13
ENDBRANCH   7  10
ENDBRANCH   4   7
ENDBRANCH   2   4
TORSDOF 4
ENDMDL
MODEL      117
REMARK 921   NORMALIZED FREE ENERGY PREDICTED BY IDOCK:   -3.38 KCAL/MOL
REMARK 922        TOTAL FREE ENERGY PREDICTED BY IDOCK:   -4.64 KCAL/MOL
REMARK 923 INTER-LIGAND FREE ENERGY PREDICTED BY IDOCK:   -4.40 KCAL/MOL
REMARK 924 INTRA-LIGAND FREE ENERGY PREDICTED BY IDOCK:   -0.24 KCAL/MOL
REMARK 927      BINDING AFFINITY PREDICTED BY RF-SCORE:    0.00 PKD
ROOT
HETATM    1  O   UNL     1     -10.178  13.456  64.091  1.00  0.00    -0.662 OA 
HETATM    2  C   UNL     1     -10.888  14.355  64.947  1.00  0.00    -0.416 C  
HETATM    3  H   UNL     1      -9.654  13.972  63.490  1.00  0.00     0.000 HD 
ENDROOT
BRANCH   2   4
HETATM    4  C   UNL     1     -11.733  13.522  65.917  1.00  0.00    -0.352 C  
HETATM    5  H   UNL     1     -12.736  11.852  65.813  1.00  0.00     0.000 HD 
HETATM    6  O   UNL     1     -12.213  12.368  65.212  1.00  0.00    -0.495 OA 
BRANCH   4   7
HETATM    7  C   UNL     1     -10.943  13.084  67.162  1.00  0.00    -0.269 C  
HETATM    8  H   UNL     1     -10.851  13.579  69.069  1.00  0.00     0.000 HD 
HETATM    9  O   UNL     1     -11.339  13.850  68.300  1.00  0.00    -0.264 OA 
BRANCH   7  10
HETATM   10  C   UNL     1     -11.139  11.575  67.455  1.00  0.00    -0.272 C  
HETATM   11  H   UNL     1     -12.361  10.417  68.538  1.00  0.00     0.000 HD 
HETATM   12  O   UNL     1     -12.241  11.342  68.357  1.00  0.00    -0.571 OA 
BRANCH  10  13
HETATM   13  C   UNL     1      -9.889  10.905  68.041  1.00  0.00    -0.171 C  
HETATM   14  C   UNL     1      -9.576   9.516  67.454  1.00  0.00    -0.141 C  
HETATM   15  O   UNL     1      -9.976  10.897  69.467  1.00  0.00    -0.418 OA 
HETATM   16  O   UNL     1      -9.743   9.399  66.117  1.00  0.00    -0.224 OA 
HETATM   17  O   UNL     1      -9.148   8.595  68.144  1.00  0.00    -0.140 OA 
HETATM   18  H   UNL     1      -9.202  10.482  69.830  1.00  0.00     0.000 HD 
ENDBRANCH  10  13
ENDBRANCH   7  10
ENDBRANCH   4   7
ENDBRANCH   2   4
TORSDOF 4
ENDMDL
MODEL      118
REMARK 921   NORMALIZED FREE ENERGY PREDICTED BY IDOCK:   -3.37 KCAL/MOL
REMARK 922        TOTAL FREE ENERGY PREDICTED BY IDOCK:   -4.63 KCAL/MOL
REMARK 923 INTER-LIGAND FREE ENERGY PREDICTED BY IDOCK:   -3.83 KCAL/MOL
REMARK 924 INTRA-LIGAND FREE ENERGY PREDICTED BY IDOCK:   -0.80 KCAL/MOL
REMARK 927      BINDING AFFINITY PREDICTED BY RF-SCORE:    0.00 PKD
ROOT
HETATM    1  O   UNL     1      -5.942  17.106  69.684  1.00  0.00    -0.216 OA 
HETATM    2  C   UNL     1      -5.336  18.359  69.355  1.00  0.00    -0.205 C  
HETATM    3  H   UNL     1      -5.251  16.463  69.791  1.00  0.00     0.000 HD 
ENDROOT
BRANCH   2   4
HETATM    4  C   UNL     1      -6.452  19.397  69.183  1.00  0.00    -0.303 C  
HETATM    5  H   UNL     1      -6.660  21.298  69.565  1.00  0.00     0.000 HD 
HETATM    6  O   UNL     1      -5.969  20.656  69.672  1.00  0.00    -0.350 OA 
BRANCH   4   7
HETATM    7  C   UNL     1      -6.901  19.542  67.718  1.00  0.00    -0.239 C  
HETATM    8  H   UNL     1      -6.522  18.667  65.992  1.00  0.00     0.000 HD 
HETATM    9  O   UNL     1      -6.244  18.577  66.896  1.00  0.00    -0.170 OA 
BRANCH   7  10
HETATM   10  C   UNL     1      -8.437  19.386  67.579  1.00  0.00    -0.292 C  
HETATM   11  H   UNL     1     -10.022  20.549  67.199  1.00  0.00     0.000 HD 
HETATM   12  O   UNL     1      -9.080  20.644  67.285  1.00  0.00    -0.367 OA 
BRANCH  10  13
HETATM   13  C   UNL     1      -9.100  18.788  68.826  1.00  0.00    -0.293 C  
HETATM   14  C   UNL     1      -9.478  17.301  68.697  1.00  0.00    -0.278 C  
HETATM   15  O   UNL     1     -10.203  19.607  69.219  1.00  0.00    -0.629 OA 
HETATM   16  O   UNL     1      -8.563  16.521  68.078  1.00  0.00    -0.178 OA 
HETATM   17  O   UNL     1     -10.512  16.843  69.175  1.00  0.00    -0.311 OA 
HETATM   18  H   UNL     1     -10.614  19.236  69.992  1.00  0.00     0.000 HD 
ENDBRANCH  10  13
ENDBRANCH   7  10
ENDBRANCH   4   7
ENDBRANCH   2   4
TORSDOF 4
ENDMDL
MODEL      119
REMARK 921   NORMALIZED FREE ENERGY PREDICTED BY IDOCK:   -3.35 KCAL/MOL
REMARK 922        TOTAL FREE ENERGY PREDICTED BY IDOCK:   -4.60 KCAL/MOL
REMARK 923 INTER-LIGAND FREE ENERGY PREDICTED BY IDOCK:   -4.41 KCAL/MOL
REMARK 924 INTRA-LIGAND FREE ENERGY PREDICTED BY IDOCK:   -0.19 KCAL/MOL
REMARK 927      BINDING AFFINITY PREDICTED BY RF-SCORE:    0.00 PKD
ROOT
HETATM    1  O   UNL     1      -9.001  11.667  68.747  1.00  0.00    -0.327 OA 
HETATM    2  C   UNL     1      -9.048  11.677  67.318  1.00  0.00    -0.167 C  
HETATM    3  H   UNL     1      -8.356  11.025  69.017  1.00  0.00     0.000 HD 
ENDROOT
BRANCH   2   4
HETATM    4  C   UNL     1     -10.088  12.715  66.882  1.00  0.00    -0.230 C  
HETATM    5  H   UNL     1     -11.983  13.022  67.230  1.00  0.00     0.000 HD 
HETATM    6  O   UNL     1     -11.339  12.379  67.500  1.00  0.00    -0.274 OA 
BRANCH   4   7
HETATM    7  C   UNL     1      -9.686  14.150  67.262  1.00  0.00    -0.236 C  
HETATM    8  H   UNL     1      -8.320  15.024  68.385  1.00  0.00     0.000 HD 
HETATM    9  O   UNL     1      -8.569  14.137  68.151  1.00  0.00    -0.159 OA 
BRANCH   7  10
HETATM   10  C   UNL     1      -9.343  14.994  66.007  1.00  0.00    -0.269 C  
HETATM   11  H   UNL     1      -7.838  16.138  65.350  1.00  0.00     0.000 HD 
HETATM   12  O   UNL     1      -8.048  15.621  66.119  1.00  0.00    -0.024 OA 
BRANCH  10  13
HETATM   13  C   UNL     1     -10.381  16.083  65.708  1.00  0.00    -0.378 C  
HETATM   14  C   UNL     1     -11.359  15.738  64.570  1.00  0.00    -0.316 C  
HETATM   15  O   UNL     1      -9.717  17.332  65.507  1.00  0.00    -0.521 OA 
HETATM   16  O   UNL     1     -11.814  14.464  64.562  1.00  0.00    -0.422 OA 
HETATM   17  O   UNL     1     -11.745  16.576  63.761  1.00  0.00    -1.086 OA 
HETATM   18  H   UNL     1     -10.360  18.007  65.323  1.00  0.00     0.000 HD 
ENDBRANCH  10  13
ENDBRANCH   7  10
ENDBRANCH   4   7
ENDBRANCH   2   4
TORSDOF 4
ENDMDL
MODEL      120
REMARK 921   NORMALIZED FREE ENERGY PREDICTED BY IDOCK:   -3.35 KCAL/MOL
REMARK 922        TOTAL FREE ENERGY PREDICTED BY IDOCK:   -4.60 KCAL/MOL
REMARK 923 INTER-LIGAND FREE ENERGY PREDICTED BY IDOCK:   -4.29 KCAL/MOL
REMARK 924 INTRA-LIGAND FREE ENERGY PREDICTED BY IDOCK:   -0.31 KCAL/MOL
REMARK 927      BINDING AFFINITY PREDICTED BY RF-SCORE:    0.00 PKD
ROOT
HETATM    1  O   UNL     1     -12.699   7.056  70.393  1.00  0.00    -0.595 OA 
HETATM    2  C   UNL     1     -11.567   6.547  69.681  1.00  0.00    -0.283 C  
HETATM    3  H   UNL     1     -13.399   6.417  70.331  1.00  0.00     0.000 HD 
ENDROOT
BRANCH   2   4
HETATM    4  C   UNL     1     -10.438   7.578  69.782  1.00  0.00    -0.230 C  
HETATM    5  H   UNL     1      -9.138   8.348  68.548  1.00  0.00     0.000 HD 
HETATM    6  O   UNL     1      -9.838   7.710  68.485  1.00  0.00    -0.159 OA 
BRANCH   4   7
HETATM    7  C   UNL     1     -10.933   8.950  70.271  1.00  0.00    -0.241 C  
HETATM    8  H   UNL     1     -10.505  10.212  71.725  1.00  0.00     0.000 HD 
HETATM    9  O   UNL     1     -10.199   9.364  71.423  1.00  0.00    -0.316 OA 
BRANCH   7  10
HETATM   10  C   UNL     1     -10.810  10.025  69.161  1.00  0.00    -0.222 C  
HETATM   11  H   UNL     1      -9.410  11.255  68.429  1.00  0.00     0.000 HD 
HETATM   12  O   UNL     1      -9.486  10.596  69.110  1.00  0.00    -0.200 OA 
BRANCH  10  13
HETATM   13  C   UNL     1     -11.821  11.169  69.312  1.00  0.00    -0.352 C  
HETATM   14  C   UNL     1     -11.845  12.158  68.132  1.00  0.00    -0.299 C  
HETATM   15  O   UNL     1     -11.625  11.816  70.572  1.00  0.00    -0.493 OA 
HETATM   16  O   UNL     1     -11.760  11.599  66.904  1.00  0.00    -0.552 OA 
HETATM   17  O   UNL     1     -11.994  13.366  68.293  1.00  0.00    -0.345 OA 
HETATM   18  H   UNL     1     -12.251  12.524  70.666  1.00  0.00     0.000 HD 
ENDBRANCH  10  13
ENDBRANCH   7  10
ENDBRANCH   4   7
ENDBRANCH   2   4
TORSDOF 4
ENDMDL
MODEL      121
REMARK 921   NORMALIZED FREE ENERGY PREDICTED BY IDOCK:   -3.34 KCAL/MOL
REMARK 922        TOTAL FREE ENERGY PREDICTED BY IDOCK:   -4.60 KCAL/MOL
REMARK 923 INTER-LIGAND FREE ENERGY PREDICTED BY IDOCK:   -4.03 KCAL/MOL
REMARK 924 INTRA-LIGAND FREE ENERGY PREDICTED BY IDOCK:   -0.56 KCAL/MOL
REMARK 927      BINDING AFFINITY PREDICTED BY RF-SCORE:    0.00 PKD
ROOT
HETATM    1  O   UNL     1      -8.122  16.504  68.571  1.00  0.00    -0.196 OA 
HETATM    2  C   UNL     1      -9.073  16.848  67.559  1.00  0.00    -0.222 C  
HETATM    3  H   UNL     1      -7.374  16.099  68.149  1.00  0.00     0.000 HD 
ENDROOT
BRANCH   2   4
HETATM    4  C   UNL     1     -10.279  17.502  68.241  1.00  0.00    -0.365 C  
HETATM    5  H   UNL     1     -11.458  19.007  67.848  1.00  0.00     0.000 HD 
HETATM    6  O   UNL     1     -10.710  18.601  67.426  1.00  0.00    -0.431 OA 
BRANCH   4   7
HETATM    7  C   UNL     1     -11.444  16.519  68.450  1.00  0.00    -0.104 C  
HETATM    8  H   UNL     1     -12.074  14.827  67.655  1.00  0.00     0.000 HD 
HETATM    9  O   UNL     1     -11.355  15.435  67.525  1.00  0.00    -0.328 OA 
BRANCH   7  10
HETATM   10  C   UNL     1     -11.466  15.967  69.899  1.00  0.00    -0.344 C  
HETATM   11  H   UNL     1     -10.148  15.474  71.323  1.00  0.00     0.000 HD 
HETATM   12  O   UNL     1     -10.135  15.812  70.435  1.00  0.00    -0.115 OA 
BRANCH  10  13
HETATM   13  C   UNL     1     -12.193  14.622  70.023  1.00  0.00    -0.333 C  
HETATM   14  C   UNL     1     -12.958  14.430  71.346  1.00  0.00    -0.335 C  
HETATM   15  O   UNL     1     -11.278  13.558  69.754  1.00  0.00    -0.453 OA 
HETATM   16  O   UNL     1     -13.633  15.515  71.788  1.00  0.00    -0.461 OA 
HETATM   17  O   UNL     1     -13.000  13.350  71.927  1.00  0.00    -0.348 OA 
HETATM   18  H   UNL     1     -11.728  12.725  69.830  1.00  0.00     0.000 HD 
ENDBRANCH  10  13
ENDBRANCH   7  10
ENDBRANCH   4   7
ENDBRANCH   2   4
TORSDOF 4
ENDMDL
MODEL      122
REMARK 921   NORMALIZED FREE ENERGY PREDICTED BY IDOCK:   -3.33 KCAL/MOL
REMARK 922        TOTAL FREE ENERGY PREDICTED BY IDOCK:   -4.58 KCAL/MOL
REMARK 923 INTER-LIGAND FREE ENERGY PREDICTED BY IDOCK:   -4.52 KCAL/MOL
REMARK 924 INTRA-LIGAND FREE ENERGY PREDICTED BY IDOCK:   -0.06 KCAL/MOL
REMARK 927      BINDING AFFINITY PREDICTED BY RF-SCORE:    0.00 PKD
ROOT
HETATM    1  O   UNL     1      -7.531  10.443  66.066  1.00  0.00    -0.122 OA 
HETATM    2  C   UNL     1      -8.423  10.034  65.025  1.00  0.00    -0.160 C  
HETATM    3  H   UNL     1      -6.666  10.550  65.689  1.00  0.00     0.000 HD 
ENDROOT
BRANCH   2   4
HETATM    4  C   UNL     1      -9.819   9.863  65.633  1.00  0.00    -0.298 C  
HETATM    5  H   UNL     1     -10.557   8.971  67.203  1.00  0.00     0.000 HD 
HETATM    6  O   UNL     1      -9.692   9.077  66.826  1.00  0.00    -0.179 OA 
BRANCH   4   7
HETATM    7  C   UNL     1     -10.489  11.208  65.961  1.00  0.00    -0.256 C  
HETATM    8  H   UNL     1     -10.516  12.486  67.463  1.00  0.00     0.000 HD 
HETATM    9  O   UNL     1     -10.102  11.655  67.260  1.00  0.00    -0.196 OA 
BRANCH   7  10
HETATM   10  C   UNL     1     -10.132  12.290  64.910  1.00  0.00    -0.250 C  
HETATM   11  H   UNL     1      -9.812  14.266  64.859  1.00  0.00     0.000 HD 
HETATM   12  O   UNL     1     -10.031  13.602  65.503  1.00  0.00    -0.283 OA 
BRANCH  10  13
HETATM   13  C   UNL     1     -11.135  12.363  63.752  1.00  0.00    -0.445 C  
HETATM   14  C   UNL     1     -12.608  12.458  64.188  1.00  0.00    -0.403 C  
HETATM   15  O   UNL     1     -10.895  11.285  62.845  1.00  0.00    -0.781 OA 
HETATM   16  O   UNL     1     -12.851  13.277  65.237  1.00  0.00    -0.629 OA 
HETATM   17  O   UNL     1     -13.509  11.879  63.588  1.00  0.00    -0.517 OA 
HETATM   18  H   UNL     1     -11.516  11.330  62.127  1.00  0.00     0.000 HD 
ENDBRANCH  10  13
ENDBRANCH   7  10
ENDBRANCH   4   7
ENDBRANCH   2   4
TORSDOF 4
ENDMDL
MODEL      123
REMARK 921   NORMALIZED FREE ENERGY PREDICTED BY IDOCK:   -3.33 KCAL/MOL
REMARK 922        TOTAL FREE ENERGY PREDICTED BY IDOCK:   -4.58 KCAL/MOL
REMARK 923 INTER-LIGAND FREE ENERGY PREDICTED BY IDOCK:   -3.72 KCAL/MOL
REMARK 924 INTRA-LIGAND FREE ENERGY PREDICTED BY IDOCK:   -0.86 KCAL/MOL
REMARK 927      BINDING AFFINITY PREDICTED BY RF-SCORE:    0.00 PKD
ROOT
HETATM    1  O   UNL     1      -6.525  17.028  69.618  1.00  0.00    -0.238 OA 
HETATM    2  C   UNL     1      -6.126  18.289  69.072  1.00  0.00    -0.228 C  
HETATM    3  H   UNL     1      -5.788  16.666  70.095  1.00  0.00     0.000 HD 
ENDROOT
BRANCH   2   4
HETATM    4  C   UNL     1      -7.315  18.873  68.302  1.00  0.00    -0.278 C  
HETATM    5  H   UNL     1      -7.789  20.625  67.586  1.00  0.00     0.000 HD 
HETATM    6  O   UNL     1      -7.052  20.263  68.063  1.00  0.00    -0.290 OA 
BRANCH   4   7
HETATM    7  C   UNL     1      -7.566  18.151  66.967  1.00  0.00    -0.214 C  
HETATM    8  H   UNL     1      -6.713  16.720  65.910  1.00  0.00     0.000 HD 
HETATM    9  O   UNL     1      -6.558  17.167  66.734  1.00  0.00    -0.180 OA 
BRANCH   7  10
HETATM   10  C   UNL     1      -8.964  17.482  66.939  1.00  0.00    -0.251 C  
HETATM   11  H   UNL     1     -10.569  17.440  65.742  1.00  0.00     0.000 HD 
HETATM   12  O   UNL     1      -9.711  17.850  65.760  1.00  0.00    -0.527 OA 
BRANCH  10  13
HETATM   13  C   UNL     1      -9.817  17.810  68.170  1.00  0.00    -0.326 C  
HETATM   14  C   UNL     1     -10.146  16.598  69.060  1.00  0.00    -0.293 C  
HETATM   15  O   UNL     1     -10.983  18.531  67.765  1.00  0.00    -0.329 OA 
HETATM   16  O   UNL     1      -9.128  15.729  69.257  1.00  0.00    -0.238 OA 
HETATM   17  O   UNL     1     -11.238  16.460  69.604  1.00  0.00    -0.323 OA 
HETATM   18  H   UNL     1     -11.511  18.735  68.528  1.00  0.00     0.000 HD 
ENDBRANCH  10  13
ENDBRANCH   7  10
ENDBRANCH   4   7
ENDBRANCH   2   4
TORSDOF 4
ENDMDL
MODEL      124
REMARK 921   NORMALIZED FREE ENERGY PREDICTED BY IDOCK:   -3.32 KCAL/MOL
REMARK 922        TOTAL FREE ENERGY PREDICTED BY IDOCK:   -4.57 KCAL/MOL
REMARK 923 INTER-LIGAND FREE ENERGY PREDICTED BY IDOCK:   -4.52 KCAL/MOL
REMARK 924 INTRA-LIGAND FREE ENERGY PREDICTED BY IDOCK:   -0.05 KCAL/MOL
REMARK 927      BINDING AFFINITY PREDICTED BY RF-SCORE:    0.00 PKD
ROOT
HETATM    1  O   UNL     1     -11.534   6.638  67.080  1.00  0.00    -0.779 OA 
HETATM    2  C   UNL     1     -10.477   6.436  68.023  1.00  0.00    -0.220 C  
HETATM    3  H   UNL     1     -11.171   6.556  66.207  1.00  0.00     0.000 HD 
ENDROOT
BRANCH   2   4
HETATM    4  C   UNL     1     -11.063   6.569  69.433  1.00  0.00    -0.348 C  
HETATM    5  H   UNL     1     -11.142   5.441  71.023  1.00  0.00     0.000 HD 
HETATM    6  O   UNL     1     -10.779   5.359  70.149  1.00  0.00    -0.298 OA 
BRANCH   4   7
HETATM    7  C   UNL     1     -10.493   7.776  70.198  1.00  0.00    -0.231 C  
HETATM    8  H   UNL     1      -9.505   9.428  69.770  1.00  0.00     0.000 HD 
HETATM    9  O   UNL     1      -9.856   8.682  69.297  1.00  0.00    -0.180 OA 
BRANCH   7  10
HETATM   10  C   UNL     1     -11.599   8.519  70.989  1.00  0.00    -0.279 C  
HETATM   11  H   UNL     1     -11.970  10.375  71.642  1.00  0.00     0.000 HD 
HETATM   12  O   UNL     1     -11.292   9.919  71.157  1.00  0.00    -0.357 OA 
BRANCH  10  13
HETATM   13  C   UNL     1     -11.861   7.915  72.375  1.00  0.00    -0.348 C  
HETATM   14  C   UNL     1     -10.589   7.535  73.155  1.00  0.00    -0.388 C  
HETATM   15  O   UNL     1     -12.783   6.830  72.257  1.00  0.00    -0.536 OA 
HETATM   16  O   UNL     1      -9.572   8.423  73.075  1.00  0.00    -0.246 OA 
HETATM   17  O   UNL     1     -10.524   6.526  73.851  1.00  0.00    -0.310 OA 
HETATM   18  H   UNL     1     -12.945   6.456  73.115  1.00  0.00     0.000 HD 
ENDBRANCH  10  13
ENDBRANCH   7  10
ENDBRANCH   4   7
ENDBRANCH   2   4
TORSDOF 4
ENDMDL
MODEL      125
REMARK 921   NORMALIZED FREE ENERGY PREDICTED BY IDOCK:   -3.32 KCAL/MOL
REMARK 922        TOTAL FREE ENERGY PREDICTED BY IDOCK:   -4.56 KCAL/MOL
REMARK 923 INTER-LIGAND FREE ENERGY PREDICTED BY IDOCK:   -4.27 KCAL/MOL
REMARK 924 INTRA-LIGAND FREE ENERGY PREDICTED BY IDOCK:   -0.29 KCAL/MOL
REMARK 927      BINDING AFFINITY PREDICTED BY RF-SCORE:    0.00 PKD
ROOT
HETATM    1  O   UNL     1     -12.620  13.766  62.954  1.00  0.00    -0.944 OA 
HETATM    2  C   UNL     1     -12.408  14.556  64.127  1.00  0.00    -0.286 C  
HETATM    3  H   UNL     1     -13.188  14.253  62.368  1.00  0.00     0.000 HD 
ENDROOT
BRANCH   2   4
HETATM    4  C   UNL     1     -11.491  13.771  65.071  1.00  0.00    -0.332 C  
HETATM    5  H   UNL     1      -9.756  12.890  64.920  1.00  0.00     0.000 HD 
HETATM    6  O   UNL     1     -10.324  13.377  64.335  1.00  0.00    -0.425 OA 
BRANCH   4   7
HETATM    7  C   UNL     1     -11.078  14.587  66.308  1.00  0.00    -0.332 C  
HETATM    8  H   UNL     1     -11.892  15.139  68.018  1.00  0.00     0.000 HD 
HETATM    9  O   UNL     1     -12.147  14.635  67.254  1.00  0.00    -0.358 OA 
BRANCH   7  10
HETATM   10  C   UNL     1      -9.813  13.996  66.981  1.00  0.00    -0.260 C  
HETATM   11  H   UNL     1      -9.193  12.231  67.692  1.00  0.00     0.000 HD 
HETATM   12  O   UNL     1      -9.969  12.593  67.280  1.00  0.00    -0.209 OA 
BRANCH  10  13
HETATM   13  C   UNL     1      -9.419  14.722  68.273  1.00  0.00    -0.207 C  
HETATM   14  C   UNL     1      -7.901  14.831  68.507  1.00  0.00    -0.130 C  
HETATM   15  O   UNL     1     -10.109  14.135  69.379  1.00  0.00    -0.426 OA 
HETATM   16  O   UNL     1      -7.165  15.126  67.411  1.00  0.00    -0.190 OA 
HETATM   17  O   UNL     1      -7.400  14.718  69.622  1.00  0.00    -0.170 OA 
HETATM   18  H   UNL     1      -9.865  14.585  70.180  1.00  0.00     0.000 HD 
ENDBRANCH  10  13
ENDBRANCH   7  10
ENDBRANCH   4   7
ENDBRANCH   2   4
TORSDOF 4
ENDMDL
MODEL      126
REMARK 921   NORMALIZED FREE ENERGY PREDICTED BY IDOCK:   -3.32 KCAL/MOL
REMARK 922        TOTAL FREE ENERGY PREDICTED BY IDOCK:   -4.56 KCAL/MOL
REMARK 923 INTER-LIGAND FREE ENERGY PREDICTED BY IDOCK:   -3.95 KCAL/MOL
REMARK 924 INTRA-LIGAND FREE ENERGY PREDICTED BY IDOCK:   -0.61 KCAL/MOL
REMARK 927      BINDING AFFINITY PREDICTED BY RF-SCORE:    0.00 PKD
ROOT
HETATM    1  O   UNL     1      -8.442   5.212  73.561  1.00  0.00    -0.112 OA 
HETATM    2  C   UNL     1      -8.691   5.818  72.289  1.00  0.00    -0.132 C  
HETATM    3  H   UNL     1      -7.552   5.421  73.819  1.00  0.00     0.000 HD 
ENDROOT
BRANCH   2   4
HETATM    4  C   UNL     1     -10.127   5.481  71.873  1.00  0.00    -0.189 C  
HETATM    5  H   UNL     1     -11.187   3.851  71.712  1.00  0.00     0.000 HD 
HETATM    6  O   UNL     1     -10.297   4.060  71.970  1.00  0.00    -0.150 OA 
BRANCH   4   7
HETATM    7  C   UNL     1     -11.176   6.194  72.744  1.00  0.00    -0.243 C  
HETATM    8  H   UNL     1     -11.191   7.344  74.346  1.00  0.00     0.000 HD 
HETATM    9  O   UNL     1     -10.543   6.903  73.809  1.00  0.00    -0.360 OA 
BRANCH   7  10
HETATM   10  C   UNL     1     -12.038   7.172  71.905  1.00  0.00    -0.321 C  
HETATM   11  H   UNL     1     -12.189   7.761  69.998  1.00  0.00     0.000 HD 
HETATM   12  O   UNL     1     -11.661   7.161  70.512  1.00  0.00    -0.306 OA 
BRANCH  10  13
HETATM   13  C   UNL     1     -11.972   8.620  72.408  1.00  0.00    -0.340 C  
HETATM   14  C   UNL     1     -13.305   9.386  72.322  1.00  0.00    -0.461 C  
HETATM   15  O   UNL     1     -10.898   9.303  71.759  1.00  0.00    -0.368 OA 
HETATM   16  O   UNL     1     -14.403   8.682  72.677  1.00  0.00    -0.533 OA 
HETATM   17  O   UNL     1     -13.359  10.572  72.010  1.00  0.00    -0.434 OA 
HETATM   18  H   UNL     1     -10.857  10.199  72.071  1.00  0.00     0.000 HD 
ENDBRANCH  10  13
ENDBRANCH   7  10
ENDBRANCH   4   7
ENDBRANCH   2   4
TORSDOF 4
ENDMDL
MODEL      127
REMARK 921   NORMALIZED FREE ENERGY PREDICTED BY IDOCK:   -3.30 KCAL/MOL
REMARK 922        TOTAL FREE ENERGY PREDICTED BY IDOCK:   -4.55 KCAL/MOL
REMARK 923 INTER-LIGAND FREE ENERGY PREDICTED BY IDOCK:   -4.37 KCAL/MOL
REMARK 924 INTRA-LIGAND FREE ENERGY PREDICTED BY IDOCK:   -0.18 KCAL/MOL
REMARK 927      BINDING AFFINITY PREDICTED BY RF-SCORE:    0.00 PKD
ROOT
HETATM    1  O   UNL     1     -11.984  11.596  67.556  1.00  0.00    -0.622 OA 
HETATM    2  C   UNL     1     -10.865  12.199  66.900  1.00  0.00    -0.250 C  
HETATM    3  H   UNL     1     -11.686  10.798  67.975  1.00  0.00     0.000 HD 
ENDROOT
BRANCH   2   4
HETATM    4  C   UNL     1     -11.346  13.488  66.224  1.00  0.00    -0.309 C  
HETATM    5  H   UNL     1     -12.954  14.048  65.272  1.00  0.00     0.000 HD 
HETATM    6  O   UNL     1     -12.656  13.249  65.691  1.00  0.00    -0.464 OA 
BRANCH   4   7
HETATM    7  C   UNL     1     -11.384  14.683  67.192  1.00  0.00    -0.356 C  
HETATM    8  H   UNL     1     -12.414  15.226  68.784  1.00  0.00     0.000 HD 
HETATM    9  O   UNL     1     -12.390  14.488  68.186  1.00  0.00    -0.159 OA 
BRANCH   7  10
HETATM   10  C   UNL     1     -10.011  14.904  67.875  1.00  0.00    -0.219 C  
HETATM   11  H   UNL     1      -9.308  15.300  69.707  1.00  0.00     0.000 HD 
HETATM   12  O   UNL     1     -10.150  15.165  69.287  1.00  0.00    -0.229 OA 
BRANCH  10  13
HETATM   13  C   UNL     1      -9.202  16.049  67.252  1.00  0.00    -0.205 C  
HETATM   14  C   UNL     1     -10.009  17.336  67.001  1.00  0.00    -0.289 C  
HETATM   15  O   UNL     1      -8.532  15.578  66.081  1.00  0.00    -0.395 OA 
HETATM   16  O   UNL     1     -10.870  17.683  67.984  1.00  0.00    -0.369 OA 
HETATM   17  O   UNL     1      -9.837  18.032  66.004  1.00  0.00    -0.505 OA 
HETATM   18  H   UNL     1      -8.031  16.287  65.695  1.00  0.00     0.000 HD 
ENDBRANCH  10  13
ENDBRANCH   7  10
ENDBRANCH   4   7
ENDBRANCH   2   4
TORSDOF 4
ENDMDL
MODEL      128
REMARK 921   NORMALIZED FREE ENERGY PREDICTED BY IDOCK:   -3.30 KCAL/MOL
REMARK 922        TOTAL FREE ENERGY PREDICTED BY IDOCK:   -4.55 KCAL/MOL
REMARK 923 INTER-LIGAND FREE ENERGY PREDICTED BY IDOCK:   -4.25 KCAL/MOL
REMARK 924 INTRA-LIGAND FREE ENERGY PREDICTED BY IDOCK:   -0.30 KCAL/MOL
REMARK 927      BINDING AFFINITY PREDICTED BY RF-SCORE:    0.00 PKD
ROOT
HETATM    1  O   UNL     1     -13.629   8.197  70.972  1.00  0.00    -0.546 OA 
HETATM    2  C   UNL     1     -12.949   6.978  71.282  1.00  0.00    -0.297 C  
HETATM    3  H   UNL     1     -14.518   8.131  71.300  1.00  0.00     0.000 HD 
ENDROOT
BRANCH   2   4
HETATM    4  C   UNL     1     -11.514   7.085  70.753  1.00  0.00    -0.318 C  
HETATM    5  H   UNL     1     -10.541   6.392  69.211  1.00  0.00     0.000 HD 
HETATM    6  O   UNL     1     -11.430   6.326  69.539  1.00  0.00    -0.428 OA 
BRANCH   4   7
HETATM    7  C   UNL     1     -11.088   8.540  70.492  1.00  0.00    -0.244 C  
HETATM    8  H   UNL     1     -10.450  10.076  71.552  1.00  0.00     0.000 HD 
HETATM    9  O   UNL     1     -10.713   9.177  71.714  1.00  0.00    -0.355 OA 
BRANCH   7  10
HETATM   10  C   UNL     1      -9.913   8.613  69.484  1.00  0.00    -0.196 C  
HETATM   11  H   UNL     1      -8.046   9.335  69.425  1.00  0.00     0.000 HD 
HETATM   12  O   UNL     1      -8.767   9.289  70.044  1.00  0.00    -0.158 OA 
BRANCH  10  13
HETATM   13  C   UNL     1     -10.287   9.310  68.169  1.00  0.00    -0.215 C  
HETATM   14  C   UNL     1     -11.006  10.660  68.345  1.00  0.00    -0.251 C  
HETATM   15  O   UNL     1     -11.011   8.402  67.337  1.00  0.00    -0.482 OA 
HETATM   16  O   UNL     1     -10.515  11.457  69.321  1.00  0.00    -0.174 OA 
HETATM   17  O   UNL     1     -11.923  11.015  67.610  1.00  0.00    -0.583 OA 
HETATM   18  H   UNL     1     -11.242   8.833  66.523  1.00  0.00     0.000 HD 
ENDBRANCH  10  13
ENDBRANCH   7  10
ENDBRANCH   4   7
ENDBRANCH   2   4
TORSDOF 4
ENDMDL
MODEL      129
REMARK 921   NORMALIZED FREE ENERGY PREDICTED BY IDOCK:   -3.30 KCAL/MOL
REMARK 922        TOTAL FREE ENERGY PREDICTED BY IDOCK:   -4.54 KCAL/MOL
REMARK 923 INTER-LIGAND FREE ENERGY PREDICTED BY IDOCK:   -3.97 KCAL/MOL
REMARK 924 INTRA-LIGAND FREE ENERGY PREDICTED BY IDOCK:   -0.56 KCAL/MOL
REMARK 927      BINDING AFFINITY PREDICTED BY RF-SCORE:    0.00 PKD
ROOT
HETATM    1  O   UNL     1     -13.055   8.484  72.969  1.00  0.00    -0.729 OA 
HETATM    2  C   UNL     1     -12.175   9.123  72.040  1.00  0.00    -0.373 C  
HETATM    3  H   UNL     1     -13.894   8.927  72.935  1.00  0.00     0.000 HD 
ENDROOT
BRANCH   2   4
HETATM    4  C   UNL     1     -10.821   8.407  72.095  1.00  0.00    -0.337 C  
HETATM    5  H   UNL     1      -9.950   7.163  73.319  1.00  0.00     0.000 HD 
HETATM    6  O   UNL     1     -10.789   7.606  73.285  1.00  0.00    -0.394 OA 
BRANCH   4   7
HETATM    7  C   UNL     1     -10.571   7.522  70.862  1.00  0.00    -0.220 C  
HETATM    8  H   UNL     1     -11.653   6.484  69.579  1.00  0.00     0.000 HD 
HETATM    9  O   UNL     1     -11.807   7.030  70.341  1.00  0.00    -0.306 OA 
BRANCH   7  10
HETATM   10  C   UNL     1      -9.809   8.294  69.755  1.00  0.00    -0.187 C  
HETATM   11  H   UNL     1      -8.892  10.060  69.535  1.00  0.00     0.000 HD 
HETATM   12  O   UNL     1      -9.359   9.586  70.214  1.00  0.00    -0.229 OA 
BRANCH  10  13
HETATM   13  C   UNL     1     -10.638   8.498  68.480  1.00  0.00    -0.111 C  
HETATM   14  C   UNL     1      -9.813   8.511  67.179  1.00  0.00    -0.206 C  
HETATM   15  O   UNL     1     -11.459   9.659  68.626  1.00  0.00    -0.481 OA 
HETATM   16  O   UNL     1      -8.829   7.587  67.107  1.00  0.00    -0.122 OA 
HETATM   17  O   UNL     1     -10.071   9.268  66.247  1.00  0.00    -0.278 OA 
HETATM   18  H   UNL     1     -11.972   9.785  67.836  1.00  0.00     0.000 HD 
ENDBRANCH  10  13
ENDBRANCH   7  10
ENDBRANCH   4   7
ENDBRANCH   2   4
TORSDOF 4
ENDMDL
MODEL      130
REMARK 921   NORMALIZED FREE ENERGY PREDICTED BY IDOCK:   -3.28 KCAL/MOL
REMARK 922        TOTAL FREE ENERGY PREDICTED BY IDOCK:   -4.51 KCAL/MOL
REMARK 923 INTER-LIGAND FREE ENERGY PREDICTED BY IDOCK:   -3.87 KCAL/MOL
REMARK 924 INTRA-LIGAND FREE ENERGY PREDICTED BY IDOCK:   -0.64 KCAL/MOL
REMARK 927      BINDING AFFINITY PREDICTED BY RF-SCORE:    0.00 PKD
ROOT
HETATM    1  O   UNL     1     -12.095  10.844  68.309  1.00  0.00    -0.783 OA 
HETATM    2  C   UNL     1     -10.935  10.333  67.647  1.00  0.00    -0.294 C  
HETATM    3  H   UNL     1     -12.849  10.356  68.002  1.00  0.00     0.000 HD 
ENDROOT
BRANCH   2   4
HETATM    4  C   UNL     1      -9.717  11.120  68.143  1.00  0.00    -0.181 C  
HETATM    5  H   UNL     1      -8.034  10.678  69.024  1.00  0.00     0.000 HD 
HETATM    6  O   UNL     1      -8.788  10.190  68.717  1.00  0.00    -0.131 OA 
BRANCH   4   7
HETATM    7  C   UNL     1      -9.032  11.917  67.019  1.00  0.00    -0.190 C  
HETATM    8  H   UNL     1      -9.110  12.008  65.050  1.00  0.00     0.000 HD 
HETATM    9  O   UNL     1      -9.533  11.515  65.744  1.00  0.00    -0.227 OA 
BRANCH   7  10
HETATM   10  C   UNL     1      -9.236  13.443  67.202  1.00  0.00    -0.240 C  
HETATM   11  H   UNL     1      -8.103  15.082  67.402  1.00  0.00     0.000 HD 
HETATM   12  O   UNL     1      -7.978  14.146  67.290  1.00  0.00    -0.184 OA 
BRANCH  10  13
HETATM   13  C   UNL     1     -10.072  13.798  68.437  1.00  0.00    -0.241 C  
HETATM   14  C   UNL     1     -11.482  14.332  68.121  1.00  0.00    -0.308 C  
HETATM   15  O   UNL     1      -9.326  14.675  69.283  1.00  0.00    -0.381 OA 
HETATM   16  O   UNL     1     -12.135  13.692  67.125  1.00  0.00    -0.389 OA 
HETATM   17  O   UNL     1     -12.001  15.236  68.769  1.00  0.00    -0.321 OA 
HETATM   18  H   UNL     1      -9.844  14.895  70.049  1.00  0.00     0.000 HD 
ENDBRANCH  10  13
ENDBRANCH   7  10
ENDBRANCH   4   7
ENDBRANCH   2   4
TORSDOF 4
ENDMDL
MODEL      131
REMARK 921   NORMALIZED FREE ENERGY PREDICTED BY IDOCK:   -3.27 KCAL/MOL
REMARK 922        TOTAL FREE ENERGY PREDICTED BY IDOCK:   -4.51 KCAL/MOL
REMARK 923 INTER-LIGAND FREE ENERGY PREDICTED BY IDOCK:   -4.40 KCAL/MOL
REMARK 924 INTRA-LIGAND FREE ENERGY PREDICTED BY IDOCK:   -0.11 KCAL/MOL
REMARK 927      BINDING AFFINITY PREDICTED BY RF-SCORE:    0.00 PKD
ROOT
HETATM    1  O   UNL     1      -9.013  12.480  67.990  1.00  0.00    -0.179 OA 
HETATM    2  C   UNL     1      -9.173  12.202  66.596  1.00  0.00    -0.206 C  
HETATM    3  H   UNL     1      -8.388  11.860  68.345  1.00  0.00     0.000 HD 
ENDROOT
BRANCH   2   4
HETATM    4  C   UNL     1     -10.182  13.204  66.023  1.00  0.00    -0.286 C  
HETATM    5  H   UNL     1     -12.126  13.311  65.903  1.00  0.00     0.000 HD 
HETATM    6  O   UNL     1     -11.501  12.691  66.258  1.00  0.00    -0.323 OA 
BRANCH   4   7
HETATM    7  C   UNL     1     -10.045  14.603  66.647  1.00  0.00    -0.273 C  
HETATM    8  H   UNL     1      -8.625  15.951  66.887  1.00  0.00     0.000 HD 
HETATM    9  O   UNL     1      -8.709  15.086  66.501  1.00  0.00    -0.269 OA 
BRANCH   7  10
HETATM   10  C   UNL     1     -11.036  15.608  66.008  1.00  0.00    -0.213 C  
HETATM   11  H   UNL     1     -12.012  15.837  64.275  1.00  0.00     0.000 HD 
HETATM   12  O   UNL     1     -11.405  15.220  64.668  1.00  0.00    -0.398 OA 
BRANCH  10  13
HETATM   13  C   UNL     1     -10.496  17.043  65.961  1.00  0.00    -0.274 C  
HETATM   14  C   UNL     1     -10.712  17.849  67.256  1.00  0.00    -0.267 C  
HETATM   15  O   UNL     1     -11.008  17.708  64.804  1.00  0.00    -0.917 OA 
HETATM   16  O   UNL     1     -10.496  17.169  68.405  1.00  0.00    -0.334 OA 
HETATM   17  O   UNL     1     -11.001  19.041  67.245  1.00  0.00    -0.459 OA 
HETATM   18  H   UNL     1     -10.673  18.597  64.775  1.00  0.00     0.000 HD 
ENDBRANCH  10  13
ENDBRANCH   7  10
ENDBRANCH   4   7
ENDBRANCH   2   4
TORSDOF 4
ENDMDL
MODEL      132
REMARK 921   NORMALIZED FREE ENERGY PREDICTED BY IDOCK:   -3.26 KCAL/MOL
REMARK 922        TOTAL FREE ENERGY PREDICTED BY IDOCK:   -4.50 KCAL/MOL
REMARK 923 INTER-LIGAND FREE ENERGY PREDICTED BY IDOCK:   -4.13 KCAL/MOL
REMARK 924 INTRA-LIGAND FREE ENERGY PREDICTED BY IDOCK:   -0.37 KCAL/MOL
REMARK 927      BINDING AFFINITY PREDICTED BY RF-SCORE:    0.00 PKD
ROOT
HETATM    1  O   UNL     1     -11.685  11.790  67.009  1.00  0.00    -0.555 OA 
HETATM    2  C   UNL     1     -11.837  12.636  65.865  1.00  0.00    -0.444 C  
HETATM    3  H   UNL     1     -12.260  11.042  66.901  1.00  0.00     0.000 HD 
ENDROOT
BRANCH   2   4
HETATM    4  C   UNL     1     -10.908  13.843  66.038  1.00  0.00    -0.290 C  
HETATM    5  H   UNL     1     -10.006  15.092  64.842  1.00  0.00     0.000 HD 
HETATM    6  O   UNL     1     -10.581  14.345  64.734  1.00  0.00    -0.421 OA 
BRANCH   4   7
HETATM    7  C   UNL     1     -11.542  14.960  66.885  1.00  0.00    -0.277 C  
HETATM    8  H   UNL     1     -12.463  15.116  68.622  1.00  0.00     0.000 HD 
HETATM    9  O   UNL     1     -12.071  14.426  68.099  1.00  0.00    -0.310 OA 
BRANCH   7  10
HETATM   10  C   UNL     1     -10.518  16.077  67.209  1.00  0.00    -0.308 C  
HETATM   11  H   UNL     1      -9.748  17.694  66.315  1.00  0.00     0.000 HD 
HETATM   12  O   UNL     1     -10.376  17.009  66.116  1.00  0.00    -0.331 OA 
BRANCH  10  13
HETATM   13  C   UNL     1      -9.127  15.537  67.564  1.00  0.00    -0.193 C  
HETATM   14  C   UNL     1      -8.705  15.774  69.026  1.00  0.00    -0.237 C  
HETATM   15  O   UNL     1      -8.169  16.032  66.625  1.00  0.00    -0.239 OA 
HETATM   16  O   UNL     1      -9.673  15.575  69.949  1.00  0.00    -0.290 OA 
HETATM   17  O   UNL     1      -7.553  16.064  69.337  1.00  0.00    -0.232 OA 
HETATM   18  H   UNL     1      -7.308  15.698  66.845  1.00  0.00     0.000 HD 
ENDBRANCH  10  13
ENDBRANCH   7  10
ENDBRANCH   4   7
ENDBRANCH   2   4
TORSDOF 4
ENDMDL
MODEL      133
REMARK 921   NORMALIZED FREE ENERGY PREDICTED BY IDOCK:   -3.26 KCAL/MOL
REMARK 922        TOTAL FREE ENERGY PREDICTED BY IDOCK:   -4.50 KCAL/MOL
REMARK 923 INTER-LIGAND FREE ENERGY PREDICTED BY IDOCK:   -4.15 KCAL/MOL
REMARK 924 INTRA-LIGAND FREE ENERGY PREDICTED BY IDOCK:   -0.34 KCAL/MOL
REMARK 927      BINDING AFFINITY PREDICTED BY RF-SCORE:    0.00 PKD
ROOT
HETATM    1  O   UNL     1      -8.352  11.499  69.246  1.00  0.00    -0.369 OA 
HETATM    2  C   UNL     1      -8.150  12.237  68.038  1.00  0.00    -0.156 C  
HETATM    3  H   UNL     1      -7.782  10.740  69.228  1.00  0.00     0.000 HD 
ENDROOT
BRANCH   2   4
HETATM    4  C   UNL     1      -9.071  13.462  68.068  1.00  0.00    -0.205 C  
HETATM    5  H   UNL     1      -9.200  15.136  67.074  1.00  0.00     0.000 HD 
HETATM    6  O   UNL     1      -8.629  14.377  67.055  1.00  0.00    -0.214 OA 
BRANCH   4   7
HETATM    7  C   UNL     1     -10.547  13.097  67.837  1.00  0.00    -0.234 C  
HETATM    8  H   UNL     1     -12.278  13.429  68.722  1.00  0.00     0.000 HD 
HETATM    9  O   UNL     1     -11.366  13.654  68.865  1.00  0.00    -0.256 OA 
BRANCH   7  10
HETATM   10  C   UNL     1     -11.042  13.589  66.453  1.00  0.00    -0.302 C  
HETATM   11  H   UNL     1     -12.292  14.974  65.726  1.00  0.00     0.000 HD 
HETATM   12  O   UNL     1     -11.988  14.672  66.575  1.00  0.00    -0.362 OA 
BRANCH  10  13
HETATM   13  C   UNL     1     -11.687  12.480  65.612  1.00  0.00    -0.423 C  
HETATM   14  C   UNL     1     -10.813  11.970  64.451  1.00  0.00    -0.329 C  
HETATM   15  O   UNL     1     -12.985  12.899  65.185  1.00  0.00    -0.758 OA 
HETATM   16  O   UNL     1      -9.501  11.811  64.739  1.00  0.00    -0.148 OA 
HETATM   17  O   UNL     1     -11.285  11.669  63.358  1.00  0.00    -0.396 OA 
HETATM   18  H   UNL     1     -13.384  12.212  64.664  1.00  0.00     0.000 HD 
ENDBRANCH  10  13
ENDBRANCH   7  10
ENDBRANCH   4   7
ENDBRANCH   2   4
TORSDOF 4
ENDMDL
MODEL      134
REMARK 921   NORMALIZED FREE ENERGY PREDICTED BY IDOCK:   -3.26 KCAL/MOL
REMARK 922        TOTAL FREE ENERGY PREDICTED BY IDOCK:   -4.49 KCAL/MOL
REMARK 923 INTER-LIGAND FREE ENERGY PREDICTED BY IDOCK:   -3.71 KCAL/MOL
REMARK 924 INTRA-LIGAND FREE ENERGY PREDICTED BY IDOCK:   -0.78 KCAL/MOL
REMARK 927      BINDING AFFINITY PREDICTED BY RF-SCORE:    0.00 PKD
ROOT
HETATM    1  O   UNL     1      -8.160   5.401  72.191  1.00  0.00    -0.108 OA 
HETATM    2  C   UNL     1      -8.881   5.085  73.386  1.00  0.00    -0.113 C  
HETATM    3  H   UNL     1      -7.251   5.162  72.323  1.00  0.00     0.000 HD 
ENDROOT
BRANCH   2   4
HETATM    4  C   UNL     1     -10.349   5.470  73.173  1.00  0.00    -0.204 C  
HETATM    5  H   UNL     1     -12.054   4.964  73.975  1.00  0.00     0.000 HD 
HETATM    6  O   UNL     1     -11.144   4.726  74.107  1.00  0.00    -0.302 OA 
BRANCH   4   7
HETATM    7  C   UNL     1     -10.597   6.977  73.358  1.00  0.00    -0.364 C  
HETATM    8  H   UNL     1      -9.572   8.552  73.955  1.00  0.00     0.000 HD 
HETATM    9  O   UNL     1      -9.419   7.622  73.841  1.00  0.00    -0.275 OA 
BRANCH   7  10
HETATM   10  C   UNL     1     -11.051   7.643  72.034  1.00  0.00    -0.255 C  
HETATM   11  H   UNL     1     -12.277   9.115  71.454  1.00  0.00     0.000 HD 
HETATM   12  O   UNL     1     -11.999   8.706  72.266  1.00  0.00    -0.364 OA 
BRANCH  10  13
HETATM   13  C   UNL     1     -11.672   6.654  71.041  1.00  0.00    -0.360 C  
HETATM   14  C   UNL     1     -10.863   6.457  69.746  1.00  0.00    -0.314 C  
HETATM   15  O   UNL     1     -13.032   7.016  70.793  1.00  0.00    -0.563 OA 
HETATM   16  O   UNL     1      -9.522   6.377  69.906  1.00  0.00    -0.153 OA 
HETATM   17  O   UNL     1     -11.401   6.322  68.650  1.00  0.00    -0.337 OA 
HETATM   18  H   UNL     1     -13.417   6.403  70.178  1.00  0.00     0.000 HD 
ENDBRANCH  10  13
ENDBRANCH   7  10
ENDBRANCH   4   7
ENDBRANCH   2   4
TORSDOF 4
ENDMDL
MODEL      135
REMARK 921   NORMALIZED FREE ENERGY PREDICTED BY IDOCK:   -3.24 KCAL/MOL
REMARK 922        TOTAL FREE ENERGY PREDICTED BY IDOCK:   -4.47 KCAL/MOL
REMARK 923 INTER-LIGAND FREE ENERGY PREDICTED BY IDOCK:   -3.76 KCAL/MOL
REMARK 924 INTRA-LIGAND FREE ENERGY PREDICTED BY IDOCK:   -0.71 KCAL/MOL
REMARK 927      BINDING AFFINITY PREDICTED BY RF-SCORE:    0.00 PKD
ROOT
HETATM    1  O   UNL     1      -7.741  11.184  65.642  1.00  0.00    -0.364 OA 
HETATM    2  C   UNL     1      -7.656  12.028  66.794  1.00  0.00     0.009 C  
HETATM    3  H   UNL     1      -6.894  11.182  65.214  1.00  0.00     0.000 HD 
ENDROOT
BRANCH   2   4
HETATM    4  C   UNL     1      -9.024  12.031  67.485  1.00  0.00    -0.174 C  
HETATM    5  H   UNL     1      -9.745  12.751  69.149  1.00  0.00     0.000 HD 
HETATM    6  O   UNL     1      -8.897  12.749  68.721  1.00  0.00     0.003 OA 
BRANCH   4   7
HETATM    7  C   UNL     1     -10.122  12.670  66.618  1.00  0.00    -0.241 C  
HETATM    8  H   UNL     1     -10.221  13.881  65.065  1.00  0.00     0.000 HD 
HETATM    9  O   UNL     1      -9.543  13.487  65.601  1.00  0.00    -0.141 OA 
BRANCH   7  10
HETATM   10  C   UNL     1     -11.030  11.595  65.970  1.00  0.00    -0.286 C  
HETATM   11  H   UNL     1     -11.084   9.601  65.798  1.00  0.00     0.000 HD 
HETATM   12  O   UNL     1     -10.527  10.261  66.195  1.00  0.00    -0.210 OA 
BRANCH  10  13
HETATM   13  C   UNL     1     -11.215  11.789  64.460  1.00  0.00    -0.305 C  
HETATM   14  C   UNL     1     -12.640  12.197  64.039  1.00  0.00    -0.403 C  
HETATM   15  O   UNL     1     -10.744  10.631  63.768  1.00  0.00    -0.466 OA 
HETATM   16  O   UNL     1     -13.241  13.110  64.835  1.00  0.00    -0.705 OA 
HETATM   17  O   UNL     1     -13.170  11.768  63.019  1.00  0.00    -0.474 OA 
HETATM   18  H   UNL     1     -10.859  10.752  62.832  1.00  0.00     0.000 HD 
ENDBRANCH  10  13
ENDBRANCH   7  10
ENDBRANCH   4   7
ENDBRANCH   2   4
TORSDOF 4
ENDMDL
MODEL      136
REMARK 921   NORMALIZED FREE ENERGY PREDICTED BY IDOCK:   -3.22 KCAL/MOL
REMARK 922        TOTAL FREE ENERGY PREDICTED BY IDOCK:   -4.45 KCAL/MOL
REMARK 923 INTER-LIGAND FREE ENERGY PREDICTED BY IDOCK:   -4.60 KCAL/MOL
REMARK 924 INTRA-LIGAND FREE ENERGY PREDICTED BY IDOCK:    0.15 KCAL/MOL
REMARK 927      BINDING AFFINITY PREDICTED BY RF-SCORE:    0.00 PKD
ROOT
HETATM    1  O   UNL     1     -10.238  13.308  64.027  1.00  0.00    -0.676 OA 
HETATM    2  C   UNL     1     -10.617  14.502  64.718  1.00  0.00    -0.377 C  
HETATM    3  H   UNL     1      -9.496  13.512  63.470  1.00  0.00     0.000 HD 
ENDROOT
BRANCH   2   4
HETATM    4  C   UNL     1     -11.813  14.173  65.618  1.00  0.00    -0.375 C  
HETATM    5  H   UNL     1     -13.579  13.384  65.358  1.00  0.00     0.000 HD 
HETATM    6  O   UNL     1     -12.838  13.588  64.801  1.00  0.00    -0.677 OA 
BRANCH   4   7
HETATM    7  C   UNL     1     -11.445  13.212  66.761  1.00  0.00    -0.343 C  
HETATM    8  H   UNL     1     -11.196  11.270  67.000  1.00  0.00     0.000 HD 
HETATM    9  O   UNL     1     -11.424  11.864  66.294  1.00  0.00    -0.350 OA 
BRANCH   7  10
HETATM   10  C   UNL     1     -10.070  13.571  67.381  1.00  0.00    -0.237 C  
HETATM   11  H   UNL     1      -8.482  12.611  68.132  1.00  0.00     0.000 HD 
HETATM   12  O   UNL     1      -9.325  12.392  67.752  1.00  0.00    -0.183 OA 
BRANCH  10  13
HETATM   13  C   UNL     1     -10.180  14.477  68.614  1.00  0.00    -0.243 C  
HETATM   14  C   UNL     1     -11.584  14.530  69.244  1.00  0.00    -0.302 C  
HETATM   15  O   UNL     1      -9.665  15.772  68.301  1.00  0.00    -0.199 OA 
HETATM   16  O   UNL     1     -12.232  13.345  69.317  1.00  0.00    -0.284 OA 
HETATM   17  O   UNL     1     -12.058  15.565  69.703  1.00  0.00    -0.351 OA 
HETATM   18  H   UNL     1      -9.732  16.334  69.065  1.00  0.00     0.000 HD 
ENDBRANCH  10  13
ENDBRANCH   7  10
ENDBRANCH   4   7
ENDBRANCH   2   4
TORSDOF 4
ENDMDL
MODEL      137
REMARK 921   NORMALIZED FREE ENERGY PREDICTED BY IDOCK:   -3.22 KCAL/MOL
REMARK 922        TOTAL FREE ENERGY PREDICTED BY IDOCK:   -4.44 KCAL/MOL
REMARK 923 INTER-LIGAND FREE ENERGY PREDICTED BY IDOCK:   -4.13 KCAL/MOL
REMARK 924 INTRA-LIGAND FREE ENERGY PREDICTED BY IDOCK:   -0.31 KCAL/MOL
REMARK 927      BINDING AFFINITY PREDICTED BY RF-SCORE:    0.00 PKD
ROOT
HETATM    1  O   UNL     1      -8.304  11.229  65.177  1.00  0.00    -0.379 OA 
HETATM    2  C   UNL     1      -9.652  11.663  64.972  1.00  0.00    -0.164 C  
HETATM    3  H   UNL     1      -7.758  11.643  64.519  1.00  0.00     0.000 HD 
ENDROOT
BRANCH   2   4
HETATM    4  C   UNL     1     -10.534  10.996  66.033  1.00  0.00    -0.245 C  
HETATM    5  H   UNL     1     -10.234   9.809  67.552  1.00  0.00     0.000 HD 
HETATM    6  O   UNL     1      -9.687  10.223  66.894  1.00  0.00    -0.174 OA 
BRANCH   4   7
HETATM    7  C   UNL     1     -11.333  12.016  66.862  1.00  0.00    -0.341 C  
HETATM    8  H   UNL     1     -12.345  12.033  68.556  1.00  0.00     0.000 HD 
HETATM    9  O   UNL     1     -11.851  11.403  68.043  1.00  0.00    -0.570 OA 
BRANCH   7  10
HETATM   10  C   UNL     1     -10.462  13.238  67.249  1.00  0.00    -0.247 C  
HETATM   11  H   UNL     1      -9.545  13.955  68.879  1.00  0.00     0.000 HD 
HETATM   12  O   UNL     1     -10.079  13.206  68.641  1.00  0.00    -0.219 OA 
BRANCH  10  13
HETATM   13  C   UNL     1     -11.147  14.582  66.971  1.00  0.00    -0.322 C  
HETATM   14  C   UNL     1     -10.186  15.783  66.893  1.00  0.00    -0.280 C  
HETATM   15  O   UNL     1     -12.206  14.781  67.909  1.00  0.00    -0.583 OA 
HETATM   16  O   UNL     1      -9.028  15.558  66.233  1.00  0.00    -0.297 OA 
HETATM   17  O   UNL     1     -10.478  16.886  67.346  1.00  0.00    -0.311 OA 
HETATM   18  H   UNL     1     -12.631  15.614  67.736  1.00  0.00     0.000 HD 
ENDBRANCH  10  13
ENDBRANCH   7  10
ENDBRANCH   4   7
ENDBRANCH   2   4
TORSDOF 4
ENDMDL
MODEL      138
REMARK 921   NORMALIZED FREE ENERGY PREDICTED BY IDOCK:   -3.22 KCAL/MOL
REMARK 922        TOTAL FREE ENERGY PREDICTED BY IDOCK:   -4.44 KCAL/MOL
REMARK 923 INTER-LIGAND FREE ENERGY PREDICTED BY IDOCK:   -4.71 KCAL/MOL
REMARK 924 INTRA-LIGAND FREE ENERGY PREDICTED BY IDOCK:    0.27 KCAL/MOL
REMARK 927      BINDING AFFINITY PREDICTED BY RF-SCORE:    0.00 PKD
ROOT
HETATM    1  O   UNL     1      -9.238  11.745  66.117  1.00  0.00    -0.219 OA 
HETATM    2  C   UNL     1     -10.041  11.309  65.016  1.00  0.00    -0.279 C  
HETATM    3  H   UNL     1      -8.718  11.008  66.414  1.00  0.00     0.000 HD 
ENDROOT
BRANCH   2   4
HETATM    4  C   UNL     1     -10.880  12.498  64.537  1.00  0.00    -0.328 C  
HETATM    5  H   UNL     1     -11.859  12.951  62.911  1.00  0.00     0.000 HD 
HETATM    6  O   UNL     1     -11.339  12.214  63.208  1.00  0.00    -0.400 OA 
BRANCH   4   7
HETATM    7  C   UNL     1     -12.081  12.781  65.456  1.00  0.00    -0.465 C  
HETATM    8  H   UNL     1     -12.703  12.223  67.243  1.00  0.00     0.000 HD 
HETATM    9  O   UNL     1     -11.961  12.048  66.675  1.00  0.00    -0.614 OA 
BRANCH   7  10
HETATM   10  C   UNL     1     -12.212  14.294  65.768  1.00  0.00    -0.403 C  
HETATM   11  H   UNL     1     -11.592  16.032  64.992  1.00  0.00     0.000 HD 
HETATM   12  O   UNL     1     -11.512  15.104  64.801  1.00  0.00    -0.398 OA 
BRANCH  10  13
HETATM   13  C   UNL     1     -11.705  14.669  67.166  1.00  0.00    -0.373 C  
HETATM   14  C   UNL     1     -10.186  14.506  67.359  1.00  0.00    -0.240 C  
HETATM   15  O   UNL     1     -12.466  13.971  68.153  1.00  0.00    -0.497 OA 
HETATM   16  O   UNL     1      -9.422  14.913  66.320  1.00  0.00    -0.279 OA 
HETATM   17  O   UNL     1      -9.699  14.091  68.407  1.00  0.00    -0.217 OA 
HETATM   18  H   UNL     1     -12.152  14.204  69.019  1.00  0.00     0.000 HD 
ENDBRANCH  10  13
ENDBRANCH   7  10
ENDBRANCH   4   7
ENDBRANCH   2   4
TORSDOF 4
ENDMDL
MODEL      139
REMARK 921   NORMALIZED FREE ENERGY PREDICTED BY IDOCK:   -3.22 KCAL/MOL
REMARK 922        TOTAL FREE ENERGY PREDICTED BY IDOCK:   -4.44 KCAL/MOL
REMARK 923 INTER-LIGAND FREE ENERGY PREDICTED BY IDOCK:   -4.34 KCAL/MOL
REMARK 924 INTRA-LIGAND FREE ENERGY PREDICTED BY IDOCK:   -0.10 KCAL/MOL
REMARK 927      BINDING AFFINITY PREDICTED BY RF-SCORE:    0.00 PKD
ROOT
HETATM    1  O   UNL     1      -9.220  12.001  63.033  1.00  0.00    -0.647 OA 
HETATM    2  C   UNL     1     -10.388  11.423  63.623  1.00  0.00    -0.410 C  
HETATM    3  H   UNL     1      -9.280  11.893  62.092  1.00  0.00     0.000 HD 
ENDROOT
BRANCH   2   4
HETATM    4  C   UNL     1     -10.292  11.598  65.142  1.00  0.00    -0.279 C  
HETATM    5  H   UNL     1      -8.956  11.208  66.510  1.00  0.00     0.000 HD 
HETATM    6  O   UNL     1      -9.015  11.100  65.568  1.00  0.00    -0.200 OA 
BRANCH   4   7
HETATM    7  C   UNL     1     -10.453  13.065  65.579  1.00  0.00    -0.285 C  
HETATM    8  H   UNL     1     -10.920  14.785  64.736  1.00  0.00     0.000 HD 
HETATM    9  O   UNL     1     -10.820  13.880  64.466  1.00  0.00    -0.398 OA 
BRANCH   7  10
HETATM   10  C   UNL     1     -11.511  13.208  66.703  1.00  0.00    -0.348 C  
HETATM   11  H   UNL     1     -13.288  14.092  66.968  1.00  0.00     0.000 HD 
HETATM   12  O   UNL     1     -12.638  14.004  66.280  1.00  0.00    -0.451 OA 
BRANCH  10  13
HETATM   13  C   UNL     1     -10.947  13.821  67.991  1.00  0.00    -0.250 C  
HETATM   14  C   UNL     1     -10.205  15.156  67.790  1.00  0.00    -0.236 C  
HETATM   15  O   UNL     1     -10.158  12.847  68.677  1.00  0.00    -0.336 OA 
HETATM   16  O   UNL     1     -10.786  16.018  66.926  1.00  0.00    -0.314 OA 
HETATM   17  O   UNL     1      -9.189  15.442  68.418  1.00  0.00    -0.184 OA 
HETATM   18  H   UNL     1      -9.809  13.227  69.475  1.00  0.00     0.000 HD 
ENDBRANCH  10  13
ENDBRANCH   7  10
ENDBRANCH   4   7
ENDBRANCH   2   4
TORSDOF 4
ENDMDL
MODEL      140
REMARK 921   NORMALIZED FREE ENERGY PREDICTED BY IDOCK:   -3.21 KCAL/MOL
REMARK 922        TOTAL FREE ENERGY PREDICTED BY IDOCK:   -4.43 KCAL/MOL
REMARK 923 INTER-LIGAND FREE ENERGY PREDICTED BY IDOCK:   -4.12 KCAL/MOL
REMARK 924 INTRA-LIGAND FREE ENERGY PREDICTED BY IDOCK:   -0.31 KCAL/MOL
REMARK 927      BINDING AFFINITY PREDICTED BY RF-SCORE:    0.00 PKD
ROOT
HETATM    1  O   UNL     1     -11.582   6.572  67.229  1.00  0.00    -0.737 OA 
HETATM    2  C   UNL     1     -10.271   6.261  67.710  1.00  0.00    -0.170 C  
HETATM    3  H   UNL     1     -11.805   5.944  66.553  1.00  0.00     0.000 HD 
ENDROOT
BRANCH   2   4
HETATM    4  C   UNL     1      -9.911   7.274  68.802  1.00  0.00    -0.166 C  
HETATM    5  H   UNL     1      -9.562   9.193  68.865  1.00  0.00     0.000 HD 
HETATM    6  O   UNL     1      -9.785   8.565  68.189  1.00  0.00    -0.148 OA 
BRANCH   4   7
HETATM    7  C   UNL     1     -10.961   7.330  69.925  1.00  0.00    -0.243 C  
HETATM    8  H   UNL     1     -12.036   6.047  70.969  1.00  0.00     0.000 HD 
HETATM    9  O   UNL     1     -11.388   6.013  70.275  1.00  0.00    -0.353 OA 
BRANCH   7  10
HETATM   10  C   UNL     1     -10.410   8.050  71.181  1.00  0.00    -0.197 C  
HETATM   11  H   UNL     1     -10.234   7.694  73.144  1.00  0.00     0.000 HD 
HETATM   12  O   UNL     1     -10.572   7.252  72.373  1.00  0.00    -0.217 OA 
BRANCH  10  13
HETATM   13  C   UNL     1     -11.058   9.418  71.428  1.00  0.00    -0.380 C  
HETATM   14  C   UNL     1     -12.597   9.395  71.479  1.00  0.00    -0.362 C  
HETATM   15  O   UNL     1     -10.550  10.364  70.485  1.00  0.00    -0.424 OA 
HETATM   16  O   UNL     1     -13.140   8.351  72.145  1.00  0.00    -0.339 OA 
HETATM   17  O   UNL     1     -13.282  10.294  71.000  1.00  0.00    -0.389 OA 
HETATM   18  H   UNL     1     -10.952  11.212  70.638  1.00  0.00     0.000 HD 
ENDBRANCH  10  13
ENDBRANCH   7  10
ENDBRANCH   4   7
ENDBRANCH   2   4
TORSDOF 4
ENDMDL
MODEL      141
REMARK 921   NORMALIZED FREE ENERGY PREDICTED BY IDOCK:   -3.21 KCAL/MOL
REMARK 922        TOTAL FREE ENERGY PREDICTED BY IDOCK:   -4.42 KCAL/MOL
REMARK 923 INTER-LIGAND FREE ENERGY PREDICTED BY IDOCK:   -4.20 KCAL/MOL
REMARK 924 INTRA-LIGAND FREE ENERGY PREDICTED BY IDOCK:   -0.23 KCAL/MOL
REMARK 927      BINDING AFFINITY PREDICTED BY RF-SCORE:    0.00 PKD
ROOT
HETATM    1  O   UNL     1     -12.617  13.937  62.957  1.00  0.00    -1.030 OA 
HETATM    2  C   UNL     1     -12.227  13.930  64.333  1.00  0.00    -0.413 C  
HETATM    3  H   UNL     1     -12.964  14.796  62.752  1.00  0.00     0.000 HD 
ENDROOT
BRANCH   2   4
HETATM    4  C   UNL     1     -11.666  12.542  64.663  1.00  0.00    -0.359 C  
HETATM    5  H   UNL     1     -10.290  11.380  63.915  1.00  0.00     0.000 HD 
HETATM    6  O   UNL     1     -10.637  12.240  63.711  1.00  0.00    -0.379 OA 
BRANCH   4   7
HETATM    7  C   UNL     1     -11.099  12.459  66.091  1.00  0.00    -0.302 C  
HETATM    8  H   UNL     1     -11.726  12.832  67.924  1.00  0.00     0.000 HD 
HETATM    9  O   UNL     1     -12.076  12.884  67.042  1.00  0.00    -0.376 OA 
BRANCH   7  10
HETATM   10  C   UNL     1     -10.630  11.022  66.432  1.00  0.00    -0.251 C  
HETATM   11  H   UNL     1     -11.069   9.590  67.761  1.00  0.00     0.000 HD 
HETATM   12  O   UNL     1     -11.356  10.472  67.552  1.00  0.00    -0.396 OA 
BRANCH  10  13
HETATM   13  C   UNL     1      -9.131  10.931  66.740  1.00  0.00    -0.152 C  
HETATM   14  C   UNL     1      -8.447   9.655  66.213  1.00  0.00    -0.119 C  
HETATM   15  O   UNL     1      -8.917  11.136  68.138  1.00  0.00    -0.146 OA 
HETATM   16  O   UNL     1      -8.825   9.263  64.975  1.00  0.00    -0.182 OA 
HETATM   17  O   UNL     1      -7.576   9.069  66.848  1.00  0.00    -0.092 OA 
HETATM   18  H   UNL     1      -7.988  11.080  68.328  1.00  0.00     0.000 HD 
ENDBRANCH  10  13
ENDBRANCH   7  10
ENDBRANCH   4   7
ENDBRANCH   2   4
TORSDOF 4
ENDMDL
MODEL      142
REMARK 921   NORMALIZED FREE ENERGY PREDICTED BY IDOCK:   -3.20 KCAL/MOL
REMARK 922        TOTAL FREE ENERGY PREDICTED BY IDOCK:   -4.42 KCAL/MOL
REMARK 923 INTER-LIGAND FREE ENERGY PREDICTED BY IDOCK:   -4.01 KCAL/MOL
REMARK 924 INTRA-LIGAND FREE ENERGY PREDICTED BY IDOCK:   -0.42 KCAL/MOL
REMARK 927      BINDING AFFINITY PREDICTED BY RF-SCORE:    0.00 PKD
ROOT
HETATM    1  O   UNL     1     -10.035  13.735  64.806  1.00  0.00    -0.617 OA 
HETATM    2  C   UNL     1      -9.854  14.825  65.715  1.00  0.00    -0.342 C  
HETATM    3  H   UNL     1     -10.246  14.093  63.953  1.00  0.00     0.000 HD 
ENDROOT
BRANCH   2   4
HETATM    4  C   UNL     1      -9.512  14.247  67.092  1.00  0.00    -0.227 C  
HETATM    5  H   UNL     1      -7.878  13.956  68.117  1.00  0.00     0.000 HD 
HETATM    6  O   UNL     1      -8.089  14.315  67.264  1.00  0.00    -0.188 OA 
BRANCH   4   7
HETATM    7  C   UNL     1     -10.214  14.996  68.238  1.00  0.00    -0.222 C  
HETATM    8  H   UNL     1     -11.223  16.676  68.468  1.00  0.00     0.000 HD 
HETATM    9  O   UNL     1     -10.789  16.213  67.760  1.00  0.00    -0.321 OA 
BRANCH   7  10
HETATM   10  C   UNL     1     -11.312  14.124  68.897  1.00  0.00    -0.277 C  
HETATM   11  H   UNL     1     -13.161  13.485  68.468  1.00  0.00     0.000 HD 
HETATM   12  O   UNL     1     -12.487  14.020  68.064  1.00  0.00    -0.110 OA 
BRANCH  10  13
HETATM   13  C   UNL     1     -11.745  14.636  70.276  1.00  0.00    -0.297 C  
HETATM   14  C   UNL     1     -12.724  13.709  71.022  1.00  0.00    -0.332 C  
HETATM   15  O   UNL     1     -12.233  15.974  70.157  1.00  0.00    -0.356 OA 
HETATM   16  O   UNL     1     -12.450  12.387  70.937  1.00  0.00    -0.371 OA 
HETATM   17  O   UNL     1     -13.652  14.144  71.697  1.00  0.00    -0.347 OA 
HETATM   18  H   UNL     1     -12.501  16.291  71.012  1.00  0.00     0.000 HD 
ENDBRANCH  10  13
ENDBRANCH   7  10
ENDBRANCH   4   7
ENDBRANCH   2   4
TORSDOF 4
ENDMDL
MODEL      143
REMARK 921   NORMALIZED FREE ENERGY PREDICTED BY IDOCK:   -3.20 KCAL/MOL
REMARK 922        TOTAL FREE ENERGY PREDICTED BY IDOCK:   -4.42 KCAL/MOL
REMARK 923 INTER-LIGAND FREE ENERGY PREDICTED BY IDOCK:   -4.23 KCAL/MOL
REMARK 924 INTRA-LIGAND FREE ENERGY PREDICTED BY IDOCK:   -0.19 KCAL/MOL
REMARK 927      BINDING AFFINITY PREDICTED BY RF-SCORE:    0.00 PKD
ROOT
HETATM    1  O   UNL     1     -10.656  18.121  67.298  1.00  0.00    -0.393 OA 
HETATM    2  C   UNL     1     -10.546  19.447  66.773  1.00  0.00    -0.472 C  
HETATM    3  H   UNL     1     -11.226  17.623  66.724  1.00  0.00     0.000 HD 
ENDROOT
BRANCH   2   4
HETATM    4  C   UNL     1      -9.627  20.251  67.699  1.00  0.00    -0.395 C  
HETATM    5  H   UNL     1      -9.273  20.297  69.617  1.00  0.00     0.000 HD 
HETATM    6  O   UNL     1      -9.842  19.799  69.044  1.00  0.00    -0.404 OA 
BRANCH   4   7
HETATM    7  C   UNL     1      -8.141  20.104  67.330  1.00  0.00    -0.330 C  
HETATM    8  H   UNL     1      -6.547  21.263  67.240  1.00  0.00     0.000 HD 
HETATM    9  O   UNL     1      -7.465  21.354  67.468  1.00  0.00    -0.411 OA 
BRANCH   7  10
HETATM   10  C   UNL     1      -7.442  19.034  68.207  1.00  0.00    -0.292 C  
HETATM   11  H   UNL     1      -6.368  18.964  69.895  1.00  0.00     0.000 HD 
HETATM   12  O   UNL     1      -6.797  19.620  69.357  1.00  0.00    -0.340 OA 
BRANCH  10  13
HETATM   13  C   UNL     1      -6.400  18.209  67.440  1.00  0.00    -0.172 C  
HETATM   14  C   UNL     1      -6.976  16.996  66.687  1.00  0.00    -0.249 C  
HETATM   15  O   UNL     1      -5.329  17.858  68.319  1.00  0.00    -0.151 OA 
HETATM   16  O   UNL     1      -8.149  17.211  66.050  1.00  0.00    -0.465 OA 
HETATM   17  O   UNL     1      -6.381  15.924  66.618  1.00  0.00    -0.157 OA 
HETATM   18  H   UNL     1      -4.684  17.347  67.844  1.00  0.00     0.000 HD 
ENDBRANCH  10  13
ENDBRANCH   7  10
ENDBRANCH   4   7
ENDBRANCH   2   4
TORSDOF 4
ENDMDL
MODEL      144
REMARK 921   NORMALIZED FREE ENERGY PREDICTED BY IDOCK:   -3.19 KCAL/MOL
REMARK 922        TOTAL FREE ENERGY PREDICTED BY IDOCK:   -4.40 KCAL/MOL
REMARK 923 INTER-LIGAND FREE ENERGY PREDICTED BY IDOCK:   -4.17 KCAL/MOL
REMARK 924 INTRA-LIGAND FREE ENERGY PREDICTED BY IDOCK:   -0.23 KCAL/MOL
REMARK 927      BINDING AFFINITY PREDICTED BY RF-SCORE:    0.00 PKD
ROOT
HETATM    1  O   UNL     1     -12.013  10.517  68.078  1.00  0.00    -0.758 OA 
HETATM    2  C   UNL     1     -12.156  10.782  69.477  1.00  0.00    -0.272 C  
HETATM    3  H   UNL     1     -12.538   9.755  67.866  1.00  0.00     0.000 HD 
ENDROOT
BRANCH   2   4
HETATM    4  C   UNL     1     -11.308  12.012  69.819  1.00  0.00    -0.126 C  
HETATM    5  H   UNL     1      -9.921  13.045  68.916  1.00  0.00     0.000 HD 
HETATM    6  O   UNL     1     -10.446  12.283  68.704  1.00  0.00    -0.227 OA 
BRANCH   4   7
HETATM    7  C   UNL     1     -12.165  13.251  70.131  1.00  0.00    -0.306 C  
HETATM    8  H   UNL     1     -13.380  13.849  71.566  1.00  0.00     0.000 HD 
HETATM    9  O   UNL     1     -12.851  13.083  71.373  1.00  0.00    -0.363 OA 
BRANCH   7  10
HETATM   10  C   UNL     1     -11.303  14.538  70.181  1.00  0.00    -0.197 C  
HETATM   11  H   UNL     1     -10.814  15.950  71.514  1.00  0.00     0.000 HD 
HETATM   12  O   UNL     1     -11.343  15.160  71.483  1.00  0.00    -0.365 OA 
BRANCH  10  13
HETATM   13  C   UNL     1     -11.714  15.583  69.137  1.00  0.00    -0.365 C  
HETATM   14  C   UNL     1     -10.576  16.518  68.688  1.00  0.00    -0.316 C  
HETATM   15  O   UNL     1     -12.864  16.293  69.599  1.00  0.00    -0.370 OA 
HETATM   16  O   UNL     1      -9.378  15.922  68.494  1.00  0.00    -0.195 OA 
HETATM   17  O   UNL     1     -10.758  17.711  68.463  1.00  0.00    -0.311 OA 
HETATM   18  H   UNL     1     -13.119  16.940  68.952  1.00  0.00     0.000 HD 
ENDBRANCH  10  13
ENDBRANCH   7  10
ENDBRANCH   4   7
ENDBRANCH   2   4
TORSDOF 4
ENDMDL
MODEL      145
REMARK 921   NORMALIZED FREE ENERGY PREDICTED BY IDOCK:   -3.19 KCAL/MOL
REMARK 922        TOTAL FREE ENERGY PREDICTED BY IDOCK:   -4.40 KCAL/MOL
REMARK 923 INTER-LIGAND FREE ENERGY PREDICTED BY IDOCK:   -3.99 KCAL/MOL
REMARK 924 INTRA-LIGAND FREE ENERGY PREDICTED BY IDOCK:   -0.42 KCAL/MOL
REMARK 927      BINDING AFFINITY PREDICTED BY RF-SCORE:    0.00 PKD
ROOT
HETATM    1  O   UNL     1      -8.832  13.198  66.058  1.00  0.00    -0.384 OA 
HETATM    2  C   UNL     1      -9.710  14.156  66.657  1.00  0.00    -0.288 C  
HETATM    3  H   UNL     1      -8.642  13.484  65.173  1.00  0.00     0.000 HD 
ENDROOT
BRANCH   2   4
HETATM    4  C   UNL     1     -10.016  13.693  68.086  1.00  0.00    -0.246 C  
HETATM    5  H   UNL     1     -10.478  14.570  69.767  1.00  0.00     0.000 HD 
HETATM    6  O   UNL     1     -10.288  14.856  68.881  1.00  0.00    -0.230 OA 
BRANCH   4   7
HETATM    7  C   UNL     1     -11.210  12.725  68.150  1.00  0.00    -0.272 C  
HETATM    8  H   UNL     1     -12.618  12.076  66.930  1.00  0.00     0.000 HD 
HETATM    9  O   UNL     1     -11.880  12.674  66.890  1.00  0.00    -0.381 OA 
BRANCH   7  10
HETATM   10  C   UNL     1     -10.762  11.299  68.559  1.00  0.00    -0.201 C  
HETATM   11  H   UNL     1     -10.691   9.471  67.746  1.00  0.00     0.000 HD 
HETATM   12  O   UNL     1     -10.966  10.346  67.495  1.00  0.00    -0.291 OA 
BRANCH  10  13
HETATM   13  C   UNL     1     -11.473  10.778  69.814  1.00  0.00    -0.311 C  
HETATM   14  C   UNL     1     -10.905   9.458  70.368  1.00  0.00    -0.269 C  
HETATM   15  O   UNL     1     -12.881  10.717  69.574  1.00  0.00    -0.608 OA 
HETATM   16  O   UNL     1      -9.556   9.360  70.365  1.00  0.00    -0.230 OA 
HETATM   17  O   UNL     1     -11.624   8.580  70.835  1.00  0.00    -0.276 OA 
HETATM   18  H   UNL     1     -13.321  10.394  70.352  1.00  0.00     0.000 HD 
ENDBRANCH  10  13
ENDBRANCH   7  10
ENDBRANCH   4   7
ENDBRANCH   2   4
TORSDOF 4
ENDMDL
MODEL      146
REMARK 921   NORMALIZED FREE ENERGY PREDICTED BY IDOCK:   -3.17 KCAL/MOL
REMARK 922        TOTAL FREE ENERGY PREDICTED BY IDOCK:   -4.39 KCAL/MOL
REMARK 923 INTER-LIGAND FREE ENERGY PREDICTED BY IDOCK:   -4.37 KCAL/MOL
REMARK 924 INTRA-LIGAND FREE ENERGY PREDICTED BY IDOCK:   -0.02 KCAL/MOL
REMARK 927      BINDING AFFINITY PREDICTED BY RF-SCORE:    0.00 PKD
ROOT
HETATM    1  O   UNL     1     -12.030  16.132  63.688  1.00  0.00    -1.375 OA 
HETATM    2  C   UNL     1     -12.250  14.723  63.574  1.00  0.00     0.688 C  
HETATM    3  H   UNL     1     -11.944  16.489  62.812  1.00  0.00     0.000 HD 
ENDROOT
BRANCH   2   4
HETATM    4  C   UNL     1     -12.390  14.147  64.988  1.00  0.00    -0.440 C  
HETATM    5  H   UNL     1     -13.177  12.542  65.769  1.00  0.00     0.000 HD 
HETATM    6  O   UNL     1     -13.090  12.898  64.893  1.00  0.00    -0.799 OA 
BRANCH   4   7
HETATM    7  C   UNL     1     -11.030  13.933  65.675  1.00  0.00    -0.290 C  
HETATM    8  H   UNL     1      -9.160  13.626  65.126  1.00  0.00     0.000 HD 
HETATM    9  O   UNL     1     -10.000  13.757  64.701  1.00  0.00    -0.277 OA 
BRANCH   7  10
HETATM   10  C   UNL     1     -10.672  15.120  66.604  1.00  0.00    -0.310 C  
HETATM   11  H   UNL     1      -9.133  16.367  66.899  1.00  0.00     0.000 HD 
HETATM   12  O   UNL     1      -9.353  15.638  66.329  1.00  0.00    -0.268 OA 
BRANCH  10  13
HETATM   13  C   UNL     1     -10.747  14.766  68.095  1.00  0.00    -0.247 C  
HETATM   14  C   UNL     1     -10.170  13.384  68.452  1.00  0.00    -0.251 C  
HETATM   15  O   UNL     1     -12.086  14.944  68.561  1.00  0.00    -0.542 OA 
HETATM   16  O   UNL     1      -9.022  13.053  67.820  1.00  0.00    -0.171 OA 
HETATM   17  O   UNL     1     -10.685  12.657  69.298  1.00  0.00    -0.084 OA 
HETATM   18  H   UNL     1     -12.133  14.725  69.484  1.00  0.00     0.000 HD 
ENDBRANCH  10  13
ENDBRANCH   7  10
ENDBRANCH   4   7
ENDBRANCH   2   4
TORSDOF 4
ENDMDL
MODEL      147
REMARK 921   NORMALIZED FREE ENERGY PREDICTED BY IDOCK:   -3.15 KCAL/MOL
REMARK 922        TOTAL FREE ENERGY PREDICTED BY IDOCK:   -4.35 KCAL/MOL
REMARK 923 INTER-LIGAND FREE ENERGY PREDICTED BY IDOCK:   -3.84 KCAL/MOL
REMARK 924 INTRA-LIGAND FREE ENERGY PREDICTED BY IDOCK:   -0.52 KCAL/MOL
REMARK 927      BINDING AFFINITY PREDICTED BY RF-SCORE:    0.00 PKD
ROOT
HETATM    1  O   UNL     1     -11.535  12.912  69.905  1.00  0.00    -0.484 OA 
HETATM    2  C   UNL     1     -12.056  11.657  70.349  1.00  0.00    -0.373 C  
HETATM    3  H   UNL     1     -11.640  13.542  70.608  1.00  0.00     0.000 HD 
ENDROOT
BRANCH   2   4
HETATM    4  C   UNL     1     -11.886  10.641  69.214  1.00  0.00    -0.237 C  
HETATM    5  H   UNL     1     -12.067  10.676  67.272  1.00  0.00     0.000 HD 
HETATM    6  O   UNL     1     -12.172  11.306  67.975  1.00  0.00    -0.621 OA 
BRANCH   4   7
HETATM    7  C   UNL     1     -10.473  10.036  69.170  1.00  0.00    -0.219 C  
HETATM    8  H   UNL     1      -8.640  10.661  68.794  1.00  0.00     0.000 HD 
HETATM    9  O   UNL     1      -9.513  11.035  68.821  1.00  0.00    -0.189 OA 
BRANCH   7  10
HETATM   10  C   UNL     1     -10.088   9.395  70.527  1.00  0.00    -0.275 C  
HETATM   11  H   UNL     1      -8.421   8.877  71.508  1.00  0.00     0.000 HD 
HETATM   12  O   UNL     1      -8.657   9.271  70.676  1.00  0.00    -0.202 OA 
BRANCH  10  13
HETATM   13  C   UNL     1     -10.715   8.012  70.742  1.00  0.00    -0.223 C  
HETATM   14  C   UNL     1     -11.339   7.804  72.134  1.00  0.00    -0.302 C  
HETATM   15  O   UNL     1      -9.764   6.999  70.406  1.00  0.00    -0.176 OA 
HETATM   16  O   UNL     1     -12.037   8.856  72.620  1.00  0.00    -0.272 OA 
HETATM   17  O   UNL     1     -11.260   6.737  72.736  1.00  0.00    -0.262 OA 
HETATM   18  H   UNL     1     -10.152   6.142  70.539  1.00  0.00     0.000 HD 
ENDBRANCH  10  13
ENDBRANCH   7  10
ENDBRANCH   4   7
ENDBRANCH   2   4
TORSDOF 4
ENDMDL
MODEL      148
REMARK 921   NORMALIZED FREE ENERGY PREDICTED BY IDOCK:   -3.14 KCAL/MOL
REMARK 922        TOTAL FREE ENERGY PREDICTED BY IDOCK:   -4.34 KCAL/MOL
REMARK 923 INTER-LIGAND FREE ENERGY PREDICTED BY IDOCK:   -3.82 KCAL/MOL
REMARK 924 INTRA-LIGAND FREE ENERGY PREDICTED BY IDOCK:   -0.53 KCAL/MOL
REMARK 927      BINDING AFFINITY PREDICTED BY RF-SCORE:    0.00 PKD
ROOT
HETATM    1  O   UNL     1      -9.008  16.481  67.181  1.00  0.00    -0.198 OA 
HETATM    2  C   UNL     1      -9.122  15.253  67.906  1.00  0.00    -0.175 C  
HETATM    3  H   UNL     1      -8.109  16.779  67.245  1.00  0.00     0.000 HD 
ENDROOT
BRANCH   2   4
HETATM    4  C   UNL     1     -10.573  14.770  67.803  1.00  0.00    -0.257 C  
HETATM    5  H   UNL     1     -12.333  15.594  67.980  1.00  0.00     0.000 HD 
HETATM    6  O   UNL     1     -11.434  15.893  68.044  1.00  0.00    -0.328 OA 
BRANCH   4   7
HETATM    7  C   UNL     1     -10.893  14.150  66.433  1.00  0.00    -0.304 C  
HETATM    8  H   UNL     1     -10.074  14.096  64.639  1.00  0.00     0.000 HD 
HETATM    9  O   UNL     1      -9.876  14.480  65.486  1.00  0.00    -0.338 OA 
BRANCH   7  10
HETATM   10  C   UNL     1     -11.036  12.609  66.528  1.00  0.00    -0.280 C  
HETATM   11  H   UNL     1     -12.352  11.202  65.982  1.00  0.00     0.000 HD 
HETATM   12  O   UNL     1     -12.263  12.147  65.924  1.00  0.00    -0.604 OA 
BRANCH  10  13
HETATM   13  C   UNL     1     -10.981  12.084  67.967  1.00  0.00    -0.223 C  
HETATM   14  C   UNL     1      -9.726  11.255  68.296  1.00  0.00    -0.198 C  
HETATM   15  O   UNL     1     -12.195  11.394  68.270  1.00  0.00    -0.588 OA 
HETATM   16  O   UNL     1      -8.566  11.734  67.793  1.00  0.00    -0.139 OA 
HETATM   17  O   UNL     1      -9.767  10.261  69.016  1.00  0.00    -0.184 OA 
HETATM   18  H   UNL     1     -12.161  11.068  69.163  1.00  0.00     0.000 HD 
ENDBRANCH  10  13
ENDBRANCH   7  10
ENDBRANCH   4   7
ENDBRANCH   2   4
TORSDOF 4
ENDMDL
MODEL      149
REMARK 921   NORMALIZED FREE ENERGY PREDICTED BY IDOCK:   -3.13 KCAL/MOL
REMARK 922        TOTAL FREE ENERGY PREDICTED BY IDOCK:   -4.34 KCAL/MOL
REMARK 923 INTER-LIGAND FREE ENERGY PREDICTED BY IDOCK:   -3.87 KCAL/MOL
REMARK 924 INTRA-LIGAND FREE ENERGY PREDICTED BY IDOCK:   -0.47 KCAL/MOL
REMARK 927      BINDING AFFINITY PREDICTED BY RF-SCORE:    0.00 PKD
ROOT
HETATM    1  O   UNL     1      -8.992  16.929  65.799  1.00  0.00    -0.524 OA 
HETATM    2  C   UNL     1      -8.595  16.126  66.914  1.00  0.00    -0.221 C  
HETATM    3  H   UNL     1      -8.732  17.825  65.973  1.00  0.00     0.000 HD 
ENDROOT
BRANCH   2   4
HETATM    4  C   UNL     1      -9.015  14.679  66.633  1.00  0.00    -0.238 C  
HETATM    5  H   UNL     1      -8.290  12.912  67.033  1.00  0.00     0.000 HD 
HETATM    6  O   UNL     1      -8.029  13.809  67.207  1.00  0.00    -0.169 OA 
BRANCH   4   7
HETATM    7  C   UNL     1     -10.404  14.346  67.206  1.00  0.00    -0.260 C  
HETATM    8  H   UNL     1     -12.152  15.243  67.384  1.00  0.00     0.000 HD 
HETATM    9  O   UNL     1     -11.294  15.449  67.031  1.00  0.00    -0.288 OA 
BRANCH   7  10
HETATM   10  C   UNL     1     -11.003  13.081  66.540  1.00  0.00    -0.285 C  
HETATM   11  H   UNL     1     -12.753  12.498  65.761  1.00  0.00     0.000 HD 
HETATM   12  O   UNL     1     -12.385  13.274  66.169  1.00  0.00    -0.412 OA 
BRANCH  10  13
HETATM   13  C   UNL     1     -10.913  11.831  67.425  1.00  0.00    -0.262 C  
HETATM   14  C   UNL     1     -10.331  10.592  66.720  1.00  0.00    -0.245 C  
HETATM   15  O   UNL     1     -12.185  11.580  68.026  1.00  0.00    -0.582 OA 
HETATM   16  O   UNL     1      -9.272  10.827  65.912  1.00  0.00    -0.176 OA 
HETATM   17  O   UNL     1     -10.761   9.460  66.923  1.00  0.00    -0.205 OA 
HETATM   18  H   UNL     1     -12.128  10.805  68.575  1.00  0.00     0.000 HD 
ENDBRANCH  10  13
ENDBRANCH   7  10
ENDBRANCH   4   7
ENDBRANCH   2   4
TORSDOF 4
ENDMDL
MODEL      150
REMARK 921   NORMALIZED FREE ENERGY PREDICTED BY IDOCK:   -3.13 KCAL/MOL
REMARK 922        TOTAL FREE ENERGY PREDICTED BY IDOCK:   -4.33 KCAL/MOL
REMARK 923 INTER-LIGAND FREE ENERGY PREDICTED BY IDOCK:   -4.14 KCAL/MOL
REMARK 924 INTRA-LIGAND FREE ENERGY PREDICTED BY IDOCK:   -0.18 KCAL/MOL
REMARK 927      BINDING AFFINITY PREDICTED BY RF-SCORE:    0.00 PKD
ROOT
HETATM    1  O   UNL     1      -9.721   5.489  73.290  1.00  0.00    -0.149 OA 
HETATM    2  C   UNL     1      -8.843   6.545  72.890  1.00  0.00    -0.122 C  
HETATM    3  H   UNL     1      -9.228   4.678  73.289  1.00  0.00     0.000 HD 
ENDROOT
BRANCH   2   4
HETATM    4  C   UNL     1      -9.639   7.854  72.893  1.00  0.00    -0.264 C  
HETATM    5  H   UNL     1      -9.226   9.739  72.603  1.00  0.00     0.000 HD 
HETATM    6  O   UNL     1      -8.732   8.928  72.601  1.00  0.00    -0.373 OA 
BRANCH   4   7
HETATM    7  C   UNL     1     -10.789   7.848  71.872  1.00  0.00    -0.243 C  
HETATM    8  H   UNL     1     -12.555   6.991  71.683  1.00  0.00     0.000 HD 
HETATM    9  O   UNL     1     -11.844   6.994  72.313  1.00  0.00    -0.277 OA 
BRANCH   7  10
HETATM   10  C   UNL     1     -11.341   9.277  71.631  1.00  0.00    -0.397 C  
HETATM   11  H   UNL     1     -13.112  10.210  71.653  1.00  0.00     0.000 HD 
HETATM   12  O   UNL     1     -12.773   9.334  71.800  1.00  0.00    -0.330 OA 
BRANCH  10  13
HETATM   13  C   UNL     1     -10.998   9.832  70.243  1.00  0.00    -0.298 C  
HETATM   14  C   UNL     1     -11.845  11.045  69.815  1.00  0.00    -0.347 C  
HETATM   15  O   UNL     1     -11.025   8.773  69.285  1.00  0.00    -0.404 OA 
HETATM   16  O   UNL     1     -12.077  11.962  70.782  1.00  0.00    -0.357 OA 
HETATM   17  O   UNL     1     -12.231  11.200  68.660  1.00  0.00    -0.582 OA 
HETATM   18  H   UNL     1     -10.812   9.117  68.425  1.00  0.00     0.000 HD 
ENDBRANCH  10  13
ENDBRANCH   7  10
ENDBRANCH   4   7
ENDBRANCH   2   4
TORSDOF 4
ENDMDL
MODEL      151
REMARK 921   NORMALIZED FREE ENERGY PREDICTED BY IDOCK:   -3.12 KCAL/MOL
REMARK 922        TOTAL FREE ENERGY PREDICTED BY IDOCK:   -4.31 KCAL/MOL
REMARK 923 INTER-LIGAND FREE ENERGY PREDICTED BY IDOCK:   -4.34 KCAL/MOL
REMARK 924 INTRA-LIGAND FREE ENERGY PREDICTED BY IDOCK:    0.02 KCAL/MOL
REMARK 927      BINDING AFFINITY PREDICTED BY RF-SCORE:    0.00 PKD
ROOT
HETATM    1  O   UNL     1     -11.523   9.541  69.060  1.00  0.00    -0.452 OA 
HETATM    2  C   UNL     1     -10.709  10.715  69.121  1.00  0.00    -0.228 C  
HETATM    3  H   UNL     1     -10.951   8.783  69.058  1.00  0.00     0.000 HD 
ENDROOT
BRANCH   2   4
HETATM    4  C   UNL     1     -11.633  11.937  69.124  1.00  0.00    -0.312 C  
HETATM    5  H   UNL     1     -12.722  12.859  70.454  1.00  0.00     0.000 HD 
HETATM    6  O   UNL     1     -12.149  12.102  70.452  1.00  0.00    -0.354 OA 
BRANCH   4   7
HETATM    7  C   UNL     1     -10.914  13.222  68.679  1.00  0.00    -0.264 C  
HETATM    8  H   UNL     1      -9.669  13.766  67.248  1.00  0.00     0.000 HD 
HETATM    9  O   UNL     1     -10.113  12.972  67.524  1.00  0.00    -0.214 OA 
BRANCH   7  10
HETATM   10  C   UNL     1     -11.923  14.360  68.376  1.00  0.00    -0.293 C  
HETATM   11  H   UNL     1     -12.094  15.896  67.105  1.00  0.00     0.000 HD 
HETATM   12  O   UNL     1     -11.476  15.199  67.290  1.00  0.00    -0.345 OA 
BRANCH  10  13
HETATM   13  C   UNL     1     -12.206  15.255  69.589  1.00  0.00    -0.271 C  
HETATM   14  C   UNL     1     -11.041  15.361  70.590  1.00  0.00    -0.335 C  
HETATM   15  O   UNL     1     -13.430  14.850  70.206  1.00  0.00    -0.589 OA 
HETATM   16  O   UNL     1      -9.811  15.477  70.039  1.00  0.00    -0.283 OA 
HETATM   17  O   UNL     1     -11.221  15.398  71.804  1.00  0.00    -0.398 OA 
HETATM   18  H   UNL     1     -13.606  15.405  70.957  1.00  0.00     0.000 HD 
ENDBRANCH  10  13
ENDBRANCH   7  10
ENDBRANCH   4   7
ENDBRANCH   2   4
TORSDOF 4
ENDMDL
MODEL      152
REMARK 921   NORMALIZED FREE ENERGY PREDICTED BY IDOCK:   -3.11 KCAL/MOL
REMARK 922        TOTAL FREE ENERGY PREDICTED BY IDOCK:   -4.31 KCAL/MOL
REMARK 923 INTER-LIGAND FREE ENERGY PREDICTED BY IDOCK:   -3.97 KCAL/MOL
REMARK 924 INTRA-LIGAND FREE ENERGY PREDICTED BY IDOCK:   -0.34 KCAL/MOL
REMARK 927      BINDING AFFINITY PREDICTED BY RF-SCORE:    0.00 PKD
ROOT
HETATM    1  O   UNL     1     -10.029   4.530  68.877  1.00  0.00    -0.149 OA 
HETATM    2  C   UNL     1     -10.567   5.651  69.585  1.00  0.00    -0.331 C  
HETATM    3  H   UNL     1     -10.155   4.679  67.948  1.00  0.00     0.000 HD 
ENDROOT
BRANCH   2   4
HETATM    4  C   UNL     1     -10.362   5.410  71.085  1.00  0.00    -0.235 C  
HETATM    5  H   UNL     1      -8.866   5.550  72.329  1.00  0.00     0.000 HD 
HETATM    6  O   UNL     1      -8.993   5.700  71.400  1.00  0.00    -0.138 OA 
BRANCH   4   7
HETATM    7  C   UNL     1     -11.293   6.274  71.954  1.00  0.00    -0.299 C  
HETATM    8  H   UNL     1     -11.679   6.508  73.874  1.00  0.00     0.000 HD 
HETATM    9  O   UNL     1     -11.105   5.974  73.337  1.00  0.00    -0.222 OA 
BRANCH   7  10
HETATM   10  C   UNL     1     -11.054   7.785  71.710  1.00  0.00    -0.245 C  
HETATM   11  H   UNL     1     -10.030   9.284  72.554  1.00  0.00     0.000 HD 
HETATM   12  O   UNL     1     -10.176   8.357  72.703  1.00  0.00    -0.302 OA 
BRANCH  10  13
HETATM   13  C   UNL     1     -12.350   8.606  71.685  1.00  0.00    -0.333 C  
HETATM   14  C   UNL     1     -12.147  10.110  71.421  1.00  0.00    -0.382 C  
HETATM   15  O   UNL     1     -13.100   8.350  72.874  1.00  0.00    -0.639 OA 
HETATM   16  O   UNL     1     -11.231  10.414  70.473  1.00  0.00    -0.312 OA 
HETATM   17  O   UNL     1     -12.814  10.971  71.988  1.00  0.00    -0.380 OA 
HETATM   18  H   UNL     1     -13.903   8.858  72.858  1.00  0.00     0.000 HD 
ENDBRANCH  10  13
ENDBRANCH   7  10
ENDBRANCH   4   7
ENDBRANCH   2   4
TORSDOF 4
ENDMDL
MODEL      153
REMARK 921   NORMALIZED FREE ENERGY PREDICTED BY IDOCK:   -3.10 KCAL/MOL
REMARK 922        TOTAL FREE ENERGY PREDICTED BY IDOCK:   -4.30 KCAL/MOL
REMARK 923 INTER-LIGAND FREE ENERGY PREDICTED BY IDOCK:   -3.95 KCAL/MOL
REMARK 924 INTRA-LIGAND FREE ENERGY PREDICTED BY IDOCK:   -0.35 KCAL/MOL
REMARK 927      BINDING AFFINITY PREDICTED BY RF-SCORE:    0.00 PKD
ROOT
HETATM    1  O   UNL     1      -8.875  11.765  68.776  1.00  0.00    -0.340 OA 
HETATM    2  C   UNL     1      -9.980  11.111  68.146  1.00  0.00    -0.178 C  
HETATM    3  H   UNL     1      -8.446  11.138  69.345  1.00  0.00     0.000 HD 
ENDROOT
BRANCH   2   4
HETATM    4  C   UNL     1     -10.672  12.123  67.226  1.00  0.00    -0.229 C  
HETATM    5  H   UNL     1     -12.509  12.712  66.932  1.00  0.00     0.000 HD 
HETATM    6  O   UNL     1     -12.080  12.085  67.502  1.00  0.00    -0.555 OA 
BRANCH   4   7
HETATM    7  C   UNL     1     -10.140  13.553  67.416  1.00  0.00    -0.237 C  
HETATM    8  H   UNL     1      -9.501  15.026  66.270  1.00  0.00     0.000 HD 
HETATM    9  O   UNL     1      -9.829  14.142  66.153  1.00  0.00    -0.292 OA 
BRANCH   7  10
HETATM   10  C   UNL     1     -11.161  14.443  68.169  1.00  0.00    -0.281 C  
HETATM   11  H   UNL     1     -12.133  16.168  67.873  1.00  0.00     0.000 HD 
HETATM   12  O   UNL     1     -11.507  15.622  67.412  1.00  0.00    -0.235 OA 
BRANCH  10  13
HETATM   13  C   UNL     1     -10.672  14.887  69.553  1.00  0.00    -0.244 C  
HETATM   14  C   UNL     1     -11.795  15.293  70.526  1.00  0.00    -0.324 C  
HETATM   15  O   UNL     1      -9.676  15.901  69.405  1.00  0.00    -0.248 OA 
HETATM   16  O   UNL     1     -12.892  14.503  70.508  1.00  0.00    -0.350 OA 
HETATM   17  O   UNL     1     -11.678  16.233  71.307  1.00  0.00    -0.435 OA 
HETATM   18  H   UNL     1      -9.373  16.176  70.263  1.00  0.00     0.000 HD 
ENDBRANCH  10  13
ENDBRANCH   7  10
ENDBRANCH   4   7
ENDBRANCH   2   4
TORSDOF 4
ENDMDL
MODEL      154
REMARK 921   NORMALIZED FREE ENERGY PREDICTED BY IDOCK:   -3.10 KCAL/MOL
REMARK 922        TOTAL FREE ENERGY PREDICTED BY IDOCK:   -4.30 KCAL/MOL
REMARK 923 INTER-LIGAND FREE ENERGY PREDICTED BY IDOCK:   -3.96 KCAL/MOL
REMARK 924 INTRA-LIGAND FREE ENERGY PREDICTED BY IDOCK:   -0.34 KCAL/MOL
REMARK 927      BINDING AFFINITY PREDICTED BY RF-SCORE:    0.00 PKD
ROOT
HETATM    1  O   UNL     1     -11.652  12.541  70.470  1.00  0.00    -0.494 OA 
HETATM    2  C   UNL     1     -12.758  11.709  70.832  1.00  0.00    -0.258 C  
HETATM    3  H   UNL     1     -11.996  13.348  70.105  1.00  0.00     0.000 HD 
ENDROOT
BRANCH   2   4
HETATM    4  C   UNL     1     -12.202  10.408  71.421  1.00  0.00    -0.362 C  
HETATM    5  H   UNL     1     -12.903   8.971  72.539  1.00  0.00     0.000 HD 
HETATM    6  O   UNL     1     -13.248   9.777  72.174  1.00  0.00    -0.433 OA 
BRANCH   4   7
HETATM    7  C   UNL     1     -11.682   9.445  70.339  1.00  0.00    -0.144 C  
HETATM    8  H   UNL     1     -10.533   9.547  68.739  1.00  0.00     0.000 HD 
HETATM    9  O   UNL     1     -10.854  10.141  69.407  1.00  0.00    -0.214 OA 
BRANCH   7  10
HETATM   10  C   UNL     1     -10.890   8.268  70.962  1.00  0.00    -0.233 C  
HETATM   11  H   UNL     1     -11.109   6.293  71.210  1.00  0.00     0.000 HD 
HETATM   12  O   UNL     1     -11.595   7.016  70.828  1.00  0.00    -0.304 OA 
BRANCH  10  13
HETATM   13  C   UNL     1     -10.561   8.477  72.446  1.00  0.00    -0.298 C  
HETATM   14  C   UNL     1      -9.056   8.578  72.757  1.00  0.00    -0.148 C  
HETATM   15  O   UNL     1     -11.221   7.479  73.226  1.00  0.00    -0.567 OA 
HETATM   16  O   UNL     1      -8.329   9.305  71.879  1.00  0.00    -0.265 OA 
HETATM   17  O   UNL     1      -8.561   8.084  73.766  1.00  0.00    -0.240 OA 
HETATM   18  H   UNL     1     -11.018   7.608  74.145  1.00  0.00     0.000 HD 
ENDBRANCH  10  13
ENDBRANCH   7  10
ENDBRANCH   4   7
ENDBRANCH   2   4
TORSDOF 4
ENDMDL
MODEL      155
REMARK 921   NORMALIZED FREE ENERGY PREDICTED BY IDOCK:   -3.10 KCAL/MOL
REMARK 922        TOTAL FREE ENERGY PREDICTED BY IDOCK:   -4.30 KCAL/MOL
REMARK 923 INTER-LIGAND FREE ENERGY PREDICTED BY IDOCK:   -3.97 KCAL/MOL
REMARK 924 INTRA-LIGAND FREE ENERGY PREDICTED BY IDOCK:   -0.33 KCAL/MOL
REMARK 927      BINDING AFFINITY PREDICTED BY RF-SCORE:    0.00 PKD
ROOT
HETATM    1  O   UNL     1     -12.655  10.426  69.448  1.00  0.00    -0.687 OA 
HETATM    2  C   UNL     1     -11.916  11.651  69.466  1.00  0.00    -0.317 C  
HETATM    3  H   UNL     1     -13.159  10.374  70.251  1.00  0.00     0.000 HD 
ENDROOT
BRANCH   2   4
HETATM    4  C   UNL     1     -11.102  11.735  68.170  1.00  0.00    -0.243 C  
HETATM    5  H   UNL     1     -10.948  10.664  66.546  1.00  0.00     0.000 HD 
HETATM    6  O   UNL     1     -11.453  10.611  67.349  1.00  0.00    -0.436 OA 
BRANCH   4   7
HETATM    7  C   UNL     1     -11.353  13.043  67.399  1.00  0.00    -0.305 C  
HETATM    8  H   UNL     1     -11.978  14.869  67.808  1.00  0.00     0.000 HD 
HETATM    9  O   UNL     1     -11.823  14.061  68.284  1.00  0.00    -0.341 OA 
BRANCH   7  10
HETATM   10  C   UNL     1     -10.071  13.531  66.678  1.00  0.00    -0.277 C  
HETATM   11  H   UNL     1      -9.406  13.735  64.801  1.00  0.00     0.000 HD 
HETATM   12  O   UNL     1     -10.192  13.436  65.243  1.00  0.00    -0.309 OA 
BRANCH  10  13
HETATM   13  C   UNL     1      -8.810  12.769  67.105  1.00  0.00    -0.202 C  
HETATM   14  C   UNL     1      -7.738  13.640  67.787  1.00  0.00    -0.164 C  
HETATM   15  O   UNL     1      -8.298  12.032  65.992  1.00  0.00    -0.383 OA 
HETATM   16  O   UNL     1      -8.207  14.553  68.667  1.00  0.00    -0.145 OA 
HETATM   17  O   UNL     1      -6.538  13.475  67.591  1.00  0.00    -0.158 OA 
HETATM   18  H   UNL     1      -7.517  11.560  66.256  1.00  0.00     0.000 HD 
ENDBRANCH  10  13
ENDBRANCH   7  10
ENDBRANCH   4   7
ENDBRANCH   2   4
TORSDOF 4
ENDMDL
MODEL      156
REMARK 921   NORMALIZED FREE ENERGY PREDICTED BY IDOCK:   -3.10 KCAL/MOL
REMARK 922        TOTAL FREE ENERGY PREDICTED BY IDOCK:   -4.29 KCAL/MOL
REMARK 923 INTER-LIGAND FREE ENERGY PREDICTED BY IDOCK:   -3.76 KCAL/MOL
REMARK 924 INTRA-LIGAND FREE ENERGY PREDICTED BY IDOCK:   -0.53 KCAL/MOL
REMARK 927      BINDING AFFINITY PREDICTED BY RF-SCORE:    0.00 PKD
ROOT
HETATM    1  O   UNL     1      -6.986  13.288  67.161  1.00  0.00    -0.351 OA 
HETATM    2  C   UNL     1      -7.992  12.802  68.053  1.00  0.00    -0.160 C  
HETATM    3  H   UNL     1      -6.278  12.655  67.140  1.00  0.00     0.000 HD 
ENDROOT
BRANCH   2   4
HETATM    4  C   UNL     1      -9.134  13.823  68.087  1.00  0.00    -0.194 C  
HETATM    5  H   UNL     1      -9.272  15.765  67.964  1.00  0.00     0.000 HD 
HETATM    6  O   UNL     1      -8.565  15.133  67.943  1.00  0.00    -0.148 OA 
BRANCH   4   7
HETATM    7  C   UNL     1     -10.176  13.581  66.981  1.00  0.00    -0.249 C  
HETATM    8  H   UNL     1     -10.396  12.374  65.436  1.00  0.00     0.000 HD 
HETATM    9  O   UNL     1      -9.753  12.524  66.120  1.00  0.00    -0.254 OA 
BRANCH   7  10
HETATM   10  C   UNL     1     -11.566  13.244  67.576  1.00  0.00    -0.346 C  
HETATM   11  H   UNL     1     -13.473  13.793  67.305  1.00  0.00     0.000 HD 
HETATM   12  O   UNL     1     -12.620  13.999  66.941  1.00  0.00    -0.262 OA 
BRANCH  10  13
HETATM   13  C   UNL     1     -11.651  13.481  69.089  1.00  0.00    -0.310 C  
HETATM   14  C   UNL     1     -11.817  12.200  69.927  1.00  0.00    -0.319 C  
HETATM   15  O   UNL     1     -12.659  14.456  69.364  1.00  0.00    -0.553 OA 
HETATM   16  O   UNL     1     -11.067  11.146  69.531  1.00  0.00    -0.243 OA 
HETATM   17  O   UNL     1     -12.534  12.156  70.922  1.00  0.00    -0.368 OA 
HETATM   18  H   UNL     1     -12.711  14.603  70.301  1.00  0.00     0.000 HD 
ENDBRANCH  10  13
ENDBRANCH   7  10
ENDBRANCH   4   7
ENDBRANCH   2   4
TORSDOF 4
ENDMDL
MODEL      157
REMARK 921   NORMALIZED FREE ENERGY PREDICTED BY IDOCK:   -3.08 KCAL/MOL
REMARK 922        TOTAL FREE ENERGY PREDICTED BY IDOCK:   -4.27 KCAL/MOL
REMARK 923 INTER-LIGAND FREE ENERGY PREDICTED BY IDOCK:   -3.46 KCAL/MOL
REMARK 924 INTRA-LIGAND FREE ENERGY PREDICTED BY IDOCK:   -0.81 KCAL/MOL
REMARK 927      BINDING AFFINITY PREDICTED BY RF-SCORE:    0.00 PKD
ROOT
HETATM    1  O   UNL     1     -11.464   4.411  64.951  1.00  0.00    -1.070 OA 
HETATM    2  C   UNL     1     -10.137   3.890  65.059  1.00  0.00    -0.162 C  
HETATM    3  H   UNL     1     -11.697   4.439  64.030  1.00  0.00     0.000 HD 
ENDROOT
BRANCH   2   4
HETATM    4  C   UNL     1      -9.761   3.846  66.544  1.00  0.00    -0.164 C  
HETATM    5  H   UNL     1      -8.488   2.845  67.632  1.00  0.00     0.000 HD 
HETATM    6  O   UNL     1      -8.720   2.873  66.712  1.00  0.00    -0.112 OA 
BRANCH   4   7
HETATM    7  C   UNL     1      -9.292   5.211  67.076  1.00  0.00    -0.124 C  
HETATM    8  H   UNL     1      -8.677   6.927  66.321  1.00  0.00     0.000 HD 
HETATM    9  O   UNL     1      -8.967   6.083  65.993  1.00  0.00    -0.151 OA 
BRANCH   7  10
HETATM   10  C   UNL     1     -10.370   5.872  67.971  1.00  0.00    -0.208 C  
HETATM   11  H   UNL     1     -12.057   6.924  67.738  1.00  0.00     0.000 HD 
HETATM   12  O   UNL     1     -11.396   6.519  67.188  1.00  0.00    -0.333 OA 
BRANCH  10  13
HETATM   13  C   UNL     1      -9.795   6.901  68.953  1.00  0.00    -0.147 C  
HETATM   14  C   UNL     1     -10.819   7.472  69.951  1.00  0.00    -0.240 C  
HETATM   15  O   UNL     1      -9.103   7.918  68.226  1.00  0.00    -0.135 OA 
HETATM   16  O   UNL     1     -11.686   6.574  70.471  1.00  0.00    -0.380 OA 
HETATM   17  O   UNL     1     -10.810   8.650  70.297  1.00  0.00    -0.230 OA 
HETATM   18  H   UNL     1      -8.746   8.555  68.834  1.00  0.00     0.000 HD 
ENDBRANCH  10  13
ENDBRANCH   7  10
ENDBRANCH   4   7
ENDBRANCH   2   4
TORSDOF 4
ENDMDL
MODEL      158
REMARK 921   NORMALIZED FREE ENERGY PREDICTED BY IDOCK:   -3.06 KCAL/MOL
REMARK 922        TOTAL FREE ENERGY PREDICTED BY IDOCK:   -4.24 KCAL/MOL
REMARK 923 INTER-LIGAND FREE ENERGY PREDICTED BY IDOCK:   -4.03 KCAL/MOL
REMARK 924 INTRA-LIGAND FREE ENERGY PREDICTED BY IDOCK:   -0.22 KCAL/MOL
REMARK 927      BINDING AFFINITY PREDICTED BY RF-SCORE:    0.00 PKD
ROOT
HETATM    1  O   UNL     1      -8.675   7.588  66.749  1.00  0.00    -0.124 OA 
HETATM    2  C   UNL     1      -9.410   8.795  66.529  1.00  0.00    -0.203 C  
HETATM    3  H   UNL     1      -7.942   7.574  66.144  1.00  0.00     0.000 HD 
ENDROOT
BRANCH   2   4
HETATM    4  C   UNL     1     -10.592   8.818  67.504  1.00  0.00    -0.228 C  
HETATM    5  H   UNL     1     -11.479   7.513  68.652  1.00  0.00     0.000 HD 
HETATM    6  O   UNL     1     -10.746   7.499  68.048  1.00  0.00    -0.186 OA 
BRANCH   4   7
HETATM    7  C   UNL     1     -10.399   9.834  68.643  1.00  0.00    -0.201 C  
HETATM    8  H   UNL     1      -9.252  11.396  69.013  1.00  0.00     0.000 HD 
HETATM    9  O   UNL     1      -9.372  10.768  68.309  1.00  0.00    -0.149 OA 
BRANCH   7  10
HETATM   10  C   UNL     1     -11.713  10.594  68.954  1.00  0.00    -0.211 C  
HETATM   11  H   UNL     1     -12.843  12.017  68.114  1.00  0.00     0.000 HD 
HETATM   12  O   UNL     1     -12.037  11.551  67.924  1.00  0.00    -0.630 OA 
BRANCH  10  13
HETATM   13  C   UNL     1     -11.684  11.329  70.300  1.00  0.00    -0.324 C  
HETATM   14  C   UNL     1     -12.818  10.938  71.265  1.00  0.00    -0.433 C  
HETATM   15  O   UNL     1     -11.611  12.738  70.073  1.00  0.00    -0.495 OA 
HETATM   16  O   UNL     1     -13.110   9.619  71.314  1.00  0.00    -0.354 OA 
HETATM   17  O   UNL     1     -13.378  11.760  71.985  1.00  0.00    -0.487 OA 
HETATM   18  H   UNL     1     -11.592  13.193  70.907  1.00  0.00     0.000 HD 
ENDBRANCH  10  13
ENDBRANCH   7  10
ENDBRANCH   4   7
ENDBRANCH   2   4
TORSDOF 4
ENDMDL
MODEL      159
REMARK 921   NORMALIZED FREE ENERGY PREDICTED BY IDOCK:   -3.06 KCAL/MOL
REMARK 922        TOTAL FREE ENERGY PREDICTED BY IDOCK:   -4.24 KCAL/MOL
REMARK 923 INTER-LIGAND FREE ENERGY PREDICTED BY IDOCK:   -3.45 KCAL/MOL
REMARK 924 INTRA-LIGAND FREE ENERGY PREDICTED BY IDOCK:   -0.79 KCAL/MOL
REMARK 927      BINDING AFFINITY PREDICTED BY RF-SCORE:    0.00 PKD
ROOT
HETATM    1  O   UNL     1     -10.478   8.016  66.677  1.00  0.00    -0.419 OA 
HETATM    2  C   UNL     1     -10.390   9.428  66.888  1.00  0.00    -0.238 C  
HETATM    3  H   UNL     1     -11.088   7.861  65.966  1.00  0.00     0.000 HD 
ENDROOT
BRANCH   2   4
HETATM    4  C   UNL     1      -9.404   9.678  68.034  1.00  0.00    -0.132 C  
HETATM    5  H   UNL     1      -8.086  11.050  68.468  1.00  0.00     0.000 HD 
HETATM    6  O   UNL     1      -8.697  10.895  67.757  1.00  0.00    -0.126 OA 
BRANCH   4   7
HETATM    7  C   UNL     1     -10.103   9.779  69.401  1.00  0.00    -0.209 C  
HETATM    8  H   UNL     1     -11.900  10.224  70.081  1.00  0.00     0.000 HD 
HETATM    9  O   UNL     1     -11.469  10.162  69.237  1.00  0.00    -0.197 OA 
BRANCH   7  10
HETATM   10  C   UNL     1     -10.027   8.440  70.177  1.00  0.00    -0.187 C  
HETATM   11  H   UNL     1      -9.233   6.619  69.927  1.00  0.00     0.000 HD 
HETATM   12  O   UNL     1      -9.280   7.441  69.451  1.00  0.00    -0.146 OA 
BRANCH  10  13
HETATM   13  C   UNL     1     -11.405   7.858  70.517  1.00  0.00    -0.234 C  
HETATM   14  C   UNL     1     -11.511   7.251  71.928  1.00  0.00    -0.267 C  
HETATM   15  O   UNL     1     -11.803   6.945  69.491  1.00  0.00    -0.602 OA 
HETATM   16  O   UNL     1     -10.905   7.957  72.910  1.00  0.00    -0.362 OA 
HETATM   17  O   UNL     1     -12.153   6.230  72.156  1.00  0.00    -0.333 OA 
HETATM   18  H   UNL     1     -12.657   6.585  69.702  1.00  0.00     0.000 HD 
ENDBRANCH  10  13
ENDBRANCH   7  10
ENDBRANCH   4   7
ENDBRANCH   2   4
TORSDOF 4
ENDMDL
MODEL      160
REMARK 921   NORMALIZED FREE ENERGY PREDICTED BY IDOCK:   -3.05 KCAL/MOL
REMARK 922        TOTAL FREE ENERGY PREDICTED BY IDOCK:   -4.24 KCAL/MOL
REMARK 923 INTER-LIGAND FREE ENERGY PREDICTED BY IDOCK:   -3.82 KCAL/MOL
REMARK 924 INTRA-LIGAND FREE ENERGY PREDICTED BY IDOCK:   -0.41 KCAL/MOL
REMARK 927      BINDING AFFINITY PREDICTED BY RF-SCORE:    0.00 PKD
ROOT
HETATM    1  O   UNL     1     -11.979   5.440  73.025  1.00  0.00    -0.548 OA 
HETATM    2  C   UNL     1     -10.714   6.103  73.121  1.00  0.00    -0.260 C  
HETATM    3  H   UNL     1     -11.829   4.506  73.099  1.00  0.00     0.000 HD 
ENDROOT
BRANCH   2   4
HETATM    4  C   UNL     1     -10.956   7.611  73.003  1.00  0.00    -0.400 C  
HETATM    5  H   UNL     1      -9.833   9.207  72.980  1.00  0.00     0.000 HD 
HETATM    6  O   UNL     1      -9.683   8.272  73.053  1.00  0.00    -0.269 OA 
BRANCH   4   7
HETATM    7  C   UNL     1     -11.691   7.991  71.706  1.00  0.00    -0.291 C  
HETATM    8  H   UNL     1     -13.517   8.514  71.174  1.00  0.00     0.000 HD 
HETATM    9  O   UNL     1     -13.063   8.279  71.975  1.00  0.00    -0.331 OA 
BRANCH   7  10
HETATM   10  C   UNL     1     -11.029   9.210  71.015  1.00  0.00    -0.305 C  
HETATM   11  H   UNL     1     -11.428  11.149  70.717  1.00  0.00     0.000 HD 
HETATM   12  O   UNL     1     -11.834  10.402  71.140  1.00  0.00    -0.356 OA 
BRANCH  10  13
HETATM   13  C   UNL     1     -10.740   8.980  69.526  1.00  0.00    -0.206 C  
HETATM   14  C   UNL     1      -9.260   8.710  69.198  1.00  0.00    -0.152 C  
HETATM   15  O   UNL     1     -11.290  10.055  68.762  1.00  0.00    -0.443 OA 
HETATM   16  O   UNL     1      -8.613   7.896  70.062  1.00  0.00    -0.132 OA 
HETATM   17  O   UNL     1      -8.722   9.155  68.188  1.00  0.00    -0.128 OA 
HETATM   18  H   UNL     1     -11.112   9.912  67.839  1.00  0.00     0.000 HD 
ENDBRANCH  10  13
ENDBRANCH   7  10
ENDBRANCH   4   7
ENDBRANCH   2   4
TORSDOF 4
ENDMDL
MODEL      161
REMARK 921   NORMALIZED FREE ENERGY PREDICTED BY IDOCK:   -3.04 KCAL/MOL
REMARK 922        TOTAL FREE ENERGY PREDICTED BY IDOCK:   -4.23 KCAL/MOL
REMARK 923 INTER-LIGAND FREE ENERGY PREDICTED BY IDOCK:   -3.63 KCAL/MOL
REMARK 924 INTRA-LIGAND FREE ENERGY PREDICTED BY IDOCK:   -0.59 KCAL/MOL
REMARK 927      BINDING AFFINITY PREDICTED BY RF-SCORE:    0.00 PKD
ROOT
HETATM    1  O   UNL     1      -8.944   7.761  69.157  1.00  0.00    -0.145 OA 
HETATM    2  C   UNL     1      -9.721   8.743  69.848  1.00  0.00    -0.178 C  
HETATM    3  H   UNL     1      -9.198   6.904  69.478  1.00  0.00     0.000 HD 
ENDROOT
BRANCH   2   4
HETATM    4  C   UNL     1      -9.312  10.126  69.329  1.00  0.00    -0.215 C  
HETATM    5  H   UNL     1      -7.625  11.030  68.948  1.00  0.00     0.000 HD 
HETATM    6  O   UNL     1      -7.879  10.174  69.269  1.00  0.00    -0.108 OA 
BRANCH   4   7
HETATM    7  C   UNL     1      -9.903  10.436  67.943  1.00  0.00    -0.154 C  
HETATM    8  H   UNL     1     -10.916   9.472  66.551  1.00  0.00     0.000 HD 
HETATM    9  O   UNL     1     -10.550   9.281  67.407  1.00  0.00    -0.272 OA 
BRANCH   7  10
HETATM   10  C   UNL     1     -10.909  11.614  68.007  1.00  0.00    -0.215 C  
HETATM   11  H   UNL     1     -12.878  11.877  68.257  1.00  0.00     0.000 HD 
HETATM   12  O   UNL     1     -12.261  11.155  68.218  1.00  0.00    -0.613 OA 
BRANCH  10  13
HETATM   13  C   UNL     1     -10.891  12.493  66.750  1.00  0.00    -0.249 C  
HETATM   14  C   UNL     1     -11.791  13.739  66.831  1.00  0.00    -0.413 C  
HETATM   15  O   UNL     1     -11.163  11.688  65.601  1.00  0.00    -0.292 OA 
HETATM   16  O   UNL     1     -11.771  14.393  68.015  1.00  0.00    -0.311 OA 
HETATM   17  O   UNL     1     -12.435  14.147  65.869  1.00  0.00    -0.471 OA 
HETATM   18  H   UNL     1     -11.152  12.232  64.822  1.00  0.00     0.000 HD 
ENDBRANCH  10  13
ENDBRANCH   7  10
ENDBRANCH   4   7
ENDBRANCH   2   4
TORSDOF 4
ENDMDL
MODEL      162
REMARK 921   NORMALIZED FREE ENERGY PREDICTED BY IDOCK:   -3.04 KCAL/MOL
REMARK 922        TOTAL FREE ENERGY PREDICTED BY IDOCK:   -4.23 KCAL/MOL
REMARK 923 INTER-LIGAND FREE ENERGY PREDICTED BY IDOCK:   -3.46 KCAL/MOL
REMARK 924 INTRA-LIGAND FREE ENERGY PREDICTED BY IDOCK:   -0.76 KCAL/MOL
REMARK 927      BINDING AFFINITY PREDICTED BY RF-SCORE:    0.00 PKD
ROOT
HETATM    1  O   UNL     1      -9.213  16.448  69.062  1.00  0.00    -0.249 OA 
HETATM    2  C   UNL     1     -10.562  16.756  69.423  1.00  0.00    -0.318 C  
HETATM    3  H   UNL     1      -8.704  17.248  69.107  1.00  0.00     0.000 HD 
ENDROOT
BRANCH   2   4
HETATM    4  C   UNL     1     -11.383  15.464  69.351  1.00  0.00    -0.307 C  
HETATM    5  H   UNL     1     -13.090  14.854  70.071  1.00  0.00     0.000 HD 
HETATM    6  O   UNL     1     -12.582  15.654  70.115  1.00  0.00    -0.367 OA 
BRANCH   4   7
HETATM    7  C   UNL     1     -11.740  15.071  67.907  1.00  0.00    -0.289 C  
HETATM    8  H   UNL     1     -11.728  15.923  66.128  1.00  0.00     0.000 HD 
HETATM    9  O   UNL     1     -11.508  16.166  67.020  1.00  0.00     0.110 OA 
BRANCH   7  10
HETATM   10  C   UNL     1     -10.927  13.838  67.437  1.00  0.00    -0.284 C  
HETATM   11  H   UNL     1      -9.202  13.466  66.493  1.00  0.00     0.000 HD 
HETATM   12  O   UNL     1      -9.700  14.222  66.781  1.00  0.00    -0.256 OA 
BRANCH  10  13
HETATM   13  C   UNL     1     -11.711  12.921  66.491  1.00  0.00    -0.393 C  
HETATM   14  C   UNL     1     -10.965  11.637  66.084  1.00  0.00    -0.288 C  
HETATM   15  O   UNL     1     -12.170  13.674  65.367  1.00  0.00    -0.390 OA 
HETATM   16  O   UNL     1     -10.281  11.023  67.076  1.00  0.00    -0.196 OA 
HETATM   17  O   UNL     1     -11.035  11.169  64.951  1.00  0.00    -0.234 OA 
HETATM   18  H   UNL     1     -12.657  13.106  64.781  1.00  0.00     0.000 HD 
ENDBRANCH  10  13
ENDBRANCH   7  10
ENDBRANCH   4   7
ENDBRANCH   2   4
TORSDOF 4
ENDMDL
MODEL      163
REMARK 921   NORMALIZED FREE ENERGY PREDICTED BY IDOCK:   -3.04 KCAL/MOL
REMARK 922        TOTAL FREE ENERGY PREDICTED BY IDOCK:   -4.22 KCAL/MOL
REMARK 923 INTER-LIGAND FREE ENERGY PREDICTED BY IDOCK:   -3.97 KCAL/MOL
REMARK 924 INTRA-LIGAND FREE ENERGY PREDICTED BY IDOCK:   -0.25 KCAL/MOL
REMARK 927      BINDING AFFINITY PREDICTED BY RF-SCORE:    0.00 PKD
ROOT
HETATM    1  O   UNL     1      -9.260  19.775  68.183  1.00  0.00    -0.335 OA 
HETATM    2  C   UNL     1      -9.271  18.364  67.947  1.00  0.00    -0.283 C  
HETATM    3  H   UNL     1      -9.620  19.933  69.048  1.00  0.00     0.000 HD 
ENDROOT
BRANCH   2   4
HETATM    4  C   UNL     1      -8.690  18.110  66.552  1.00  0.00    -0.268 C  
HETATM    5  H   UNL     1      -7.167  18.777  65.532  1.00  0.00     0.000 HD 
HETATM    6  O   UNL     1      -7.527  18.935  66.396  1.00  0.00    -0.234 OA 
BRANCH   4   7
HETATM    7  C   UNL     1      -8.319  16.634  66.327  1.00  0.00    -0.325 C  
HETATM    8  H   UNL     1      -6.768  15.462  66.663  1.00  0.00     0.000 HD 
HETATM    9  O   UNL     1      -6.998  16.374  66.801  1.00  0.00    -0.213 OA 
BRANCH   7  10
HETATM   10  C   UNL     1      -9.322  15.684  67.030  1.00  0.00    -0.226 C  
HETATM   11  H   UNL     1      -9.275  13.955  68.039  1.00  0.00     0.000 HD 
HETATM   12  O   UNL     1      -8.661  14.538  67.608  1.00  0.00    -0.160 OA 
BRANCH  10  13
HETATM   13  C   UNL     1     -10.431  15.179  66.099  1.00  0.00    -0.312 C  
HETATM   14  C   UNL     1     -11.602  14.485  66.820  1.00  0.00    -0.376 C  
HETATM   15  O   UNL     1      -9.859  14.371  65.069  1.00  0.00    -0.534 OA 
HETATM   16  O   UNL     1     -12.009  15.075  67.966  1.00  0.00    -0.296 OA 
HETATM   17  O   UNL     1     -12.165  13.498  66.355  1.00  0.00    -0.415 OA 
HETATM   18  H   UNL     1     -10.546  14.059  64.492  1.00  0.00     0.000 HD 
ENDBRANCH  10  13
ENDBRANCH   7  10
ENDBRANCH   4   7
ENDBRANCH   2   4
TORSDOF 4
ENDMDL
MODEL      164
REMARK 921   NORMALIZED FREE ENERGY PREDICTED BY IDOCK:   -3.01 KCAL/MOL
REMARK 922        TOTAL FREE ENERGY PREDICTED BY IDOCK:   -4.18 KCAL/MOL
REMARK 923 INTER-LIGAND FREE ENERGY PREDICTED BY IDOCK:   -3.85 KCAL/MOL
REMARK 924 INTRA-LIGAND FREE ENERGY PREDICTED BY IDOCK:   -0.33 KCAL/MOL
REMARK 927      BINDING AFFINITY PREDICTED BY RF-SCORE:    0.00 PKD
ROOT
HETATM    1  O   UNL     1      -6.876  14.265  67.106  1.00  0.00    -0.392 OA 
HETATM    2  C   UNL     1      -7.342  13.415  68.158  1.00  0.00    -0.117 C  
HETATM    3  H   UNL     1      -5.947  14.413  67.234  1.00  0.00     0.000 HD 
ENDROOT
BRANCH   2   4
HETATM    4  C   UNL     1      -8.841  13.176  67.950  1.00  0.00    -0.196 C  
HETATM    5  H   UNL     1     -10.104  11.760  68.404  1.00  0.00     0.000 HD 
HETATM    6  O   UNL     1      -9.175  11.908  68.532  1.00  0.00    -0.193 OA 
BRANCH   4   7
HETATM    7  C   UNL     1      -9.707  14.283  68.576  1.00  0.00    -0.225 C  
HETATM    8  H   UNL     1      -9.511  16.191  69.037  1.00  0.00     0.000 HD 
HETATM    9  O   UNL     1      -8.976  15.507  68.652  1.00  0.00    -0.175 OA 
BRANCH   7  10
HETATM   10  C   UNL     1     -11.012  14.505  67.769  1.00  0.00    -0.275 C  
HETATM   11  H   UNL     1     -12.936  14.918  68.137  1.00  0.00     0.000 HD 
HETATM   12  O   UNL     1     -12.136  14.782  68.632  1.00  0.00    -0.277 OA 
BRANCH  10  13
HETATM   13  C   UNL     1     -11.378  13.317  66.870  1.00  0.00    -0.318 C  
HETATM   14  C   UNL     1     -11.844  13.708  65.456  1.00  0.00    -0.362 C  
HETATM   15  O   UNL     1     -12.313  12.476  67.548  1.00  0.00    -0.316 OA 
HETATM   16  O   UNL     1     -11.143  14.704  64.868  1.00  0.00    -0.366 OA 
HETATM   17  O   UNL     1     -12.749  13.114  64.877  1.00  0.00    -0.639 OA 
HETATM   18  H   UNL     1     -12.539  11.740  66.992  1.00  0.00     0.000 HD 
ENDBRANCH  10  13
ENDBRANCH   7  10
ENDBRANCH   4   7
ENDBRANCH   2   4
TORSDOF 4
ENDMDL
MODEL      165
REMARK 921   NORMALIZED FREE ENERGY PREDICTED BY IDOCK:   -3.00 KCAL/MOL
REMARK 922        TOTAL FREE ENERGY PREDICTED BY IDOCK:   -4.17 KCAL/MOL
REMARK 923 INTER-LIGAND FREE ENERGY PREDICTED BY IDOCK:   -3.57 KCAL/MOL
REMARK 924 INTRA-LIGAND FREE ENERGY PREDICTED BY IDOCK:   -0.60 KCAL/MOL
REMARK 927      BINDING AFFINITY PREDICTED BY RF-SCORE:    0.00 PKD
ROOT
HETATM    1  O   UNL     1      -8.289   8.315  68.435  1.00  0.00    -0.129 OA 
HETATM    2  C   UNL     1      -9.236   8.228  67.367  1.00  0.00    -0.141 C  
HETATM    3  H   UNL     1      -8.074   7.432  68.712  1.00  0.00     0.000 HD 
ENDROOT
BRANCH   2   4
HETATM    4  C   UNL     1      -9.582   9.653  66.920  1.00  0.00    -0.167 C  
HETATM    5  H   UNL     1     -10.052  10.509  65.231  1.00  0.00     0.000 HD 
HETATM    6  O   UNL     1      -9.838   9.627  65.508  1.00  0.00    -0.302 OA 
BRANCH   4   7
HETATM    7  C   UNL     1     -10.802  10.224  67.662  1.00  0.00    -0.307 C  
HETATM    8  H   UNL     1     -11.692   9.965  69.404  1.00  0.00     0.000 HD 
HETATM    9  O   UNL     1     -10.939   9.612  68.945  1.00  0.00    -0.202 OA 
BRANCH   7  10
HETATM   10  C   UNL     1     -10.695  11.762  67.828  1.00  0.00    -0.205 C  
HETATM   11  H   UNL     1      -9.328  13.104  68.408  1.00  0.00     0.000 HD 
HETATM   12  O   UNL     1      -9.394  12.161  68.306  1.00  0.00    -0.198 OA 
BRANCH  10  13
HETATM   13  C   UNL     1     -11.754  12.344  68.773  1.00  0.00    -0.332 C  
HETATM   14  C   UNL     1     -12.026  13.847  68.578  1.00  0.00    -0.359 C  
HETATM   15  O   UNL     1     -11.423  12.012  70.123  1.00  0.00    -0.511 OA 
HETATM   16  O   UNL     1     -12.081  14.265  67.293  1.00  0.00    -0.411 OA 
HETATM   17  O   UNL     1     -12.237  14.602  69.522  1.00  0.00    -0.306 OA 
HETATM   18  H   UNL     1     -12.079  12.372  70.708  1.00  0.00     0.000 HD 
ENDBRANCH  10  13
ENDBRANCH   7  10
ENDBRANCH   4   7
ENDBRANCH   2   4
TORSDOF 4
ENDMDL
MODEL      166
REMARK 921   NORMALIZED FREE ENERGY PREDICTED BY IDOCK:   -3.00 KCAL/MOL
REMARK 922        TOTAL FREE ENERGY PREDICTED BY IDOCK:   -4.17 KCAL/MOL
REMARK 923 INTER-LIGAND FREE ENERGY PREDICTED BY IDOCK:   -3.97 KCAL/MOL
REMARK 924 INTRA-LIGAND FREE ENERGY PREDICTED BY IDOCK:   -0.20 KCAL/MOL
REMARK 927      BINDING AFFINITY PREDICTED BY RF-SCORE:    0.00 PKD
ROOT
HETATM    1  O   UNL     1      -8.273   8.786  72.083  1.00  0.00    -0.340 OA 
HETATM    2  C   UNL     1      -8.201   9.053  70.679  1.00  0.00    -0.181 C  
HETATM    3  H   UNL     1      -7.400   8.875  72.446  1.00  0.00     0.000 HD 
ENDROOT
BRANCH   2   4
HETATM    4  C   UNL     1      -9.610   8.911  70.094  1.00  0.00    -0.180 C  
HETATM    5  H   UNL     1     -10.390   8.961  68.307  1.00  0.00     0.000 HD 
HETATM    6  O   UNL     1      -9.517   9.049  68.669  1.00  0.00    -0.145 OA 
BRANCH   4   7
HETATM    7  C   UNL     1     -10.263   7.563  70.448  1.00  0.00    -0.202 C  
HETATM    8  H   UNL     1      -9.678   5.704  70.747  1.00  0.00     0.000 HD 
HETATM    9  O   UNL     1      -9.275   6.536  70.528  1.00  0.00    -0.154 OA 
BRANCH   7  10
HETATM   10  C   UNL     1     -11.041   7.644  71.785  1.00  0.00    -0.242 C  
HETATM   11  H   UNL     1     -11.198   6.592  73.481  1.00  0.00     0.000 HD 
HETATM   12  O   UNL     1     -10.721   6.543  72.661  1.00  0.00    -0.212 OA 
BRANCH  10  13
HETATM   13  C   UNL     1     -12.563   7.682  71.599  1.00  0.00    -0.339 C  
HETATM   14  C   UNL     1     -13.227   8.999  72.041  1.00  0.00    -0.429 C  
HETATM   15  O   UNL     1     -13.148   6.533  72.215  1.00  0.00    -0.548 OA 
HETATM   16  O   UNL     1     -12.559  10.127  71.708  1.00  0.00    -0.395 OA 
HETATM   17  O   UNL     1     -14.318   9.026  72.603  1.00  0.00    -0.603 OA 
HETATM   18  H   UNL     1     -14.091   6.557  72.099  1.00  0.00     0.000 HD 
ENDBRANCH  10  13
ENDBRANCH   7  10
ENDBRANCH   4   7
ENDBRANCH   2   4
TORSDOF 4
ENDMDL
MODEL      167
REMARK 921   NORMALIZED FREE ENERGY PREDICTED BY IDOCK:   -2.99 KCAL/MOL
REMARK 922        TOTAL FREE ENERGY PREDICTED BY IDOCK:   -4.16 KCAL/MOL
REMARK 923 INTER-LIGAND FREE ENERGY PREDICTED BY IDOCK:   -3.35 KCAL/MOL
REMARK 924 INTRA-LIGAND FREE ENERGY PREDICTED BY IDOCK:   -0.81 KCAL/MOL
REMARK 927      BINDING AFFINITY PREDICTED BY RF-SCORE:    0.00 PKD
ROOT
HETATM    1  O   UNL     1      -9.052  16.583  68.941  1.00  0.00    -0.239 OA 
HETATM    2  C   UNL     1     -10.294  16.687  69.642  1.00  0.00    -0.193 C  
HETATM    3  H   UNL     1      -8.781  17.457  68.688  1.00  0.00     0.000 HD 
ENDROOT
BRANCH   2   4
HETATM    4  C   UNL     1     -10.731  15.276  70.050  1.00  0.00    -0.279 C  
HETATM    5  H   UNL     1     -11.433  14.447  71.671  1.00  0.00     0.000 HD 
HETATM    6  O   UNL     1     -11.162  15.321  71.418  1.00  0.00    -0.356 OA 
BRANCH   4   7
HETATM    7  C   UNL     1     -11.862  14.728  69.163  1.00  0.00    -0.305 C  
HETATM    8  H   UNL     1     -13.453  15.439  68.238  1.00  0.00     0.000 HD 
HETATM    9  O   UNL     1     -12.754  15.777  68.787  1.00  0.00     0.449 OA 
BRANCH   7  10
HETATM   10  C   UNL     1     -11.302  14.039  67.892  1.00  0.00    -0.291 C  
HETATM   11  H   UNL     1      -9.533  13.409  67.199  1.00  0.00     0.000 HD 
HETATM   12  O   UNL     1      -9.877  13.831  67.978  1.00  0.00    -0.225 OA 
BRANCH  10  13
HETATM   13  C   UNL     1     -11.598  14.815  66.603  1.00  0.00    -0.313 C  
HETATM   14  C   UNL     1     -11.864  13.929  65.372  1.00  0.00    -0.355 C  
HETATM   15  O   UNL     1     -10.566  15.778  66.379  1.00  0.00    -0.306 OA 
HETATM   16  O   UNL     1     -12.629  12.837  65.597  1.00  0.00    -0.596 OA 
HETATM   17  O   UNL     1     -11.461  14.226  64.251  1.00  0.00    -0.337 OA 
HETATM   18  H   UNL     1     -10.750  16.259  65.580  1.00  0.00     0.000 HD 
ENDBRANCH  10  13
ENDBRANCH   7  10
ENDBRANCH   4   7
ENDBRANCH   2   4
TORSDOF 4
ENDMDL
MODEL      168
REMARK 921   NORMALIZED FREE ENERGY PREDICTED BY IDOCK:   -2.99 KCAL/MOL
REMARK 922        TOTAL FREE ENERGY PREDICTED BY IDOCK:   -4.16 KCAL/MOL
REMARK 923 INTER-LIGAND FREE ENERGY PREDICTED BY IDOCK:   -3.74 KCAL/MOL
REMARK 924 INTRA-LIGAND FREE ENERGY PREDICTED BY IDOCK:   -0.42 KCAL/MOL
REMARK 927      BINDING AFFINITY PREDICTED BY RF-SCORE:    0.00 PKD
ROOT
HETATM    1  O   UNL     1      -9.463  11.923  63.339  1.00  0.00    -0.552 OA 
HETATM    2  C   UNL     1     -10.810  12.382  63.479  1.00  0.00    -0.438 C  
HETATM    3  H   UNL     1      -9.410  11.395  62.551  1.00  0.00     0.000 HD 
ENDROOT
BRANCH   2   4
HETATM    4  C   UNL     1     -10.894  13.234  64.750  1.00  0.00    -0.360 C  
HETATM    5  H   UNL     1     -12.053  14.664  65.397  1.00  0.00     0.000 HD 
HETATM    6  O   UNL     1     -12.001  14.137  64.609  1.00  0.00    -0.399 OA 
BRANCH   4   7
HETATM    7  C   UNL     1     -11.072  12.383  66.020  1.00  0.00    -0.308 C  
HETATM    8  H   UNL     1     -10.856  10.493  66.540  1.00  0.00     0.000 HD 
HETATM    9  O   UNL     1     -10.747  11.018  65.756  1.00  0.00    -0.228 OA 
BRANCH   7  10
HETATM   10  C   UNL     1     -10.195  12.913  67.183  1.00  0.00    -0.239 C  
HETATM   11  H   UNL     1     -10.445  13.540  69.068  1.00  0.00     0.000 HD 
HETATM   12  O   UNL     1     -10.983  13.216  68.354  1.00  0.00    -0.241 OA 
BRANCH  10  13
HETATM   13  C   UNL     1      -9.386  14.162  66.812  1.00  0.00    -0.282 C  
HETATM   14  C   UNL     1      -7.947  14.176  67.360  1.00  0.00    -0.184 C  
HETATM   15  O   UNL     1     -10.125  15.332  67.168  1.00  0.00    -0.236 OA 
HETATM   16  O   UNL     1      -7.287  12.997  67.289  1.00  0.00    -0.138 OA 
HETATM   17  O   UNL     1      -7.414  15.200  67.776  1.00  0.00    -0.131 OA 
HETATM   18  H   UNL     1      -9.624  16.106  66.937  1.00  0.00     0.000 HD 
ENDBRANCH  10  13
ENDBRANCH   7  10
ENDBRANCH   4   7
ENDBRANCH   2   4
TORSDOF 4
ENDMDL
MODEL      169
REMARK 921   NORMALIZED FREE ENERGY PREDICTED BY IDOCK:   -2.97 KCAL/MOL
REMARK 922        TOTAL FREE ENERGY PREDICTED BY IDOCK:   -4.14 KCAL/MOL
REMARK 923 INTER-LIGAND FREE ENERGY PREDICTED BY IDOCK:   -3.95 KCAL/MOL
REMARK 924 INTRA-LIGAND FREE ENERGY PREDICTED BY IDOCK:   -0.19 KCAL/MOL
REMARK 927      BINDING AFFINITY PREDICTED BY RF-SCORE:    0.00 PKD
ROOT
HETATM    1  O   UNL     1      -9.847  14.370  65.403  1.00  0.00    -0.488 OA 
HETATM    2  C   UNL     1      -9.948  13.049  65.940  1.00  0.00    -0.267 C  
HETATM    3  H   UNL     1      -9.740  14.300  64.462  1.00  0.00     0.000 HD 
ENDROOT
BRANCH   2   4
HETATM    4  C   UNL     1     -10.121  13.163  67.459  1.00  0.00    -0.222 C  
HETATM    5  H   UNL     1     -10.023  14.605  68.770  1.00  0.00     0.000 HD 
HETATM    6  O   UNL     1      -9.917  14.534  67.829  1.00  0.00    -0.222 OA 
BRANCH   4   7
HETATM    7  C   UNL     1     -11.508  12.694  67.932  1.00  0.00    -0.309 C  
HETATM    8  H   UNL     1     -12.986  11.595  67.226  1.00  0.00     0.000 HD 
HETATM    9  O   UNL     1     -12.129  11.885  66.934  1.00  0.00    -0.599 OA 
BRANCH   7  10
HETATM   10  C   UNL     1     -11.415  11.903  69.262  1.00  0.00    -0.306 C  
HETATM   11  H   UNL     1     -10.943  10.052  69.861  1.00  0.00     0.000 HD 
HETATM   12  O   UNL     1     -11.000  10.538  69.046  1.00  0.00    -0.213 OA 
BRANCH  10  13
HETATM   13  C   UNL     1     -12.732  11.886  70.049  1.00  0.00     0.242 C  
HETATM   14  C   UNL     1     -12.766  12.842  71.256  1.00  0.00    -0.269 C  
HETATM   15  O   UNL     1     -13.060  10.540  70.400  1.00  0.00    -0.434 OA 
HETATM   16  O   UNL     1     -12.212  14.058  71.048  1.00  0.00    -0.335 OA 
HETATM   17  O   UNL     1     -13.311  12.542  72.314  1.00  0.00    -0.525 OA 
HETATM   18  H   UNL     1     -13.876  10.530  70.887  1.00  0.00     0.000 HD 
ENDBRANCH  10  13
ENDBRANCH   7  10
ENDBRANCH   4   7
ENDBRANCH   2   4
TORSDOF 4
ENDMDL
MODEL      170
REMARK 921   NORMALIZED FREE ENERGY PREDICTED BY IDOCK:   -2.97 KCAL/MOL
REMARK 922        TOTAL FREE ENERGY PREDICTED BY IDOCK:   -4.14 KCAL/MOL
REMARK 923 INTER-LIGAND FREE ENERGY PREDICTED BY IDOCK:   -3.95 KCAL/MOL
REMARK 924 INTRA-LIGAND FREE ENERGY PREDICTED BY IDOCK:   -0.19 KCAL/MOL
REMARK 927      BINDING AFFINITY PREDICTED BY RF-SCORE:    0.00 PKD
ROOT
HETATM    1  O   UNL     1     -13.169  14.999  70.660  1.00  0.00    -0.578 OA 
HETATM    2  C   UNL     1     -12.534  14.941  69.379  1.00  0.00    -0.039 C  
HETATM    3  H   UNL     1     -13.949  14.458  70.628  1.00  0.00     0.000 HD 
ENDROOT
BRANCH   2   4
HETATM    4  C   UNL     1     -11.275  15.813  69.431  1.00  0.00    -0.324 C  
HETATM    5  H   UNL     1      -9.939  16.256  70.783  1.00  0.00     0.000 HD 
HETATM    6  O   UNL     1     -10.719  15.715  70.750  1.00  0.00    -0.303 OA 
BRANCH   4   7
HETATM    7  C   UNL     1     -10.224  15.396  68.388  1.00  0.00    -0.221 C  
HETATM    8  H   UNL     1      -8.265  15.499  68.183  1.00  0.00     0.000 HD 
HETATM    9  O   UNL     1      -8.915  15.757  68.827  1.00  0.00    -0.187 OA 
BRANCH   7  10
HETATM   10  C   UNL     1     -10.279  13.873  68.107  1.00  0.00    -0.249 C  
HETATM   11  H   UNL     1      -9.020  12.316  68.095  1.00  0.00     0.000 HD 
HETATM   12  O   UNL     1      -8.987  13.251  68.268  1.00  0.00    -0.187 OA 
BRANCH  10  13
HETATM   13  C   UNL     1     -10.804  13.535  66.706  1.00  0.00    -0.282 C  
HETATM   14  C   UNL     1     -11.184  12.056  66.507  1.00  0.00    -0.334 C  
HETATM   15  O   UNL     1      -9.880  14.006  65.723  1.00  0.00    -0.382 OA 
HETATM   16  O   UNL     1     -11.836  11.480  67.542  1.00  0.00    -0.605 OA 
HETATM   17  O   UNL     1     -10.963  11.458  65.458  1.00  0.00    -0.261 OA 
HETATM   18  H   UNL     1     -10.205  13.796  64.855  1.00  0.00     0.000 HD 
ENDBRANCH  10  13
ENDBRANCH   7  10
ENDBRANCH   4   7
ENDBRANCH   2   4
TORSDOF 4
ENDMDL
MODEL      171
REMARK 921   NORMALIZED FREE ENERGY PREDICTED BY IDOCK:   -2.96 KCAL/MOL
REMARK 922        TOTAL FREE ENERGY PREDICTED BY IDOCK:   -4.12 KCAL/MOL
REMARK 923 INTER-LIGAND FREE ENERGY PREDICTED BY IDOCK:   -3.61 KCAL/MOL
REMARK 924 INTRA-LIGAND FREE ENERGY PREDICTED BY IDOCK:   -0.51 KCAL/MOL
REMARK 927      BINDING AFFINITY PREDICTED BY RF-SCORE:    0.00 PKD
ROOT
HETATM    1  O   UNL     1      -7.562  18.009  67.588  1.00  0.00    -0.212 OA 
HETATM    2  C   UNL     1      -7.151  17.240  68.721  1.00  0.00    -0.238 C  
HETATM    3  H   UNL     1      -6.955  18.732  67.485  1.00  0.00     0.000 HD 
ENDROOT
BRANCH   2   4
HETATM    4  C   UNL     1      -8.131  16.073  68.887  1.00  0.00    -0.218 C  
HETATM    5  H   UNL     1      -8.163  14.411  69.908  1.00  0.00     0.000 HD 
HETATM    6  O   UNL     1      -7.555  15.134  69.805  1.00  0.00    -0.206 OA 
BRANCH   4   7
HETATM    7  C   UNL     1      -9.509  16.528  69.399  1.00  0.00    -0.068 C  
HETATM    8  H   UNL     1     -11.016  17.614  68.735  1.00  0.00     0.000 HD 
HETATM    9  O   UNL     1     -10.165  17.333  68.419  1.00  0.00    -0.313 OA 
BRANCH   7  10
HETATM   10  C   UNL     1     -10.406  15.318  69.765  1.00  0.00    -0.254 C  
HETATM   11  H   UNL     1     -10.892  13.538  68.987  1.00  0.00     0.000 HD 
HETATM   12  O   UNL     1     -10.342  14.281  68.763  1.00  0.00    -0.237 OA 
BRANCH  10  13
HETATM   13  C   UNL     1     -11.878  15.696  69.971  1.00  0.00    -0.367 C  
HETATM   14  C   UNL     1     -12.557  14.990  71.159  1.00  0.00    -0.348 C  
HETATM   15  O   UNL     1     -12.591  15.525  68.745  1.00  0.00    -0.415 OA 
HETATM   16  O   UNL     1     -11.806  14.887  72.280  1.00  0.00    -0.347 OA 
HETATM   17  O   UNL     1     -13.720  14.601  71.113  1.00  0.00    -0.386 OA 
HETATM   18  H   UNL     1     -13.503  15.760  68.873  1.00  0.00     0.000 HD 
ENDBRANCH  10  13
ENDBRANCH   7  10
ENDBRANCH   4   7
ENDBRANCH   2   4
TORSDOF 4
ENDMDL
MODEL      172
REMARK 921   NORMALIZED FREE ENERGY PREDICTED BY IDOCK:   -2.96 KCAL/MOL
REMARK 922        TOTAL FREE ENERGY PREDICTED BY IDOCK:   -4.12 KCAL/MOL
REMARK 923 INTER-LIGAND FREE ENERGY PREDICTED BY IDOCK:   -3.68 KCAL/MOL
REMARK 924 INTRA-LIGAND FREE ENERGY PREDICTED BY IDOCK:   -0.44 KCAL/MOL
REMARK 927      BINDING AFFINITY PREDICTED BY RF-SCORE:    0.00 PKD
ROOT
HETATM    1  O   UNL     1     -12.488  15.858  69.620  1.00  0.00    -0.450 OA 
HETATM    2  C   UNL     1     -11.434  14.904  69.459  1.00  0.00    -0.297 C  
HETATM    3  H   UNL     1     -13.003  15.604  70.376  1.00  0.00     0.000 HD 
ENDROOT
BRANCH   2   4
HETATM    4  C   UNL     1     -10.602  15.314  68.239  1.00  0.00    -0.244 C  
HETATM    5  H   UNL     1     -10.813  15.197  66.303  1.00  0.00     0.000 HD 
HETATM    6  O   UNL     1     -11.329  14.943  67.059  1.00  0.00    -0.343 OA 
BRANCH   4   7
HETATM    7  C   UNL     1     -10.297  16.822  68.212  1.00  0.00    -0.319 C  
HETATM    8  H   UNL     1      -9.911  18.246  69.521  1.00  0.00     0.000 HD 
HETATM    9  O   UNL     1     -10.100  17.315  69.538  1.00  0.00    -0.148 OA 
BRANCH   7  10
HETATM   10  C   UNL     1      -9.048  17.132  67.349  1.00  0.00    -0.224 C  
HETATM   11  H   UNL     1      -7.235  16.349  67.021  1.00  0.00     0.000 HD 
HETATM   12  O   UNL     1      -8.001  16.159  67.551  1.00  0.00    -0.139 OA 
BRANCH  10  13
HETATM   13  C   UNL     1      -8.464  18.527  67.609  1.00  0.00    -0.263 C  
HETATM   14  C   UNL     1      -8.639  19.519  66.444  1.00  0.00    -0.360 C  
HETATM   15  O   UNL     1      -7.104  18.403  68.030  1.00  0.00    -0.222 OA 
HETATM   16  O   UNL     1      -9.843  19.483  65.828  1.00  0.00    -0.403 OA 
HETATM   17  O   UNL     1      -7.769  20.328  66.136  1.00  0.00    -0.268 OA 
HETATM   18  H   UNL     1      -6.742  19.267  68.191  1.00  0.00     0.000 HD 
ENDBRANCH  10  13
ENDBRANCH   7  10
ENDBRANCH   4   7
ENDBRANCH   2   4
TORSDOF 4
ENDMDL
MODEL      173
REMARK 921   NORMALIZED FREE ENERGY PREDICTED BY IDOCK:   -2.96 KCAL/MOL
REMARK 922        TOTAL FREE ENERGY PREDICTED BY IDOCK:   -4.12 KCAL/MOL
REMARK 923 INTER-LIGAND FREE ENERGY PREDICTED BY IDOCK:   -3.71 KCAL/MOL
REMARK 924 INTRA-LIGAND FREE ENERGY PREDICTED BY IDOCK:   -0.41 KCAL/MOL
REMARK 927      BINDING AFFINITY PREDICTED BY RF-SCORE:    0.00 PKD
ROOT
HETATM    1  O   UNL     1      -8.012   5.614  69.611  1.00  0.00    -0.092 OA 
HETATM    2  C   UNL     1      -8.857   6.701  69.222  1.00  0.00    -0.133 C  
HETATM    3  H   UNL     1      -7.242   5.626  69.055  1.00  0.00     0.000 HD 
ENDROOT
BRANCH   2   4
HETATM    4  C   UNL     1     -10.099   6.683  70.119  1.00  0.00    -0.178 C  
HETATM    5  H   UNL     1     -11.589   5.458  70.415  1.00  0.00     0.000 HD 
HETATM    6  O   UNL     1     -10.819   5.469  69.860  1.00  0.00    -0.326 OA 
BRANCH   4   7
HETATM    7  C   UNL     1      -9.749   6.774  71.615  1.00  0.00    -0.162 C  
HETATM    8  H   UNL     1      -8.204   7.324  72.711  1.00  0.00     0.000 HD 
HETATM    9  O   UNL     1      -8.421   7.267  71.787  1.00  0.00    -0.111 OA 
BRANCH   7  10
HETATM   10  C   UNL     1     -10.746   7.685  72.375  1.00  0.00    -0.280 C  
HETATM   11  H   UNL     1     -11.402   7.933  74.251  1.00  0.00     0.000 HD 
HETATM   12  O   UNL     1     -10.791   7.374  73.784  1.00  0.00    -0.321 OA 
BRANCH  10  13
HETATM   13  C   UNL     1     -12.175   7.614  71.822  1.00  0.00    -0.311 C  
HETATM   14  C   UNL     1     -13.025   8.870  72.087  1.00  0.00    -0.416 C  
HETATM   15  O   UNL     1     -12.803   6.414  72.278  1.00  0.00    -0.551 OA 
HETATM   16  O   UNL     1     -12.383  10.050  71.927  1.00  0.00    -0.374 OA 
HETATM   17  O   UNL     1     -14.219   8.807  72.366  1.00  0.00    -0.458 OA 
HETATM   18  H   UNL     1     -13.689   6.370  71.935  1.00  0.00     0.000 HD 
ENDBRANCH  10  13
ENDBRANCH   7  10
ENDBRANCH   4   7
ENDBRANCH   2   4
TORSDOF 4
ENDMDL
MODEL      174
REMARK 921   NORMALIZED FREE ENERGY PREDICTED BY IDOCK:   -2.95 KCAL/MOL
REMARK 922        TOTAL FREE ENERGY PREDICTED BY IDOCK:   -4.11 KCAL/MOL
REMARK 923 INTER-LIGAND FREE ENERGY PREDICTED BY IDOCK:   -3.61 KCAL/MOL
REMARK 924 INTRA-LIGAND FREE ENERGY PREDICTED BY IDOCK:   -0.50 KCAL/MOL
REMARK 927      BINDING AFFINITY PREDICTED BY RF-SCORE:    0.00 PKD
ROOT
HETATM    1  O   UNL     1     -11.795   5.891  72.910  1.00  0.00    -0.515 OA 
HETATM    2  C   UNL     1     -10.600   6.639  72.670  1.00  0.00    -0.222 C  
HETATM    3  H   UNL     1     -11.944   5.866  73.848  1.00  0.00     0.000 HD 
ENDROOT
BRANCH   2   4
HETATM    4  C   UNL     1     -10.360   6.681  71.157  1.00  0.00    -0.206 C  
HETATM    5  H   UNL     1     -10.429   5.388  69.697  1.00  0.00     0.000 HD 
HETATM    6  O   UNL     1     -10.577   5.362  70.635  1.00  0.00    -0.263 OA 
BRANCH   4   7
HETATM    7  C   UNL     1     -11.279   7.685  70.440  1.00  0.00    -0.244 C  
HETATM    8  H   UNL     1     -12.495   9.154  70.946  1.00  0.00     0.000 HD 
HETATM    9  O   UNL     1     -11.927   8.534  71.388  1.00  0.00    -0.284 OA 
BRANCH   7  10
HETATM   10  C   UNL     1     -10.492   8.547  69.421  1.00  0.00    -0.218 C  
HETATM   11  H   UNL     1      -8.717   8.506  68.496  1.00  0.00     0.000 HD 
HETATM   12  O   UNL     1      -9.200   7.978  69.121  1.00  0.00    -0.151 OA 
BRANCH  10  13
HETATM   13  C   UNL     1     -10.282   9.994  69.887  1.00  0.00    -0.260 C  
HETATM   14  C   UNL     1     -10.680  11.061  68.851  1.00  0.00    -0.211 C  
HETATM   15  O   UNL     1      -8.943  10.154  70.359  1.00  0.00    -0.295 OA 
HETATM   16  O   UNL     1     -11.824  10.814  68.173  1.00  0.00    -0.533 OA 
HETATM   17  O   UNL     1     -10.036  12.094  68.694  1.00  0.00    -0.212 OA 
HETATM   18  H   UNL     1      -8.814  11.050  70.648  1.00  0.00     0.000 HD 
ENDBRANCH  10  13
ENDBRANCH   7  10
ENDBRANCH   4   7
ENDBRANCH   2   4
TORSDOF 4
ENDMDL
MODEL      175
REMARK 921   NORMALIZED FREE ENERGY PREDICTED BY IDOCK:   -2.95 KCAL/MOL
REMARK 922        TOTAL FREE ENERGY PREDICTED BY IDOCK:   -4.11 KCAL/MOL
REMARK 923 INTER-LIGAND FREE ENERGY PREDICTED BY IDOCK:   -3.51 KCAL/MOL
REMARK 924 INTRA-LIGAND FREE ENERGY PREDICTED BY IDOCK:   -0.60 KCAL/MOL
REMARK 927      BINDING AFFINITY PREDICTED BY RF-SCORE:    0.00 PKD
ROOT
HETATM    1  O   UNL     1     -10.888  11.405  69.726  1.00  0.00    -0.447 OA 
HETATM    2  C   UNL     1     -10.640  11.045  68.363  1.00  0.00    -0.193 C  
HETATM    3  H   UNL     1     -11.550  10.818  70.070  1.00  0.00     0.000 HD 
ENDROOT
BRANCH   2   4
HETATM    4  C   UNL     1      -9.572  11.993  67.807  1.00  0.00    -0.193 C  
HETATM    5  H   UNL     1      -7.985  11.803  66.688  1.00  0.00     0.000 HD 
HETATM    6  O   UNL     1      -8.647  11.216  67.033  1.00  0.00    -0.139 OA 
BRANCH   4   7
HETATM    7  C   UNL     1     -10.170  13.112  66.938  1.00  0.00    -0.245 C  
HETATM    8  H   UNL     1     -11.908  14.025  66.744  1.00  0.00     0.000 HD 
HETATM    9  O   UNL     1     -11.539  13.333  67.280  1.00  0.00    -0.319 OA 
BRANCH   7  10
HETATM   10  C   UNL     1      -9.375  14.434  67.090  1.00  0.00    -0.220 C  
HETATM   11  H   UNL     1      -8.024  15.222  68.340  1.00  0.00     0.000 HD 
HETATM   12  O   UNL     1      -8.512  14.411  68.246  1.00  0.00    -0.150 OA 
BRANCH  10  13
HETATM   13  C   UNL     1     -10.274  15.673  67.187  1.00  0.00    -0.270 C  
HETATM   14  C   UNL     1      -9.581  16.995  66.805  1.00  0.00    -0.264 C  
HETATM   15  O   UNL     1     -10.884  15.721  68.478  1.00  0.00    -0.262 OA 
HETATM   16  O   UNL     1      -8.767  16.933  65.727  1.00  0.00    -0.512 OA 
HETATM   17  O   UNL     1      -9.800  18.045  67.401  1.00  0.00    -0.291 OA 
HETATM   18  H   UNL     1     -11.441  16.489  68.538  1.00  0.00     0.000 HD 
ENDBRANCH  10  13
ENDBRANCH   7  10
ENDBRANCH   4   7
ENDBRANCH   2   4
TORSDOF 4
ENDMDL
MODEL      176
REMARK 921   NORMALIZED FREE ENERGY PREDICTED BY IDOCK:   -2.95 KCAL/MOL
REMARK 922        TOTAL FREE ENERGY PREDICTED BY IDOCK:   -4.10 KCAL/MOL
REMARK 923 INTER-LIGAND FREE ENERGY PREDICTED BY IDOCK:   -3.88 KCAL/MOL
REMARK 924 INTRA-LIGAND FREE ENERGY PREDICTED BY IDOCK:   -0.23 KCAL/MOL
REMARK 927      BINDING AFFINITY PREDICTED BY RF-SCORE:    0.00 PKD
ROOT
HETATM    1  O   UNL     1     -10.998  19.016  67.453  1.00  0.00    -0.459 OA 
HETATM    2  C   UNL     1      -9.722  18.743  68.041  1.00  0.00    -0.325 C  
HETATM    3  H   UNL     1     -11.419  19.697  67.964  1.00  0.00     0.000 HD 
ENDROOT
BRANCH   2   4
HETATM    4  C   UNL     1      -9.042  17.646  67.215  1.00  0.00    -0.237 C  
HETATM    5  H   UNL     1      -7.710  16.263  67.561  1.00  0.00     0.000 HD 
HETATM    6  O   UNL     1      -8.132  16.943  68.072  1.00  0.00    -0.185 OA 
BRANCH   4   7
HETATM    7  C   UNL     1     -10.050  16.659  66.601  1.00  0.00    -0.301 C  
HETATM    8  H   UNL     1     -10.608  16.092  64.796  1.00  0.00     0.000 HD 
HETATM    9  O   UNL     1      -9.986  16.702  65.175  1.00  0.00    -0.473 OA 
BRANCH   7  10
HETATM   10  C   UNL     1      -9.795  15.210  67.090  1.00  0.00    -0.228 C  
HETATM   11  H   UNL     1      -8.885  13.555  66.428  1.00  0.00     0.000 HD 
HETATM   12  O   UNL     1      -9.041  14.443  66.128  1.00  0.00    -0.171 OA 
BRANCH  10  13
HETATM   13  C   UNL     1     -11.084  14.444  67.412  1.00  0.00    -0.308 C  
HETATM   14  C   UNL     1     -11.566  14.589  68.867  1.00  0.00    -0.309 C  
HETATM   15  O   UNL     1     -10.942  13.081  67.009  1.00  0.00    -0.258 OA 
HETATM   16  O   UNL     1     -11.467  15.832  69.390  1.00  0.00    -0.306 OA 
HETATM   17  O   UNL     1     -12.063  13.654  69.489  1.00  0.00    -0.318 OA 
HETATM   18  H   UNL     1     -11.741  12.606  67.208  1.00  0.00     0.000 HD 
ENDBRANCH  10  13
ENDBRANCH   7  10
ENDBRANCH   4   7
ENDBRANCH   2   4
TORSDOF 4
ENDMDL
MODEL      177
REMARK 921   NORMALIZED FREE ENERGY PREDICTED BY IDOCK:   -2.94 KCAL/MOL
REMARK 922        TOTAL FREE ENERGY PREDICTED BY IDOCK:   -4.10 KCAL/MOL
REMARK 923 INTER-LIGAND FREE ENERGY PREDICTED BY IDOCK:   -3.96 KCAL/MOL
REMARK 924 INTRA-LIGAND FREE ENERGY PREDICTED BY IDOCK:   -0.14 KCAL/MOL
REMARK 927      BINDING AFFINITY PREDICTED BY RF-SCORE:    0.00 PKD
ROOT
HETATM    1  O   UNL     1     -10.101  11.577  69.512  1.00  0.00    -0.406 OA 
HETATM    2  C   UNL     1     -11.088  10.674  69.004  1.00  0.00    -0.254 C  
HETATM    3  H   UNL     1     -10.529  12.402  69.707  1.00  0.00     0.000 HD 
ENDROOT
BRANCH   2   4
HETATM    4  C   UNL     1     -10.398   9.342  68.689  1.00  0.00    -0.203 C  
HETATM    5  H   UNL     1      -8.589   8.785  68.215  1.00  0.00     0.000 HD 
HETATM    6  O   UNL     1      -9.016   9.611  68.411  1.00  0.00    -0.123 OA 
BRANCH   4   7
HETATM    7  C   UNL     1     -10.513   8.330  69.842  1.00  0.00    -0.223 C  
HETATM    8  H   UNL     1      -9.308   7.134  70.846  1.00  0.00     0.000 HD 
HETATM    9  O   UNL     1      -9.237   7.759  70.133  1.00  0.00    -0.153 OA 
BRANCH   7  10
HETATM   10  C   UNL     1     -11.092   8.990  71.119  1.00  0.00    -0.301 C  
HETATM   11  H   UNL     1     -10.599   9.179  73.050  1.00  0.00     0.000 HD 
HETATM   12  O   UNL     1     -10.244   8.775  72.267  1.00  0.00    -0.313 OA 
BRANCH  10  13
HETATM   13  C   UNL     1     -12.504   8.500  71.466  1.00  0.00    -0.317 C  
HETATM   14  C   UNL     1     -13.346   9.504  72.276  1.00  0.00    -0.441 C  
HETATM   15  O   UNL     1     -12.424   7.217  72.089  1.00  0.00    -0.458 OA 
HETATM   16  O   UNL     1     -13.243  10.795  71.886  1.00  0.00    -0.469 OA 
HETATM   17  O   UNL     1     -14.104   9.149  73.173  1.00  0.00    -0.298 OA 
HETATM   18  H   UNL     1     -13.298   6.913  72.304  1.00  0.00     0.000 HD 
ENDBRANCH  10  13
ENDBRANCH   7  10
ENDBRANCH   4   7
ENDBRANCH   2   4
TORSDOF 4
ENDMDL
MODEL      178
REMARK 921   NORMALIZED FREE ENERGY PREDICTED BY IDOCK:   -2.93 KCAL/MOL
REMARK 922        TOTAL FREE ENERGY PREDICTED BY IDOCK:   -4.09 KCAL/MOL
REMARK 923 INTER-LIGAND FREE ENERGY PREDICTED BY IDOCK:   -4.18 KCAL/MOL
REMARK 924 INTRA-LIGAND FREE ENERGY PREDICTED BY IDOCK:    0.10 KCAL/MOL
REMARK 927      BINDING AFFINITY PREDICTED BY RF-SCORE:    0.00 PKD
ROOT
HETATM    1  O   UNL     1      -9.984  13.219  63.710  1.00  0.00    -0.699 OA 
HETATM    2  C   UNL     1     -11.108  12.337  63.627  1.00  0.00    -0.469 C  
HETATM    3  H   UNL     1     -10.220  14.038  63.291  1.00  0.00     0.000 HD 
ENDROOT
BRANCH   2   4
HETATM    4  C   UNL     1     -10.728  11.015  64.303  1.00  0.00    -0.278 C  
HETATM    5  H   UNL     1      -9.150   9.868  64.334  1.00  0.00     0.000 HD 
HETATM    6  O   UNL     1      -9.385  10.687  63.916  1.00  0.00    -0.221 OA 
BRANCH   4   7
HETATM    7  C   UNL     1     -10.828  11.086  65.836  1.00  0.00    -0.115 C  
HETATM    8  H   UNL     1     -10.166  10.053  67.381  1.00  0.00     0.000 HD 
HETATM    9  O   UNL     1     -10.104  10.009  66.434  1.00  0.00    -0.227 OA 
BRANCH   7  10
HETATM   10  C   UNL     1     -10.294  12.436  66.378  1.00  0.00    -0.234 C  
HETATM   11  H   UNL     1      -8.535  13.241  66.893  1.00  0.00     0.000 HD 
HETATM   12  O   UNL     1      -8.863  12.413  66.561  1.00  0.00    -0.191 OA 
BRANCH  10  13
HETATM   13  C   UNL     1     -10.941  12.855  67.704  1.00  0.00    -0.247 C  
HETATM   14  C   UNL     1     -11.826  14.112  67.613  1.00  0.00    -0.392 C  
HETATM   15  O   UNL     1      -9.936  12.957  68.714  1.00  0.00    -0.391 OA 
HETATM   16  O   UNL     1     -12.613  14.190  66.516  1.00  0.00    -0.394 OA 
HETATM   17  O   UNL     1     -11.859  14.956  68.504  1.00  0.00    -0.326 OA 
HETATM   18  H   UNL     1     -10.337  13.217  69.536  1.00  0.00     0.000 HD 
ENDBRANCH  10  13
ENDBRANCH   7  10
ENDBRANCH   4   7
ENDBRANCH   2   4
TORSDOF 4
ENDMDL
MODEL      179
REMARK 921   NORMALIZED FREE ENERGY PREDICTED BY IDOCK:   -2.93 KCAL/MOL
REMARK 922        TOTAL FREE ENERGY PREDICTED BY IDOCK:   -4.08 KCAL/MOL
REMARK 923 INTER-LIGAND FREE ENERGY PREDICTED BY IDOCK:   -3.83 KCAL/MOL
REMARK 924 INTRA-LIGAND FREE ENERGY PREDICTED BY IDOCK:   -0.25 KCAL/MOL
REMARK 927      BINDING AFFINITY PREDICTED BY RF-SCORE:    0.00 PKD
ROOT
HETATM    1  O   UNL     1     -10.735  19.010  67.265  1.00  0.00    -0.452 OA 
HETATM    2  C   UNL     1      -9.628  18.419  67.951  1.00  0.00    -0.293 C  
HETATM    3  H   UNL     1     -10.530  19.924  67.106  1.00  0.00     0.000 HD 
ENDROOT
BRANCH   2   4
HETATM    4  C   UNL     1      -9.958  16.944  68.207  1.00  0.00    -0.282 C  
HETATM    5  H   UNL     1     -10.806  15.934  69.644  1.00  0.00     0.000 HD 
HETATM    6  O   UNL     1     -10.602  16.847  69.486  1.00  0.00    -0.327 OA 
BRANCH   4   7
HETATM    7  C   UNL     1     -10.865  16.344  67.118  1.00  0.00    -0.169 C  
HETATM    8  H   UNL     1     -10.886  16.234  65.149  1.00  0.00     0.000 HD 
HETATM    9  O   UNL     1     -10.327  16.605  65.822  1.00  0.00    -0.389 OA 
BRANCH   7  10
HETATM   10  C   UNL     1     -11.046  14.817  67.310  1.00  0.00    -0.332 C  
HETATM   11  H   UNL     1     -12.012  13.579  68.551  1.00  0.00     0.000 HD 
HETATM   12  O   UNL     1     -11.901  14.515  68.433  1.00  0.00    -0.323 OA 
BRANCH  10  13
HETATM   13  C   UNL     1      -9.721  14.069  67.500  1.00  0.00    -0.232 C  
HETATM   14  C   UNL     1      -9.511  12.888  66.534  1.00  0.00    -0.251 C  
HETATM   15  O   UNL     1      -9.577  13.694  68.871  1.00  0.00    -0.405 OA 
HETATM   16  O   UNL     1      -9.891  13.110  65.255  1.00  0.00    -0.196 OA 
HETATM   17  O   UNL     1      -8.979  11.840  66.887  1.00  0.00    -0.182 OA 
HETATM   18  H   UNL     1      -8.755  13.231  68.989  1.00  0.00     0.000 HD 
ENDBRANCH  10  13
ENDBRANCH   7  10
ENDBRANCH   4   7
ENDBRANCH   2   4
TORSDOF 4
ENDMDL
MODEL      180
REMARK 921   NORMALIZED FREE ENERGY PREDICTED BY IDOCK:   -2.92 KCAL/MOL
REMARK 922        TOTAL FREE ENERGY PREDICTED BY IDOCK:   -4.07 KCAL/MOL
REMARK 923 INTER-LIGAND FREE ENERGY PREDICTED BY IDOCK:   -3.98 KCAL/MOL
REMARK 924 INTRA-LIGAND FREE ENERGY PREDICTED BY IDOCK:   -0.09 KCAL/MOL
REMARK 927      BINDING AFFINITY PREDICTED BY RF-SCORE:    0.00 PKD
ROOT
HETATM    1  O   UNL     1     -12.085  11.137  67.597  1.00  0.00    -0.541 OA 
HETATM    2  C   UNL     1     -10.794  10.569  67.838  1.00  0.00    -0.282 C  
HETATM    3  H   UNL     1     -12.303  10.998  66.683  1.00  0.00     0.000 HD 
ENDROOT
BRANCH   2   4
HETATM    4  C   UNL     1     -10.442  10.794  69.312  1.00  0.00    -0.217 C  
HETATM    5  H   UNL     1     -11.440  11.206  70.938  1.00  0.00     0.000 HD 
HETATM    6  O   UNL     1     -11.658  11.066  70.024  1.00  0.00    -0.291 OA 
BRANCH   4   7
HETATM    7  C   UNL     1      -9.729   9.583  69.940  1.00  0.00    -0.224 C  
HETATM    8  H   UNL     1      -7.889   9.091  70.453  1.00  0.00     0.000 HD 
HETATM    9  O   UNL     1      -8.330   9.838  70.065  1.00  0.00    -0.173 OA 
BRANCH   7  10
HETATM   10  C   UNL     1     -10.321   9.235  71.330  1.00  0.00    -0.327 C  
HETATM   11  H   UNL     1      -9.651   8.754  73.154  1.00  0.00     0.000 HD 
HETATM   12  O   UNL     1      -9.288   8.968  72.302  1.00  0.00    -0.333 OA 
BRANCH  10  13
HETATM   13  C   UNL     1     -11.273   8.033  71.298  1.00  0.00    -0.256 C  
HETATM   14  C   UNL     1     -10.746   6.823  70.503  1.00  0.00    -0.238 C  
HETATM   15  O   UNL     1     -12.566   8.459  70.864  1.00  0.00    -0.499 OA 
HETATM   16  O   UNL     1      -9.436   6.540  70.678  1.00  0.00    -0.165 OA 
HETATM   17  O   UNL     1     -11.479   6.128  69.806  1.00  0.00    -0.433 OA 
HETATM   18  H   UNL     1     -13.156   7.714  70.845  1.00  0.00     0.000 HD 
ENDBRANCH  10  13
ENDBRANCH   7  10
ENDBRANCH   4   7
ENDBRANCH   2   4
TORSDOF 4
ENDMDL
MODEL      181
REMARK 921   NORMALIZED FREE ENERGY PREDICTED BY IDOCK:   -2.91 KCAL/MOL
REMARK 922        TOTAL FREE ENERGY PREDICTED BY IDOCK:   -4.06 KCAL/MOL
REMARK 923 INTER-LIGAND FREE ENERGY PREDICTED BY IDOCK:   -3.91 KCAL/MOL
REMARK 924 INTRA-LIGAND FREE ENERGY PREDICTED BY IDOCK:   -0.15 KCAL/MOL
REMARK 927      BINDING AFFINITY PREDICTED BY RF-SCORE:    0.00 PKD
ROOT
HETATM    1  O   UNL     1      -6.154  20.620  69.850  1.00  0.00    -0.371 OA 
HETATM    2  C   UNL     1      -7.085  19.599  69.480  1.00  0.00    -0.233 C  
HETATM    3  H   UNL     1      -6.491  21.061  70.621  1.00  0.00     0.000 HD 
ENDROOT
BRANCH   2   4
HETATM    4  C   UNL     1      -6.541  18.886  68.238  1.00  0.00    -0.235 C  
HETATM    5  H   UNL     1      -4.944  17.850  67.809  1.00  0.00     0.000 HD 
HETATM    6  O   UNL     1      -5.281  18.292  68.580  1.00  0.00    -0.162 OA 
BRANCH   4   7
HETATM    7  C   UNL     1      -7.502  17.806  67.709  1.00  0.00    -0.204 C  
HETATM    8  H   UNL     1      -9.117  16.867  68.342  1.00  0.00     0.000 HD 
HETATM    9  O   UNL     1      -8.523  17.533  68.668  1.00  0.00    -0.276 OA 
BRANCH   7  10
HETATM   10  C   UNL     1      -8.148  18.231  66.366  1.00  0.00    -0.258 C  
HETATM   11  H   UNL     1      -7.554  18.899  64.575  1.00  0.00     0.000 HD 
HETATM   12  O   UNL     1      -7.158  18.638  65.398  1.00  0.00    -0.517 OA 
BRANCH  10  13
HETATM   13  C   UNL     1      -9.167  19.367  66.517  1.00  0.00    -0.356 C  
HETATM   14  C   UNL     1     -10.413  19.230  65.622  1.00  0.00    -0.227 C  
HETATM   15  O   UNL     1      -8.507  20.625  66.358  1.00  0.00    -0.525 OA 
HETATM   16  O   UNL     1     -10.924  17.982  65.526  1.00  0.00    -0.313 OA 
HETATM   17  O   UNL     1     -10.942  20.197  65.082  1.00  0.00    -0.231 OA 
HETATM   18  H   UNL     1      -9.139  21.328  66.452  1.00  0.00     0.000 HD 
ENDBRANCH  10  13
ENDBRANCH   7  10
ENDBRANCH   4   7
ENDBRANCH   2   4
TORSDOF 4
ENDMDL
MODEL      182
REMARK 921   NORMALIZED FREE ENERGY PREDICTED BY IDOCK:   -2.89 KCAL/MOL
REMARK 922        TOTAL FREE ENERGY PREDICTED BY IDOCK:   -4.04 KCAL/MOL
REMARK 923 INTER-LIGAND FREE ENERGY PREDICTED BY IDOCK:   -3.72 KCAL/MOL
REMARK 924 INTRA-LIGAND FREE ENERGY PREDICTED BY IDOCK:   -0.32 KCAL/MOL
REMARK 927      BINDING AFFINITY PREDICTED BY RF-SCORE:    0.00 PKD
ROOT
HETATM    1  O   UNL     1      -5.666  20.901  69.950  1.00  0.00    -0.468 OA 
HETATM    2  C   UNL     1      -6.727  20.202  69.292  1.00  0.00    -0.228 C  
HETATM    3  H   UNL     1      -5.957  21.789  70.118  1.00  0.00     0.000 HD 
ENDROOT
BRANCH   2   4
HETATM    4  C   UNL     1      -6.257  18.769  69.021  1.00  0.00    -0.240 C  
HETATM    5  H   UNL     1      -5.304  17.398  70.031  1.00  0.00     0.000 HD 
HETATM    6  O   UNL     1      -5.595  18.286  70.200  1.00  0.00    -0.230 OA 
BRANCH   4   7
HETATM    7  C   UNL     1      -7.416  17.828  68.650  1.00  0.00    -0.274 C  
HETATM    8  H   UNL     1      -9.388  17.884  68.656  1.00  0.00     0.000 HD 
HETATM    9  O   UNL     1      -8.672  18.465  68.886  1.00  0.00    -0.258 OA 
BRANCH   7  10
HETATM   10  C   UNL     1      -7.330  17.378  67.170  1.00  0.00    -0.172 C  
HETATM   11  H   UNL     1      -7.111  15.673  66.143  1.00  0.00     0.000 HD 
HETATM   12  O   UNL     1      -7.164  15.949  67.051  1.00  0.00    -0.213 OA 
BRANCH  10  13
HETATM   13  C   UNL     1      -6.193  18.059  66.396  1.00  0.00    -0.201 C  
HETATM   14  C   UNL     1      -6.660  18.947  65.228  1.00  0.00    -0.221 C  
HETATM   15  O   UNL     1      -5.234  17.078  65.996  1.00  0.00    -0.333 OA 
HETATM   16  O   UNL     1      -7.750  19.709  65.477  1.00  0.00    -0.411 OA 
HETATM   17  O   UNL     1      -6.050  19.006  64.165  1.00  0.00    -0.469 OA 
HETATM   18  H   UNL     1      -4.530  17.500  65.517  1.00  0.00     0.000 HD 
ENDBRANCH  10  13
ENDBRANCH   7  10
ENDBRANCH   4   7
ENDBRANCH   2   4
TORSDOF 4
ENDMDL
MODEL      183
REMARK 921   NORMALIZED FREE ENERGY PREDICTED BY IDOCK:   -2.89 KCAL/MOL
REMARK 922        TOTAL FREE ENERGY PREDICTED BY IDOCK:   -4.03 KCAL/MOL
REMARK 923 INTER-LIGAND FREE ENERGY PREDICTED BY IDOCK:   -3.61 KCAL/MOL
REMARK 924 INTRA-LIGAND FREE ENERGY PREDICTED BY IDOCK:   -0.42 KCAL/MOL
REMARK 927      BINDING AFFINITY PREDICTED BY RF-SCORE:    0.00 PKD
ROOT
HETATM    1  O   UNL     1      -5.633  16.333  67.954  1.00  0.00    -0.106 OA 
HETATM    2  C   UNL     1      -6.015  14.976  68.196  1.00  0.00    -0.138 C  
HETATM    3  H   UNL     1      -4.687  16.364  67.876  1.00  0.00     0.000 HD 
ENDROOT
BRANCH   2   4
HETATM    4  C   UNL     1      -7.542  14.927  68.322  1.00  0.00    -0.113 C  
HETATM    5  H   UNL     1      -8.848  15.450  69.674  1.00  0.00     0.000 HD 
HETATM    6  O   UNL     1      -7.902  15.481  69.596  1.00  0.00    -0.213 OA 
BRANCH   4   7
HETATM    7  C   UNL     1      -8.253  15.697  67.197  1.00  0.00    -0.213 C  
HETATM    8  H   UNL     1      -9.365  15.269  65.624  1.00  0.00     0.000 HD 
HETATM    9  O   UNL     1      -8.925  14.793  66.320  1.00  0.00    -0.238 OA 
BRANCH   7  10
HETATM   10  C   UNL     1      -9.267  16.723  67.765  1.00  0.00    -0.222 C  
HETATM   11  H   UNL     1     -11.198  16.769  68.293  1.00  0.00     0.000 HD 
HETATM   12  O   UNL     1     -10.575  16.141  67.945  1.00  0.00    -0.290 OA 
BRANCH  10  13
HETATM   13  C   UNL     1      -9.414  17.975  66.892  1.00  0.00    -0.288 C  
HETATM   14  C   UNL     1     -10.256  19.098  67.525  1.00  0.00    -0.403 C  
HETATM   15  O   UNL     1      -9.879  17.601  65.594  1.00  0.00    -0.536 OA 
HETATM   16  O   UNL     1     -10.040  19.313  68.843  1.00  0.00    -0.417 OA 
HETATM   17  O   UNL     1     -11.026  19.791  66.867  1.00  0.00    -0.433 OA 
HETATM   18  H   UNL     1      -9.970  18.377  65.053  1.00  0.00     0.000 HD 
ENDBRANCH  10  13
ENDBRANCH   7  10
ENDBRANCH   4   7
ENDBRANCH   2   4
TORSDOF 4
ENDMDL
MODEL      184
REMARK 921   NORMALIZED FREE ENERGY PREDICTED BY IDOCK:   -2.88 KCAL/MOL
REMARK 922        TOTAL FREE ENERGY PREDICTED BY IDOCK:   -4.02 KCAL/MOL
REMARK 923 INTER-LIGAND FREE ENERGY PREDICTED BY IDOCK:   -3.90 KCAL/MOL
REMARK 924 INTRA-LIGAND FREE ENERGY PREDICTED BY IDOCK:   -0.12 KCAL/MOL
REMARK 927      BINDING AFFINITY PREDICTED BY RF-SCORE:    0.00 PKD
ROOT
HETATM    1  O   UNL     1     -12.108  15.155  64.174  1.00  0.00    -0.787 OA 
HETATM    2  C   UNL     1     -12.301  14.067  65.082  1.00  0.00    -0.453 C  
HETATM    3  H   UNL     1     -12.231  14.828  63.291  1.00  0.00     0.000 HD 
ENDROOT
BRANCH   2   4
HETATM    4  C   UNL     1     -12.103  14.595  66.507  1.00  0.00    -0.211 C  
HETATM    5  H   UNL     1     -12.388  13.897  68.306  1.00  0.00     0.000 HD 
HETATM    6  O   UNL     1     -12.511  13.569  67.424  1.00  0.00    -0.186 OA 
BRANCH   4   7
HETATM    7  C   UNL     1     -10.646  15.000  66.790  1.00  0.00    -0.301 C  
HETATM    8  H   UNL     1      -8.880  14.739  65.950  1.00  0.00     0.000 HD 
HETATM    9  O   UNL     1      -9.780  14.489  65.775  1.00  0.00    -0.314 OA 
BRANCH   7  10
HETATM   10  C   UNL     1     -10.492  16.539  66.879  1.00  0.00    -0.282 C  
HETATM   11  H   UNL     1      -9.521  17.996  65.908  1.00  0.00     0.000 HD 
HETATM   12  O   UNL     1      -9.616  17.052  65.853  1.00  0.00    -0.488 OA 
BRANCH  10  13
HETATM   13  C   UNL     1      -9.970  17.017  68.240  1.00  0.00    -0.285 C  
HETATM   14  C   UNL     1      -8.752  16.236  68.766  1.00  0.00    -0.244 C  
HETATM   15  O   UNL     1     -11.048  17.058  69.177  1.00  0.00    -0.280 OA 
HETATM   16  O   UNL     1      -7.812  15.934  67.841  1.00  0.00    -0.132 OA 
HETATM   17  O   UNL     1      -8.614  15.959  69.954  1.00  0.00     0.063 OA 
HETATM   18  H   UNL     1     -10.724  17.355  70.020  1.00  0.00     0.000 HD 
ENDBRANCH  10  13
ENDBRANCH   7  10
ENDBRANCH   4   7
ENDBRANCH   2   4
TORSDOF 4
ENDMDL
MODEL      185
REMARK 921   NORMALIZED FREE ENERGY PREDICTED BY IDOCK:   -2.88 KCAL/MOL
REMARK 922        TOTAL FREE ENERGY PREDICTED BY IDOCK:   -4.02 KCAL/MOL
REMARK 923 INTER-LIGAND FREE ENERGY PREDICTED BY IDOCK:   -3.15 KCAL/MOL
REMARK 924 INTRA-LIGAND FREE ENERGY PREDICTED BY IDOCK:   -0.88 KCAL/MOL
REMARK 927      BINDING AFFINITY PREDICTED BY RF-SCORE:    0.00 PKD
ROOT
HETATM    1  O   UNL     1      -7.544  11.271  65.709  1.00  0.00    -0.366 OA 
HETATM    2  C   UNL     1      -6.817  11.593  66.898  1.00  0.00    -0.129 C  
HETATM    3  H   UNL     1      -6.923  11.188  64.996  1.00  0.00     0.000 HD 
ENDROOT
BRANCH   2   4
HETATM    4  C   UNL     1      -7.819  11.726  68.050  1.00  0.00    -0.134 C  
HETATM    5  H   UNL     1      -7.807  11.341  69.962  1.00  0.00     0.000 HD 
HETATM    6  O   UNL     1      -7.186  11.258  69.249  1.00  0.00    -0.117 OA 
BRANCH   4   7
HETATM    7  C   UNL     1      -8.306  13.172  68.245  1.00  0.00    -0.152 C  
HETATM    8  H   UNL     1      -8.054  14.918  67.362  1.00  0.00     0.000 HD 
HETATM    9  O   UNL     1      -7.753  14.024  67.242  1.00  0.00    -0.175 OA 
BRANCH   7  10
HETATM   10  C   UNL     1      -9.853  13.259  68.207  1.00  0.00    -0.231 C  
HETATM   11  H   UNL     1     -11.418  12.035  68.452  1.00  0.00     0.000 HD 
HETATM   12  O   UNL     1     -10.470  11.982  68.475  1.00  0.00    -0.218 OA 
BRANCH  10  13
HETATM   13  C   UNL     1     -10.398  13.786  66.874  1.00  0.00    -0.266 C  
HETATM   14  C   UNL     1     -11.822  14.367  66.951  1.00  0.00    -0.410 C  
HETATM   15  O   UNL     1     -10.267  12.775  65.872  1.00  0.00    -0.277 OA 
HETATM   16  O   UNL     1     -12.080  15.126  68.041  1.00  0.00    -0.192 OA 
HETATM   17  O   UNL     1     -12.646  14.204  66.056  1.00  0.00    -0.478 OA 
HETATM   18  H   UNL     1     -10.604  13.102  65.046  1.00  0.00     0.000 HD 
ENDBRANCH  10  13
ENDBRANCH   7  10
ENDBRANCH   4   7
ENDBRANCH   2   4
TORSDOF 4
ENDMDL
MODEL      186
REMARK 921   NORMALIZED FREE ENERGY PREDICTED BY IDOCK:   -2.86 KCAL/MOL
REMARK 922        TOTAL FREE ENERGY PREDICTED BY IDOCK:   -4.00 KCAL/MOL
REMARK 923 INTER-LIGAND FREE ENERGY PREDICTED BY IDOCK:   -3.87 KCAL/MOL
REMARK 924 INTRA-LIGAND FREE ENERGY PREDICTED BY IDOCK:   -0.13 KCAL/MOL
REMARK 927      BINDING AFFINITY PREDICTED BY RF-SCORE:    0.00 PKD
ROOT
HETATM    1  O   UNL     1      -8.164  15.208  69.623  1.00  0.00    -0.358 OA 
HETATM    2  C   UNL     1      -9.412  15.807  69.262  1.00  0.00    -0.270 C  
HETATM    3  H   UNL     1      -7.506  15.501  69.005  1.00  0.00     0.000 HD 
ENDROOT
BRANCH   2   4
HETATM    4  C   UNL     1     -10.475  15.334  70.260  1.00  0.00    -0.191 C  
HETATM    5  H   UNL     1     -12.048  16.123  71.101  1.00  0.00     0.000 HD 
HETATM    6  O   UNL     1     -11.390  16.416  70.482  1.00  0.00    -0.363 OA 
BRANCH   4   7
HETATM    7  C   UNL     1     -11.240  14.095  69.765  1.00  0.00    -0.152 C  
HETATM    8  H   UNL     1     -13.121  13.538  69.562  1.00  0.00     0.000 HD 
HETATM    9  O   UNL     1     -12.649  14.304  69.868  1.00  0.00    -0.312 OA 
BRANCH   7  10
HETATM   10  C   UNL     1     -10.870  13.748  68.300  1.00  0.00    -0.250 C  
HETATM   11  H   UNL     1     -11.802  13.534  66.542  1.00  0.00     0.000 HD 
HETATM   12  O   UNL     1     -12.029  13.747  67.440  1.00  0.00    -0.379 OA 
BRANCH  10  13
HETATM   13  C   UNL     1     -10.166  12.393  68.159  1.00  0.00    -0.225 C  
HETATM   14  C   UNL     1     -10.912  11.215  68.812  1.00  0.00    -0.219 C  
HETATM   15  O   UNL     1      -8.814  12.508  68.608  1.00  0.00    -0.360 OA 
HETATM   16  O   UNL     1     -12.253  11.209  68.638  1.00  0.00    -0.582 OA 
HETATM   17  O   UNL     1     -10.324  10.311  69.398  1.00  0.00    -0.208 OA 
HETATM   18  H   UNL     1      -8.377  11.669  68.520  1.00  0.00     0.000 HD 
ENDBRANCH  10  13
ENDBRANCH   7  10
ENDBRANCH   4   7
ENDBRANCH   2   4
TORSDOF 4
ENDMDL
MODEL      187
REMARK 921   NORMALIZED FREE ENERGY PREDICTED BY IDOCK:   -2.86 KCAL/MOL
REMARK 922        TOTAL FREE ENERGY PREDICTED BY IDOCK:   -4.00 KCAL/MOL
REMARK 923 INTER-LIGAND FREE ENERGY PREDICTED BY IDOCK:   -3.63 KCAL/MOL
REMARK 924 INTRA-LIGAND FREE ENERGY PREDICTED BY IDOCK:   -0.37 KCAL/MOL
REMARK 927      BINDING AFFINITY PREDICTED BY RF-SCORE:    0.00 PKD
ROOT
HETATM    1  O   UNL     1     -11.560  12.609  70.434  1.00  0.00    -0.533 OA 
HETATM    2  C   UNL     1     -12.480  11.567  70.775  1.00  0.00    -0.349 C  
HETATM    3  H   UNL     1     -12.061  13.382  70.206  1.00  0.00     0.000 HD 
ENDROOT
BRANCH   2   4
HETATM    4  C   UNL     1     -11.671  10.319  71.144  1.00  0.00    -0.341 C  
HETATM    5  H   UNL     1     -12.051   8.621  72.026  1.00  0.00     0.000 HD 
HETATM    6  O   UNL     1     -12.552   9.394  71.798  1.00  0.00    -0.335 OA 
BRANCH   4   7
HETATM    7  C   UNL     1     -11.027   9.649  69.917  1.00  0.00    -0.252 C  
HETATM    8  H   UNL     1      -9.946  10.204  68.363  1.00  0.00     0.000 HD 
HETATM    9  O   UNL     1     -10.345  10.618  69.121  1.00  0.00    -0.202 OA 
BRANCH   7  10
HETATM   10  C   UNL     1     -10.040   8.530  70.336  1.00  0.00    -0.189 C  
HETATM   11  H   UNL     1      -8.074   8.322  70.652  1.00  0.00     0.000 HD 
HETATM   12  O   UNL     1      -8.680   9.008  70.395  1.00  0.00    -0.160 OA 
BRANCH  10  13
HETATM   13  C   UNL     1     -10.080   7.309  69.408  1.00  0.00    -0.183 C  
HETATM   14  C   UNL     1     -10.795   6.081  70.001  1.00  0.00    -0.359 C  
HETATM   15  O   UNL     1      -8.759   7.014  68.950  1.00  0.00    -0.131 OA 
HETATM   16  O   UNL     1     -11.930   6.344  70.687  1.00  0.00    -0.340 OA 
HETATM   17  O   UNL     1     -10.394   4.936  69.813  1.00  0.00    -0.260 OA 
HETATM   18  H   UNL     1      -8.784   6.258  68.375  1.00  0.00     0.000 HD 
ENDBRANCH  10  13
ENDBRANCH   7  10
ENDBRANCH   4   7
ENDBRANCH   2   4
TORSDOF 4
ENDMDL
MODEL      188
REMARK 921   NORMALIZED FREE ENERGY PREDICTED BY IDOCK:   -2.85 KCAL/MOL
REMARK 922        TOTAL FREE ENERGY PREDICTED BY IDOCK:   -3.99 KCAL/MOL
REMARK 923 INTER-LIGAND FREE ENERGY PREDICTED BY IDOCK:   -3.90 KCAL/MOL
REMARK 924 INTRA-LIGAND FREE ENERGY PREDICTED BY IDOCK:   -0.10 KCAL/MOL
REMARK 927      BINDING AFFINITY PREDICTED BY RF-SCORE:    0.00 PKD
ROOT
HETATM    1  O   UNL     1      -9.303   9.080  62.523  1.00  0.00    -0.544 OA 
HETATM    2  C   UNL     1      -9.745  10.414  62.791  1.00  0.00    -0.191 C  
HETATM    3  H   UNL     1      -9.382   8.924  61.590  1.00  0.00     0.000 HD 
ENDROOT
BRANCH   2   4
HETATM    4  C   UNL     1      -9.616  10.665  64.297  1.00  0.00    -0.296 C  
HETATM    5  H   UNL     1      -8.142  10.810  65.567  1.00  0.00     0.000 HD 
HETATM    6  O   UNL     1      -8.221  10.655  64.633  1.00  0.00    -0.126 OA 
BRANCH   4   7
HETATM    7  C   UNL     1     -10.248  12.000  64.728  1.00  0.00    -0.279 C  
HETATM    8  H   UNL     1     -11.994  12.901  64.553  1.00  0.00     0.000 HD 
HETATM    9  O   UNL     1     -11.603  12.077  64.287  1.00  0.00    -0.349 OA 
BRANCH   7  10
HETATM   10  C   UNL     1     -10.189  12.184  66.266  1.00  0.00    -0.223 C  
HETATM   11  H   UNL     1      -9.934  11.044  67.892  1.00  0.00     0.000 HD 
HETATM   12  O   UNL     1      -9.970  10.931  66.949  1.00  0.00    -0.184 OA 
BRANCH  10  13
HETATM   13  C   UNL     1     -11.452  12.833  66.847  1.00  0.00    -0.340 C  
HETATM   14  C   UNL     1     -11.187  14.067  67.728  1.00  0.00    -0.281 C  
HETATM   15  O   UNL     1     -12.238  11.839  67.507  1.00  0.00    -0.526 OA 
HETATM   16  O   UNL     1     -10.240  14.916  67.269  1.00  0.00    -0.239 OA 
HETATM   17  O   UNL     1     -11.834  14.296  68.746  1.00  0.00    -0.316 OA 
HETATM   18  H   UNL     1     -13.021  12.241  67.867  1.00  0.00     0.000 HD 
ENDBRANCH  10  13
ENDBRANCH   7  10
ENDBRANCH   4   7
ENDBRANCH   2   4
TORSDOF 4
ENDMDL
MODEL      189
REMARK 921   NORMALIZED FREE ENERGY PREDICTED BY IDOCK:   -2.85 KCAL/MOL
REMARK 922        TOTAL FREE ENERGY PREDICTED BY IDOCK:   -3.99 KCAL/MOL
REMARK 923 INTER-LIGAND FREE ENERGY PREDICTED BY IDOCK:   -4.04 KCAL/MOL
REMARK 924 INTRA-LIGAND FREE ENERGY PREDICTED BY IDOCK:    0.05 KCAL/MOL
REMARK 927      BINDING AFFINITY PREDICTED BY RF-SCORE:    0.00 PKD
ROOT
HETATM    1  O   UNL     1      -9.590   9.329  65.246  1.00  0.00    -0.422 OA 
HETATM    2  C   UNL     1      -9.364   8.196  66.089  1.00  0.00    -0.166 C  
HETATM    3  H   UNL     1      -8.879   9.378  64.620  1.00  0.00     0.000 HD 
ENDROOT
BRANCH   2   4
HETATM    4  C   UNL     1     -10.512   8.117  67.101  1.00  0.00    -0.326 C  
HETATM    5  H   UNL     1     -11.760   6.738  67.690  1.00  0.00     0.000 HD 
HETATM    6  O   UNL     1     -11.048   6.787  67.063  1.00  0.00    -0.403 OA 
BRANCH   4   7
HETATM    7  C   UNL     1     -10.063   8.460  68.532  1.00  0.00    -0.197 C  
HETATM    8  H   UNL     1      -8.465   8.185  69.655  1.00  0.00     0.000 HD 
HETATM    9  O   UNL     1      -8.742   7.973  68.771  1.00  0.00    -0.131 OA 
BRANCH   7  10
HETATM   10  C   UNL     1     -10.110   9.987  68.790  1.00  0.00    -0.185 C  
HETATM   11  H   UNL     1      -8.865  11.432  69.398  1.00  0.00     0.000 HD 
HETATM   12  O   UNL     1      -8.836  10.495  69.240  1.00  0.00    -0.166 OA 
BRANCH  10  13
HETATM   13  C   UNL     1     -11.178  10.395  69.813  1.00  0.00    -0.293 C  
HETATM   14  C   UNL     1     -11.236   9.501  71.066  1.00  0.00    -0.362 C  
HETATM   15  O   UNL     1     -12.443  10.516  69.160  1.00  0.00    -0.750 OA 
HETATM   16  O   UNL     1     -10.038   9.132  71.572  1.00  0.00    -0.319 OA 
HETATM   17  O   UNL     1     -12.296   9.194  71.603  1.00  0.00    -0.317 OA 
HETATM   18  H   UNL     1     -13.104  10.769  69.794  1.00  0.00     0.000 HD 
ENDBRANCH  10  13
ENDBRANCH   7  10
ENDBRANCH   4   7
ENDBRANCH   2   4
TORSDOF 4
ENDMDL
MODEL      190
REMARK 921   NORMALIZED FREE ENERGY PREDICTED BY IDOCK:   -2.85 KCAL/MOL
REMARK 922        TOTAL FREE ENERGY PREDICTED BY IDOCK:   -3.98 KCAL/MOL
REMARK 923 INTER-LIGAND FREE ENERGY PREDICTED BY IDOCK:   -3.74 KCAL/MOL
REMARK 924 INTRA-LIGAND FREE ENERGY PREDICTED BY IDOCK:   -0.24 KCAL/MOL
REMARK 927      BINDING AFFINITY PREDICTED BY RF-SCORE:    0.00 PKD
ROOT
HETATM    1  O   UNL     1     -11.356   9.484  69.018  1.00  0.00    -0.455 OA 
HETATM    2  C   UNL     1     -10.561  10.617  68.653  1.00  0.00    -0.203 C  
HETATM    3  H   UNL     1     -10.770   8.764  69.218  1.00  0.00     0.000 HD 
ENDROOT
BRANCH   2   4
HETATM    4  C   UNL     1     -11.506  11.779  68.332  1.00  0.00    -0.294 C  
HETATM    5  H   UNL     1     -12.552  13.057  69.372  1.00  0.00     0.000 HD 
HETATM    6  O   UNL     1     -11.966  12.336  69.572  1.00  0.00    -0.302 OA 
BRANCH   4   7
HETATM    7  C   UNL     1     -10.831  12.872  67.485  1.00  0.00    -0.235 C  
HETATM    8  H   UNL     1      -9.604  14.387  67.786  1.00  0.00     0.000 HD 
HETATM    9  O   UNL     1     -10.021  13.712  68.308  1.00  0.00    -0.227 OA 
BRANCH   7  10
HETATM   10  C   UNL     1      -9.966  12.260  66.354  1.00  0.00    -0.228 C  
HETATM   11  H   UNL     1      -8.046  12.252  65.789  1.00  0.00     0.000 HD 
HETATM   12  O   UNL     1      -8.577  12.627  66.483  1.00  0.00    -0.092 OA 
BRANCH  10  13
HETATM   13  C   UNL     1     -10.440  12.654  64.950  1.00  0.00    -0.309 C  
HETATM   14  C   UNL     1      -9.966  11.710  63.829  1.00  0.00    -0.349 C  
HETATM   15  O   UNL     1     -10.107  14.021  64.700  1.00  0.00    -0.582 OA 
HETATM   16  O   UNL     1     -10.010  10.391  64.123  1.00  0.00    -0.328 OA 
HETATM   17  O   UNL     1      -9.628  12.124  62.723  1.00  0.00    -0.140 OA 
HETATM   18  H   UNL     1     -10.400  14.265  63.830  1.00  0.00     0.000 HD 
ENDBRANCH  10  13
ENDBRANCH   7  10
ENDBRANCH   4   7
ENDBRANCH   2   4
TORSDOF 4
ENDMDL
MODEL      191
REMARK 921   NORMALIZED FREE ENERGY PREDICTED BY IDOCK:   -2.84 KCAL/MOL
REMARK 922        TOTAL FREE ENERGY PREDICTED BY IDOCK:   -3.98 KCAL/MOL
REMARK 923 INTER-LIGAND FREE ENERGY PREDICTED BY IDOCK:   -3.80 KCAL/MOL
REMARK 924 INTRA-LIGAND FREE ENERGY PREDICTED BY IDOCK:   -0.18 KCAL/MOL
REMARK 927      BINDING AFFINITY PREDICTED BY RF-SCORE:    0.00 PKD
ROOT
HETATM    1  O   UNL     1     -11.036  15.060  67.095  1.00  0.00    -0.320 OA 
HETATM    2  C   UNL     1     -12.049  14.064  67.263  1.00  0.00    -0.370 C  
HETATM    3  H   UNL     1     -11.189  15.747  67.732  1.00  0.00     0.000 HD 
ENDROOT
BRANCH   2   4
HETATM    4  C   UNL     1     -11.802  12.955  66.235  1.00  0.00    -0.416 C  
HETATM    5  H   UNL     1     -10.626  12.715  64.697  1.00  0.00     0.000 HD 
HETATM    6  O   UNL     1     -10.779  13.402  65.334  1.00  0.00    -0.286 OA 
BRANCH   4   7
HETATM    7  C   UNL     1     -11.381  11.627  66.888  1.00  0.00    -0.295 C  
HETATM    8  H   UNL     1     -10.229  10.091  66.436  1.00  0.00     0.000 HD 
HETATM    9  O   UNL     1     -10.490  10.910  66.033  1.00  0.00    -0.251 OA 
BRANCH   7  10
HETATM   10  C   UNL     1     -10.706  11.862  68.264  1.00  0.00    -0.223 C  
HETATM   11  H   UNL     1      -8.968  12.564  68.968  1.00  0.00     0.000 HD 
HETATM   12  O   UNL     1      -9.382  12.420  68.125  1.00  0.00    -0.200 OA 
BRANCH  10  13
HETATM   13  C   UNL     1     -10.604  10.588  69.113  1.00  0.00    -0.229 C  
HETATM   14  C   UNL     1     -11.733  10.417  70.146  1.00  0.00    -0.312 C  
HETATM   15  O   UNL     1      -9.302  10.508  69.697  1.00  0.00    -0.391 OA 
HETATM   16  O   UNL     1     -12.971  10.745  69.711  1.00  0.00    -0.143 OA 
HETATM   17  O   UNL     1     -11.532   9.959  71.266  1.00  0.00    -0.365 OA 
HETATM   18  H   UNL     1      -9.239   9.718  70.223  1.00  0.00     0.000 HD 
ENDBRANCH  10  13
ENDBRANCH   7  10
ENDBRANCH   4   7
ENDBRANCH   2   4
TORSDOF 4
ENDMDL
MODEL      192
REMARK 921   NORMALIZED FREE ENERGY PREDICTED BY IDOCK:   -2.84 KCAL/MOL
REMARK 922        TOTAL FREE ENERGY PREDICTED BY IDOCK:   -3.98 KCAL/MOL
REMARK 923 INTER-LIGAND FREE ENERGY PREDICTED BY IDOCK:   -4.31 KCAL/MOL
REMARK 924 INTRA-LIGAND FREE ENERGY PREDICTED BY IDOCK:    0.33 KCAL/MOL
REMARK 927      BINDING AFFINITY PREDICTED BY RF-SCORE:    0.00 PKD
ROOT
HETATM    1  O   UNL     1      -8.449  17.502  65.978  1.00  0.00    -0.500 OA 
HETATM    2  C   UNL     1      -8.465  18.341  67.137  1.00  0.00    -0.250 C  
HETATM    3  H   UNL     1      -7.735  17.783  65.420  1.00  0.00     0.000 HD 
ENDROOT
BRANCH   2   4
HETATM    4  C   UNL     1      -9.619  17.887  68.039  1.00  0.00    -0.290 C  
HETATM    5  H   UNL     1     -11.544  18.193  68.102  1.00  0.00     0.000 HD 
HETATM    6  O   UNL     1     -10.830  18.475  67.543  1.00  0.00    -0.422 OA 
BRANCH   4   7
HETATM    7  C   UNL     1      -9.762  16.356  68.087  1.00  0.00    -0.229 C  
HETATM    8  H   UNL     1      -9.423  14.908  69.384  1.00  0.00     0.000 HD 
HETATM    9  O   UNL     1      -9.334  15.854  69.353  1.00  0.00    -0.255 OA 
BRANCH   7  10
HETATM   10  C   UNL     1     -11.224  15.915  67.819  1.00  0.00    -0.258 C  
HETATM   11  H   UNL     1     -12.916  15.664  68.859  1.00  0.00     0.000 HD 
HETATM   12  O   UNL     1     -12.020  15.934  69.023  1.00  0.00    -0.378 OA 
BRANCH  10  13
HETATM   13  C   UNL     1     -11.330  14.518  67.195  1.00  0.00    -0.350 C  
HETATM   14  C   UNL     1     -10.402  14.286  65.988  1.00  0.00    -0.309 C  
HETATM   15  O   UNL     1     -12.699  14.227  66.905  1.00  0.00    -0.495 OA 
HETATM   16  O   UNL     1      -9.153  14.789  66.111  1.00  0.00    -0.246 OA 
HETATM   17  O   UNL     1     -10.753  13.637  65.007  1.00  0.00    -0.323 OA 
HETATM   18  H   UNL     1     -12.764  13.361  66.519  1.00  0.00     0.000 HD 
ENDBRANCH  10  13
ENDBRANCH   7  10
ENDBRANCH   4   7
ENDBRANCH   2   4
TORSDOF 4
ENDMDL
MODEL      193
REMARK 921   NORMALIZED FREE ENERGY PREDICTED BY IDOCK:   -2.84 KCAL/MOL
REMARK 922        TOTAL FREE ENERGY PREDICTED BY IDOCK:   -3.98 KCAL/MOL
REMARK 923 INTER-LIGAND FREE ENERGY PREDICTED BY IDOCK:   -3.63 KCAL/MOL
REMARK 924 INTRA-LIGAND FREE ENERGY PREDICTED BY IDOCK:   -0.35 KCAL/MOL
REMARK 927      BINDING AFFINITY PREDICTED BY RF-SCORE:    0.00 PKD
ROOT
HETATM    1  O   UNL     1      -7.386  14.822  69.949  1.00  0.00    -0.346 OA 
HETATM    2  C   UNL     1      -6.470  15.839  69.531  1.00  0.00    -0.177 C  
HETATM    3  H   UNL     1      -7.510  14.903  70.887  1.00  0.00     0.000 HD 
ENDROOT
BRANCH   2   4
HETATM    4  C   UNL     1      -6.269  15.708  68.018  1.00  0.00    -0.136 C  
HETATM    5  H   UNL     1      -7.280  14.936  66.538  1.00  0.00     0.000 HD 
HETATM    6  O   UNL     1      -7.405  15.017  67.476  1.00  0.00    -0.171 OA 
BRANCH   4   7
HETATM    7  C   UNL     1      -6.106  17.071  67.324  1.00  0.00    -0.153 C  
HETATM    8  H   UNL     1      -5.118  17.804  65.782  1.00  0.00     0.000 HD 
HETATM    9  O   UNL     1      -5.218  16.962  66.211  1.00  0.00    -0.361 OA 
BRANCH   7  10
HETATM   10  C   UNL     1      -7.471  17.632  66.848  1.00  0.00    -0.199 C  
HETATM   11  H   UNL     1      -8.245  18.460  65.198  1.00  0.00     0.000 HD 
HETATM   12  O   UNL     1      -7.409  18.115  65.490  1.00  0.00    -0.543 OA 
BRANCH  10  13
HETATM   13  C   UNL     1      -8.003  18.763  67.737  1.00  0.00    -0.254 C  
HETATM   14  C   UNL     1      -9.477  18.607  68.154  1.00  0.00    -0.325 C  
HETATM   15  O   UNL     1      -7.733  20.023  67.119  1.00  0.00    -0.267 OA 
HETATM   16  O   UNL     1      -9.854  17.354  68.496  1.00  0.00    -0.287 OA 
HETATM   17  O   UNL     1     -10.242  19.564  68.228  1.00  0.00    -0.412 OA 
HETATM   18  H   UNL     1      -8.063  20.723  67.670  1.00  0.00     0.000 HD 
ENDBRANCH  10  13
ENDBRANCH   7  10
ENDBRANCH   4   7
ENDBRANCH   2   4
TORSDOF 4
ENDMDL
MODEL      194
REMARK 921   NORMALIZED FREE ENERGY PREDICTED BY IDOCK:   -2.84 KCAL/MOL
REMARK 922        TOTAL FREE ENERGY PREDICTED BY IDOCK:   -3.98 KCAL/MOL
REMARK 923 INTER-LIGAND FREE ENERGY PREDICTED BY IDOCK:   -3.81 KCAL/MOL
REMARK 924 INTRA-LIGAND FREE ENERGY PREDICTED BY IDOCK:   -0.16 KCAL/MOL
REMARK 927      BINDING AFFINITY PREDICTED BY RF-SCORE:    0.00 PKD
ROOT
HETATM    1  O   UNL     1     -11.329   4.944  65.398  1.00  0.00    -0.881 OA 
HETATM    2  C   UNL     1     -10.601   5.105  66.619  1.00  0.00    -0.232 C  
HETATM    3  H   UNL     1     -11.076   4.115  65.010  1.00  0.00     0.000 HD 
ENDROOT
BRANCH   2   4
HETATM    4  C   UNL     1     -11.009   6.443  67.244  1.00  0.00    -0.392 C  
HETATM    5  H   UNL     1     -11.463   7.065  69.037  1.00  0.00     0.000 HD 
HETATM    6  O   UNL     1     -11.210   6.235  68.650  1.00  0.00    -0.356 OA 
BRANCH   4   7
HETATM    7  C   UNL     1      -9.956   7.543  67.023  1.00  0.00    -0.234 C  
HETATM    8  H   UNL     1      -8.506   7.925  65.742  1.00  0.00     0.000 HD 
HETATM    9  O   UNL     1      -9.156   7.245  65.879  1.00  0.00    -0.128 OA 
BRANCH   7  10
HETATM   10  C   UNL     1     -10.618   8.934  66.849  1.00  0.00    -0.184 C  
HETATM   11  H   UNL     1     -10.524  10.476  65.576  1.00  0.00     0.000 HD 
HETATM   12  O   UNL     1     -10.119   9.623  65.683  1.00  0.00    -0.296 OA 
BRANCH  10  13
HETATM   13  C   UNL     1     -10.431   9.849  68.065  1.00  0.00    -0.222 C  
HETATM   14  C   UNL     1      -9.010   9.838  68.660  1.00  0.00    -0.130 C  
HETATM   15  O   UNL     1     -11.439   9.564  69.037  1.00  0.00    -0.452 OA 
HETATM   16  O   UNL     1      -8.003   9.835  67.757  1.00  0.00    -0.101 OA 
HETATM   17  O   UNL     1      -8.805   9.890  69.869  1.00  0.00    -0.203 OA 
HETATM   18  H   UNL     1     -11.324  10.132  69.790  1.00  0.00     0.000 HD 
ENDBRANCH  10  13
ENDBRANCH   7  10
ENDBRANCH   4   7
ENDBRANCH   2   4
TORSDOF 4
ENDMDL
MODEL      195
REMARK 921   NORMALIZED FREE ENERGY PREDICTED BY IDOCK:   -2.83 KCAL/MOL
REMARK 922        TOTAL FREE ENERGY PREDICTED BY IDOCK:   -3.97 KCAL/MOL
REMARK 923 INTER-LIGAND FREE ENERGY PREDICTED BY IDOCK:   -3.64 KCAL/MOL
REMARK 924 INTRA-LIGAND FREE ENERGY PREDICTED BY IDOCK:   -0.32 KCAL/MOL
REMARK 927      BINDING AFFINITY PREDICTED BY RF-SCORE:    0.00 PKD
ROOT
HETATM    1  O   UNL     1     -12.796  11.212  71.629  1.00  0.00    -0.427 OA 
HETATM    2  C   UNL     1     -13.531  10.048  71.238  1.00  0.00    -0.258 C  
HETATM    3  H   UNL     1     -12.998  11.908  71.017  1.00  0.00     0.000 HD 
ENDROOT
BRANCH   2   4
HETATM    4  C   UNL     1     -13.206   8.924  72.227  1.00  0.00    -0.447 C  
HETATM    5  H   UNL     1     -13.868   7.118  72.553  1.00  0.00     0.000 HD 
HETATM    6  O   UNL     1     -14.069   7.814  71.940  1.00  0.00    -0.374 OA 
BRANCH   4   7
HETATM    7  C   UNL     1     -11.736   8.476  72.149  1.00  0.00    -0.378 C  
HETATM    8  H   UNL     1     -10.540   7.251  73.129  1.00  0.00     0.000 HD 
HETATM    9  O   UNL     1     -11.448   7.527  73.177  1.00  0.00    -0.282 OA 
BRANCH   7  10
HETATM   10  C   UNL     1     -11.403   7.863  70.765  1.00  0.00    -0.274 C  
HETATM   11  H   UNL     1     -11.146   6.045  69.967  1.00  0.00     0.000 HD 
HETATM   12  O   UNL     1     -11.351   6.421  70.815  1.00  0.00    -0.311 OA 
BRANCH  10  13
HETATM   13  C   UNL     1     -10.079   8.371  70.181  1.00  0.00    -0.191 C  
HETATM   14  C   UNL     1     -10.233   9.278  68.946  1.00  0.00    -0.202 C  
HETATM   15  O   UNL     1      -9.204   7.265  69.949  1.00  0.00    -0.142 OA 
HETATM   16  O   UNL     1     -11.240  10.179  69.010  1.00  0.00    -0.223 OA 
HETATM   17  O   UNL     1      -9.458   9.229  67.996  1.00  0.00    -0.137 OA 
HETATM   18  H   UNL     1      -8.383   7.580  69.588  1.00  0.00     0.000 HD 
ENDBRANCH  10  13
ENDBRANCH   7  10
ENDBRANCH   4   7
ENDBRANCH   2   4
TORSDOF 4
ENDMDL
MODEL      196
REMARK 921   NORMALIZED FREE ENERGY PREDICTED BY IDOCK:   -2.82 KCAL/MOL
REMARK 922        TOTAL FREE ENERGY PREDICTED BY IDOCK:   -3.95 KCAL/MOL
REMARK 923 INTER-LIGAND FREE ENERGY PREDICTED BY IDOCK:   -4.18 KCAL/MOL
REMARK 924 INTRA-LIGAND FREE ENERGY PREDICTED BY IDOCK:    0.22 KCAL/MOL
REMARK 927      BINDING AFFINITY PREDICTED BY RF-SCORE:    0.00 PKD
ROOT
HETATM    1  O   UNL     1     -11.146   9.330  68.133  1.00  0.00    -0.492 OA 
HETATM    2  C   UNL     1     -10.280  10.463  68.248  1.00  0.00    -0.160 C  
HETATM    3  H   UNL     1     -10.944   8.731  68.842  1.00  0.00     0.000 HD 
ENDROOT
BRANCH   2   4
HETATM    4  C   UNL     1     -10.607  11.430  67.104  1.00  0.00    -0.243 C  
HETATM    5  H   UNL     1     -12.236  12.128  66.289  1.00  0.00     0.000 HD 
HETATM    6  O   UNL     1     -12.034  11.530  66.998  1.00  0.00    -0.556 OA 
BRANCH   4   7
HETATM    7  C   UNL     1      -9.999  12.826  67.319  1.00  0.00    -0.219 C  
HETATM    8  H   UNL     1      -8.206  13.648  67.285  1.00  0.00     0.000 HD 
HETATM    9  O   UNL     1      -8.582  12.785  67.152  1.00  0.00    -0.191 OA 
BRANCH   7  10
HETATM   10  C   UNL     1     -10.609  13.866  66.345  1.00  0.00    -0.280 C  
HETATM   11  H   UNL     1      -9.970  15.145  64.943  1.00  0.00     0.000 HD 
HETATM   12  O   UNL     1      -9.596  14.507  65.541  1.00  0.00    -0.254 OA 
BRANCH  10  13
HETATM   13  C   UNL     1     -11.420  14.958  67.055  1.00  0.00    -0.326 C  
HETATM   14  C   UNL     1     -10.568  16.012  67.784  1.00  0.00    -0.309 C  
HETATM   15  O   UNL     1     -12.396  14.351  67.904  1.00  0.00    -0.615 OA 
HETATM   16  O   UNL     1      -9.465  16.428  67.121  1.00  0.00    -0.226 OA 
HETATM   17  O   UNL     1     -10.900  16.488  68.866  1.00  0.00    -0.304 OA 
HETATM   18  H   UNL     1     -12.899  15.027  68.343  1.00  0.00     0.000 HD 
ENDBRANCH  10  13
ENDBRANCH   7  10
ENDBRANCH   4   7
ENDBRANCH   2   4
TORSDOF 4
ENDMDL
MODEL      197
REMARK 921   NORMALIZED FREE ENERGY PREDICTED BY IDOCK:   -2.80 KCAL/MOL
REMARK 922        TOTAL FREE ENERGY PREDICTED BY IDOCK:   -3.92 KCAL/MOL
REMARK 923 INTER-LIGAND FREE ENERGY PREDICTED BY IDOCK:   -3.46 KCAL/MOL
REMARK 924 INTRA-LIGAND FREE ENERGY PREDICTED BY IDOCK:   -0.46 KCAL/MOL
REMARK 927      BINDING AFFINITY PREDICTED BY RF-SCORE:    0.00 PKD
ROOT
HETATM    1  O   UNL     1      -6.874  14.561  69.324  1.00  0.00    -0.118 OA 
HETATM    2  C   UNL     1      -6.325  15.882  69.350  1.00  0.00    -0.160 C  
HETATM    3  H   UNL     1      -6.716  14.159  70.169  1.00  0.00     0.000 HD 
ENDROOT
BRANCH   2   4
HETATM    4  C   UNL     1      -6.581  16.532  67.986  1.00  0.00    -0.137 C  
HETATM    5  H   UNL     1      -6.092  16.136  66.139  1.00  0.00     0.000 HD 
HETATM    6  O   UNL     1      -5.934  15.734  66.984  1.00  0.00    -0.317 OA 
BRANCH   4   7
HETATM    7  C   UNL     1      -8.080  16.661  67.664  1.00  0.00    -0.171 C  
HETATM    8  H   UNL     1      -9.791  16.448  68.622  1.00  0.00     0.000 HD 
HETATM    9  O   UNL     1      -8.865  16.368  68.820  1.00  0.00    -0.225 OA 
BRANCH   7  10
HETATM   10  C   UNL     1      -8.428  18.078  67.143  1.00  0.00    -0.234 C  
HETATM   11  H   UNL     1      -9.535  18.898  65.690  1.00  0.00     0.000 HD 
HETATM   12  O   UNL     1      -9.321  18.028  66.010  1.00  0.00    -0.505 OA 
BRANCH  10  13
HETATM   13  C   UNL     1      -7.193  18.897  66.745  1.00  0.00    -0.209 C  
HETATM   14  C   UNL     1      -7.057  20.243  67.481  1.00  0.00    -0.289 C  
HETATM   15  O   UNL     1      -7.151  19.036  65.324  1.00  0.00    -0.485 OA 
HETATM   16  O   UNL     1      -7.354  20.216  68.800  1.00  0.00    -0.219 OA 
HETATM   17  O   UNL     1      -6.649  21.256  66.921  1.00  0.00    -0.392 OA 
HETATM   18  H   UNL     1      -6.385  19.543  65.077  1.00  0.00     0.000 HD 
ENDBRANCH  10  13
ENDBRANCH   7  10
ENDBRANCH   4   7
ENDBRANCH   2   4
TORSDOF 4
ENDMDL
MODEL      198
REMARK 921   NORMALIZED FREE ENERGY PREDICTED BY IDOCK:   -2.79 KCAL/MOL
REMARK 922        TOTAL FREE ENERGY PREDICTED BY IDOCK:   -3.92 KCAL/MOL
REMARK 923 INTER-LIGAND FREE ENERGY PREDICTED BY IDOCK:   -3.78 KCAL/MOL
REMARK 924 INTRA-LIGAND FREE ENERGY PREDICTED BY IDOCK:   -0.14 KCAL/MOL
REMARK 927      BINDING AFFINITY PREDICTED BY RF-SCORE:    0.00 PKD
ROOT
HETATM    1  O   UNL     1      -8.106   5.523  72.629  1.00  0.00    -0.105 OA 
HETATM    2  C   UNL     1      -9.214   5.244  73.490  1.00  0.00    -0.130 C  
HETATM    3  H   UNL     1      -7.314   5.508  73.153  1.00  0.00     0.000 HD 
ENDROOT
BRANCH   2   4
HETATM    4  C   UNL     1     -10.492   5.269  72.645  1.00  0.00    -0.218 C  
HETATM    5  H   UNL     1     -12.300   4.559  72.829  1.00  0.00     0.000 HD 
HETATM    6  O   UNL     1     -11.508   4.544  73.353  1.00  0.00    -0.316 OA 
BRANCH   4   7
HETATM    7  C   UNL     1     -10.979   6.698  72.351  1.00  0.00    -0.244 C  
HETATM    8  H   UNL     1     -10.168   8.458  71.981  1.00  0.00     0.000 HD 
HETATM    9  O   UNL     1      -9.867   7.575  72.163  1.00  0.00    -0.163 OA 
BRANCH   7  10
HETATM   10  C   UNL     1     -11.892   6.740  71.100  1.00  0.00    -0.360 C  
HETATM   11  H   UNL     1     -11.900   7.598  69.291  1.00  0.00     0.000 HD 
HETATM   12  O   UNL     1     -11.340   7.572  70.058  1.00  0.00    -0.212 OA 
BRANCH  10  13
HETATM   13  C   UNL     1     -13.313   7.230  71.404  1.00  0.00    -0.331 C  
HETATM   14  C   UNL     1     -13.392   8.683  71.908  1.00  0.00    -0.382 C  
HETATM   15  O   UNL     1     -13.960   6.305  72.280  1.00  0.00    -0.427 OA 
HETATM   16  O   UNL     1     -12.582   9.562  71.275  1.00  0.00    -0.316 OA 
HETATM   17  O   UNL     1     -14.179   9.032  72.783  1.00  0.00    -0.572 OA 
HETATM   18  H   UNL     1     -14.841   6.609  72.468  1.00  0.00     0.000 HD 
ENDBRANCH  10  13
ENDBRANCH   7  10
ENDBRANCH   4   7
ENDBRANCH   2   4
TORSDOF 4
ENDMDL
MODEL      199
REMARK 921   NORMALIZED FREE ENERGY PREDICTED BY IDOCK:   -2.79 KCAL/MOL
REMARK 922        TOTAL FREE ENERGY PREDICTED BY IDOCK:   -3.92 KCAL/MOL
REMARK 923 INTER-LIGAND FREE ENERGY PREDICTED BY IDOCK:   -3.38 KCAL/MOL
REMARK 924 INTRA-LIGAND FREE ENERGY PREDICTED BY IDOCK:   -0.54 KCAL/MOL
REMARK 927      BINDING AFFINITY PREDICTED BY RF-SCORE:    0.00 PKD
ROOT
HETATM    1  O   UNL     1      -7.260  12.162  66.391  1.00  0.00    -0.340 OA 
HETATM    2  C   UNL     1      -7.452  11.142  67.376  1.00  0.00    -0.109 C  
HETATM    3  H   UNL     1      -6.327  12.324  66.312  1.00  0.00     0.000 HD 
ENDROOT
BRANCH   2   4
HETATM    4  C   UNL     1      -8.957  10.881  67.503  1.00  0.00    -0.136 C  
HETATM    5  H   UNL     1     -10.141  10.193  68.893  1.00  0.00     0.000 HD 
HETATM    6  O   UNL     1      -9.208  10.355  68.814  1.00  0.00    -0.154 OA 
BRANCH   4   7
HETATM    7  C   UNL     1      -9.798  12.149  67.278  1.00  0.00    -0.196 C  
HETATM    8  H   UNL     1     -10.728  13.024  65.775  1.00  0.00     0.000 HD 
HETATM    9  O   UNL     1     -10.208  12.241  65.914  1.00  0.00    -0.238 OA 
BRANCH   7  10
HETATM   10  C   UNL     1     -11.044  12.174  68.200  1.00  0.00    -0.248 C  
HETATM   11  H   UNL     1     -13.005  11.796  68.060  1.00  0.00     0.000 HD 
HETATM   12  O   UNL     1     -12.241  11.781  67.495  1.00  0.00    -0.526 OA 
BRANCH  10  13
HETATM   13  C   UNL     1     -11.293  13.543  68.844  1.00  0.00    -0.289 C  
HETATM   14  C   UNL     1     -12.236  13.513  70.061  1.00  0.00    -0.312 C  
HETATM   15  O   UNL     1     -11.712  14.473  67.843  1.00  0.00    -0.329 OA 
HETATM   16  O   UNL     1     -12.051  12.480  70.913  1.00  0.00    -0.285 OA 
HETATM   17  O   UNL     1     -13.058  14.399  70.275  1.00  0.00    -0.213 OA 
HETATM   18  H   UNL     1     -11.866  15.321  68.242  1.00  0.00     0.000 HD 
ENDBRANCH  10  13
ENDBRANCH   7  10
ENDBRANCH   4   7
ENDBRANCH   2   4
TORSDOF 4
ENDMDL
MODEL      200
REMARK 921   NORMALIZED FREE ENERGY PREDICTED BY IDOCK:   -2.78 KCAL/MOL
REMARK 922        TOTAL FREE ENERGY PREDICTED BY IDOCK:   -3.90 KCAL/MOL
REMARK 923 INTER-LIGAND FREE ENERGY PREDICTED BY IDOCK:   -3.68 KCAL/MOL
REMARK 924 INTRA-LIGAND FREE ENERGY PREDICTED BY IDOCK:   -0.22 KCAL/MOL
REMARK 927      BINDING AFFINITY PREDICTED BY RF-SCORE:    0.00 PKD
ROOT
HETATM    1  O   UNL     1      -6.452  13.818  67.638  1.00  0.00    -0.166 OA 
HETATM    2  C   UNL     1      -7.296  14.849  68.160  1.00  0.00    -0.117 C  
HETATM    3  H   UNL     1      -5.640  13.824  68.130  1.00  0.00     0.000 HD 
ENDROOT
BRANCH   2   4
HETATM    4  C   UNL     1      -8.607  14.839  67.367  1.00  0.00    -0.196 C  
HETATM    5  H   UNL     1     -10.030  13.545  67.040  1.00  0.00     0.000 HD 
HETATM    6  O   UNL     1      -9.217  13.551  67.531  1.00  0.00    -0.201 OA 
BRANCH   4   7
HETATM    7  C   UNL     1      -9.580  15.941  67.821  1.00  0.00    -0.218 C  
HETATM    8  H   UNL     1      -9.757  17.181  69.345  1.00  0.00     0.000 HD 
HETATM    9  O   UNL     1      -9.156  16.500  69.064  1.00  0.00    -0.256 OA 
BRANCH   7  10
HETATM   10  C   UNL     1      -9.700  17.063  66.759  1.00  0.00    -0.269 C  
HETATM   11  H   UNL     1     -10.054  17.221  64.794  1.00  0.00     0.000 HD 
HETATM   12  O   UNL     1      -9.980  16.533  65.446  1.00  0.00    -0.552 OA 
BRANCH  10  13
HETATM   13  C   UNL     1      -8.448  17.943  66.664  1.00  0.00    -0.258 C  
HETATM   14  C   UNL     1      -8.734  19.454  66.585  1.00  0.00    -0.335 C  
HETATM   15  O   UNL     1      -7.620  17.481  65.595  1.00  0.00    -0.480 OA 
HETATM   16  O   UNL     1      -9.715  19.902  67.402  1.00  0.00    -0.343 OA 
HETATM   17  O   UNL     1      -8.077  20.210  65.876  1.00  0.00    -0.290 OA 
HETATM   18  H   UNL     1      -6.844  18.026  65.536  1.00  0.00     0.000 HD 
ENDBRANCH  10  13
ENDBRANCH   7  10
ENDBRANCH   4   7
ENDBRANCH   2   4
TORSDOF 4
ENDMDL
MODEL      201
REMARK 921   NORMALIZED FREE ENERGY PREDICTED BY IDOCK:   -2.76 KCAL/MOL
REMARK 922        TOTAL FREE ENERGY PREDICTED BY IDOCK:   -3.88 KCAL/MOL
REMARK 923 INTER-LIGAND FREE ENERGY PREDICTED BY IDOCK:   -4.01 KCAL/MOL
REMARK 924 INTRA-LIGAND FREE ENERGY PREDICTED BY IDOCK:    0.13 KCAL/MOL
REMARK 927      BINDING AFFINITY PREDICTED BY RF-SCORE:    0.00 PKD
ROOT
HETATM    1  O   UNL     1     -12.015  11.745  66.805  1.00  0.00    -0.584 OA 
HETATM    2  C   UNL     1     -11.619  12.717  67.777  1.00  0.00    -0.348 C  
HETATM    3  H   UNL     1     -12.964  11.739  66.763  1.00  0.00     0.000 HD 
ENDROOT
BRANCH   2   4
HETATM    4  C   UNL     1     -10.088  12.727  67.845  1.00  0.00    -0.231 C  
HETATM    5  H   UNL     1      -8.683  11.374  67.861  1.00  0.00     0.000 HD 
HETATM    6  O   UNL     1      -9.632  11.368  67.819  1.00  0.00    -0.166 OA 
BRANCH   4   7
HETATM    7  C   UNL     1      -9.451  13.516  66.688  1.00  0.00    -0.265 C  
HETATM    8  H   UNL     1      -8.309  13.130  65.127  1.00  0.00     0.000 HD 
HETATM    9  O   UNL     1      -8.703  12.643  65.842  1.00  0.00     0.293 OA 
BRANCH   7  10
HETATM   10  C   UNL     1     -10.523  14.260  65.851  1.00  0.00    -0.307 C  
HETATM   11  H   UNL     1     -11.397  14.084  64.059  1.00  0.00     0.000 HD 
HETATM   12  O   UNL     1     -10.740  13.628  64.572  1.00  0.00    -0.399 OA 
BRANCH  10  13
HETATM   13  C   UNL     1     -10.184  15.735  65.607  1.00  0.00    -0.380 C  
HETATM   14  C   UNL     1     -10.387  16.648  66.831  1.00  0.00    -0.299 C  
HETATM   15  O   UNL     1     -10.880  16.200  64.449  1.00  0.00    -0.898 OA 
HETATM   16  O   UNL     1      -9.981  16.132  68.013  1.00  0.00    -0.232 OA 
HETATM   17  O   UNL     1     -10.831  17.788  66.732  1.00  0.00    -0.197 OA 
HETATM   18  H   UNL     1     -10.670  17.114  64.297  1.00  0.00     0.000 HD 
ENDBRANCH  10  13
ENDBRANCH   7  10
ENDBRANCH   4   7
ENDBRANCH   2   4
TORSDOF 4
ENDMDL
MODEL      202
REMARK 921   NORMALIZED FREE ENERGY PREDICTED BY IDOCK:   -2.76 KCAL/MOL
REMARK 922        TOTAL FREE ENERGY PREDICTED BY IDOCK:   -3.88 KCAL/MOL
REMARK 923 INTER-LIGAND FREE ENERGY PREDICTED BY IDOCK:   -3.67 KCAL/MOL
REMARK 924 INTRA-LIGAND FREE ENERGY PREDICTED BY IDOCK:   -0.20 KCAL/MOL
REMARK 927      BINDING AFFINITY PREDICTED BY RF-SCORE:    0.00 PKD
ROOT
HETATM    1  O   UNL     1      -9.274   9.084  62.538  1.00  0.00    -0.532 OA 
HETATM    2  C   UNL     1      -9.635  10.419  62.906  1.00  0.00    -0.295 C  
HETATM    3  H   UNL     1      -9.407   8.989  61.603  1.00  0.00     0.000 HD 
ENDROOT
BRANCH   2   4
HETATM    4  C   UNL     1      -9.421  10.572  64.415  1.00  0.00    -0.281 C  
HETATM    5  H   UNL     1      -7.883  10.545  65.616  1.00  0.00     0.000 HD 
HETATM    6  O   UNL     1      -8.016  10.451  64.681  1.00  0.00    -0.149 OA 
BRANCH   4   7
HETATM    7  C   UNL     1      -9.940  11.917  64.952  1.00  0.00    -0.241 C  
HETATM    8  H   UNL     1     -11.615  12.957  64.880  1.00  0.00     0.000 HD 
HETATM    9  O   UNL     1     -11.294  12.126  64.549  1.00  0.00    -0.313 OA 
BRANCH   7  10
HETATM   10  C   UNL     1      -9.840  11.988  66.497  1.00  0.00    -0.209 C  
HETATM   11  H   UNL     1      -8.512  12.574  67.876  1.00  0.00     0.000 HD 
HETATM   12  O   UNL     1      -8.574  12.531  66.928  1.00  0.00    -0.195 OA 
BRANCH  10  13
HETATM   13  C   UNL     1     -10.036  10.628  67.179  1.00  0.00    -0.207 C  
HETATM   14  C   UNL     1     -11.094  10.624  68.299  1.00  0.00    -0.279 C  
HETATM   15  O   UNL     1      -8.771  10.123  67.611  1.00  0.00    -0.122 OA 
HETATM   16  O   UNL     1     -12.219  11.326  68.037  1.00  0.00    -0.621 OA 
HETATM   17  O   UNL     1     -10.951   9.977  69.332  1.00  0.00    -0.229 OA 
HETATM   18  H   UNL     1      -8.893   9.281  68.033  1.00  0.00     0.000 HD 
ENDBRANCH  10  13
ENDBRANCH   7  10
ENDBRANCH   4   7
ENDBRANCH   2   4
TORSDOF 4
ENDMDL
MODEL      203
REMARK 921   NORMALIZED FREE ENERGY PREDICTED BY IDOCK:   -2.75 KCAL/MOL
REMARK 922        TOTAL FREE ENERGY PREDICTED BY IDOCK:   -3.87 KCAL/MOL
REMARK 923 INTER-LIGAND FREE ENERGY PREDICTED BY IDOCK:   -3.46 KCAL/MOL
REMARK 924 INTRA-LIGAND FREE ENERGY PREDICTED BY IDOCK:   -0.41 KCAL/MOL
REMARK 927      BINDING AFFINITY PREDICTED BY RF-SCORE:    0.00 PKD
ROOT
HETATM    1  O   UNL     1      -6.988  14.261  66.966  1.00  0.00    -0.374 OA 
HETATM    2  C   UNL     1      -7.810  13.699  67.994  1.00  0.00    -0.150 C  
HETATM    3  H   UNL     1      -6.634  13.549  66.448  1.00  0.00     0.000 HD 
ENDROOT
BRANCH   2   4
HETATM    4  C   UNL     1      -8.382  14.849  68.829  1.00  0.00    -0.170 C  
HETATM    5  H   UNL     1      -7.774  16.624  69.362  1.00  0.00     0.000 HD 
HETATM    6  O   UNL     1      -7.419  15.912  68.844  1.00  0.00    -0.152 OA 
BRANCH   4   7
HETATM    7  C   UNL     1      -9.724  15.366  68.281  1.00  0.00    -0.209 C  
HETATM    8  H   UNL     1     -11.062  14.796  66.950  1.00  0.00     0.000 HD 
HETATM    9  O   UNL     1     -10.234  14.477  67.288  1.00  0.00    -0.252 OA 
BRANCH   7  10
HETATM   10  C   UNL     1     -10.769  15.540  69.412  1.00  0.00    -0.251 C  
HETATM   11  H   UNL     1     -10.783  15.871  71.387  1.00  0.00     0.000 HD 
HETATM   12  O   UNL     1     -10.142  15.765  70.693  1.00  0.00     0.113 OA 
BRANCH  10  13
HETATM   13  C   UNL     1     -11.720  14.344  69.546  1.00  0.00    -0.313 C  
HETATM   14  C   UNL     1     -12.757  14.477  70.676  1.00  0.00    -0.360 C  
HETATM   15  O   UNL     1     -10.959  13.137  69.633  1.00  0.00    -0.463 OA 
HETATM   16  O   UNL     1     -13.318  15.700  70.807  1.00  0.00    -0.535 OA 
HETATM   17  O   UNL     1     -13.096  13.523  71.371  1.00  0.00    -0.341 OA 
HETATM   18  H   UNL     1     -11.548  12.396  69.716  1.00  0.00     0.000 HD 
ENDBRANCH  10  13
ENDBRANCH   7  10
ENDBRANCH   4   7
ENDBRANCH   2   4
TORSDOF 4
ENDMDL
MODEL      204
REMARK 921   NORMALIZED FREE ENERGY PREDICTED BY IDOCK:   -2.74 KCAL/MOL
REMARK 922        TOTAL FREE ENERGY PREDICTED BY IDOCK:   -3.85 KCAL/MOL
REMARK 923 INTER-LIGAND FREE ENERGY PREDICTED BY IDOCK:   -3.22 KCAL/MOL
REMARK 924 INTRA-LIGAND FREE ENERGY PREDICTED BY IDOCK:   -0.63 KCAL/MOL
REMARK 927      BINDING AFFINITY PREDICTED BY RF-SCORE:    0.00 PKD
ROOT
HETATM    1  O   UNL     1      -9.757   6.555  67.414  1.00  0.00    -0.121 OA 
HETATM    2  C   UNL     1     -11.032   6.309  68.014  1.00  0.00    -0.327 C  
HETATM    3  H   UNL     1      -9.891   6.696  66.484  1.00  0.00     0.000 HD 
ENDROOT
BRANCH   2   4
HETATM    4  C   UNL     1     -10.817   6.081  69.514  1.00  0.00    -0.369 C  
HETATM    5  H   UNL     1      -9.272   5.879  70.687  1.00  0.00     0.000 HD 
HETATM    6  O   UNL     1      -9.405   6.020  69.758  1.00  0.00    -0.147 OA 
BRANCH   4   7
HETATM    7  C   UNL     1     -11.450   7.188  70.376  1.00  0.00    -0.278 C  
HETATM    8  H   UNL     1     -12.368   7.323  72.116  1.00  0.00     0.000 HD 
HETATM    9  O   UNL     1     -11.978   6.640  71.584  1.00  0.00    -0.318 OA 
BRANCH   7  10
HETATM   10  C   UNL     1     -10.424   8.300  70.712  1.00  0.00    -0.196 C  
HETATM   11  H   UNL     1      -9.893   9.404  72.296  1.00  0.00     0.000 HD 
HETATM   12  O   UNL     1     -10.522   8.721  72.089  1.00  0.00    -0.337 OA 
BRANCH  10  13
HETATM   13  C   UNL     1     -10.560   9.539  69.819  1.00  0.00    -0.236 C  
HETATM   14  C   UNL     1      -9.279   9.919  69.055  1.00  0.00    -0.168 C  
HETATM   15  O   UNL     1     -11.090  10.624  70.585  1.00  0.00    -0.426 OA 
HETATM   16  O   UNL     1      -8.586   8.882  68.532  1.00  0.00    -0.131 OA 
HETATM   17  O   UNL     1      -8.941  11.086  68.881  1.00  0.00    -0.168 OA 
HETATM   18  H   UNL     1     -11.174  11.391  70.032  1.00  0.00     0.000 HD 
ENDBRANCH  10  13
ENDBRANCH   7  10
ENDBRANCH   4   7
ENDBRANCH   2   4
TORSDOF 4
ENDMDL
MODEL      205
REMARK 921   NORMALIZED FREE ENERGY PREDICTED BY IDOCK:   -2.74 KCAL/MOL
REMARK 922        TOTAL FREE ENERGY PREDICTED BY IDOCK:   -3.85 KCAL/MOL
REMARK 923 INTER-LIGAND FREE ENERGY PREDICTED BY IDOCK:   -3.60 KCAL/MOL
REMARK 924 INTRA-LIGAND FREE ENERGY PREDICTED BY IDOCK:   -0.25 KCAL/MOL
REMARK 927      BINDING AFFINITY PREDICTED BY RF-SCORE:    0.00 PKD
ROOT
HETATM    1  O   UNL     1      -6.778  17.382  69.079  1.00  0.00    -0.222 OA 
HETATM    2  C   UNL     1      -5.961  17.643  67.934  1.00  0.00    -0.152 C  
HETATM    3  H   UNL     1      -6.211  17.324  69.839  1.00  0.00     0.000 HD 
ENDROOT
BRANCH   2   4
HETATM    4  C   UNL     1      -6.875  17.737  66.707  1.00  0.00    -0.191 C  
HETATM    5  H   UNL     1      -7.694  16.464  65.477  1.00  0.00     0.000 HD 
HETATM    6  O   UNL     1      -7.128  16.405  66.237  1.00  0.00    -0.106 OA 
BRANCH   4   7
HETATM    7  C   UNL     1      -8.206  18.444  67.016  1.00  0.00    -0.247 C  
HETATM    8  H   UNL     1      -9.214  19.997  66.334  1.00  0.00     0.000 HD 
HETATM    9  O   UNL     1      -8.392  19.560  66.144  1.00  0.00    -0.334 OA 
BRANCH   7  10
HETATM   10  C   UNL     1      -9.407  17.474  66.885  1.00  0.00    -0.269 C  
HETATM   11  H   UNL     1     -11.206  17.444  66.007  1.00  0.00     0.000 HD 
HETATM   12  O   UNL     1     -10.469  18.039  66.088  1.00  0.00    -0.386 OA 
BRANCH  10  13
HETATM   13  C   UNL     1      -9.995  17.052  68.238  1.00  0.00    -0.285 C  
HETATM   14  C   UNL     1     -11.023  15.909  68.158  1.00  0.00    -0.335 C  
HETATM   15  O   UNL     1     -10.498  18.203  68.919  1.00  0.00    -0.417 OA 
HETATM   16  O   UNL     1     -10.711  14.906  67.306  1.00  0.00    -0.282 OA 
HETATM   17  O   UNL     1     -12.027  15.880  68.863  1.00  0.00    -0.370 OA 
HETATM   18  H   UNL     1     -10.862  17.941  69.757  1.00  0.00     0.000 HD 
ENDBRANCH  10  13
ENDBRANCH   7  10
ENDBRANCH   4   7
ENDBRANCH   2   4
TORSDOF 4
ENDMDL
MODEL      206
REMARK 921   NORMALIZED FREE ENERGY PREDICTED BY IDOCK:   -2.74 KCAL/MOL
REMARK 922        TOTAL FREE ENERGY PREDICTED BY IDOCK:   -3.85 KCAL/MOL
REMARK 923 INTER-LIGAND FREE ENERGY PREDICTED BY IDOCK:   -3.40 KCAL/MOL
REMARK 924 INTRA-LIGAND FREE ENERGY PREDICTED BY IDOCK:   -0.44 KCAL/MOL
REMARK 927      BINDING AFFINITY PREDICTED BY RF-SCORE:    0.00 PKD
ROOT
HETATM    1  O   UNL     1      -7.271  17.326  69.018  1.00  0.00    -0.244 OA 
HETATM    2  C   UNL     1      -6.037  17.799  68.471  1.00  0.00    -0.181 C  
HETATM    3  H   UNL     1      -7.074  16.832  69.805  1.00  0.00     0.000 HD 
ENDROOT
BRANCH   2   4
HETATM    4  C   UNL     1      -6.353  18.597  67.201  1.00  0.00    -0.186 C  
HETATM    5  H   UNL     1      -6.532  18.185  65.302  1.00  0.00     0.000 HD 
HETATM    6  O   UNL     1      -6.336  17.690  66.089  1.00  0.00    -0.212 OA 
BRANCH   4   7
HETATM    7  C   UNL     1      -7.716  19.308  67.275  1.00  0.00    -0.245 C  
HETATM    8  H   UNL     1      -8.386  21.163  67.249  1.00  0.00     0.000 HD 
HETATM    9  O   UNL     1      -7.545  20.724  67.204  1.00  0.00    -0.335 OA 
BRANCH   7  10
HETATM   10  C   UNL     1      -8.662  18.840  66.140  1.00  0.00    -0.139 C  
HETATM   11  H   UNL     1      -9.922  19.663  64.820  1.00  0.00     0.000 HD 
HETATM   12  O   UNL     1      -9.342  19.949  65.516  1.00  0.00    -0.242 OA 
BRANCH  10  13
HETATM   13  C   UNL     1      -9.718  17.831  66.609  1.00  0.00    -0.313 C  
HETATM   14  C   UNL     1     -10.413  18.205  67.931  1.00  0.00    -0.392 C  
HETATM   15  O   UNL     1      -9.148  16.521  66.634  1.00  0.00    -0.222 OA 
HETATM   16  O   UNL     1     -10.735  19.511  68.069  1.00  0.00    -0.385 OA 
HETATM   17  O   UNL     1     -10.709  17.365  68.776  1.00  0.00    -0.309 OA 
HETATM   18  H   UNL     1      -9.803  15.896  66.924  1.00  0.00     0.000 HD 
ENDBRANCH  10  13
ENDBRANCH   7  10
ENDBRANCH   4   7
ENDBRANCH   2   4
TORSDOF 4
ENDMDL
MODEL      207
REMARK 921   NORMALIZED FREE ENERGY PREDICTED BY IDOCK:   -2.73 KCAL/MOL
REMARK 922        TOTAL FREE ENERGY PREDICTED BY IDOCK:   -3.84 KCAL/MOL
REMARK 923 INTER-LIGAND FREE ENERGY PREDICTED BY IDOCK:   -4.11 KCAL/MOL
REMARK 924 INTRA-LIGAND FREE ENERGY PREDICTED BY IDOCK:    0.27 KCAL/MOL
REMARK 927      BINDING AFFINITY PREDICTED BY RF-SCORE:    0.00 PKD
ROOT
HETATM    1  O   UNL     1     -10.610  17.212  67.759  1.00  0.00    -0.352 OA 
HETATM    2  C   UNL     1     -10.477  17.979  66.559  1.00  0.00    -0.334 C  
HETATM    3  H   UNL     1     -11.064  16.406  67.545  1.00  0.00     0.000 HD 
ENDROOT
BRANCH   2   4
HETATM    4  C   UNL     1      -9.744  19.280  66.904  1.00  0.00    -0.331 C  
HETATM    5  H   UNL     1      -9.671  20.475  68.445  1.00  0.00     0.000 HD 
HETATM    6  O   UNL     1     -10.126  19.669  68.231  1.00  0.00    -0.405 OA 
BRANCH   4   7
HETATM    7  C   UNL     1      -8.214  19.135  66.821  1.00  0.00    -0.280 C  
HETATM    8  H   UNL     1      -6.833  19.127  65.413  1.00  0.00     0.000 HD 
HETATM    9  O   UNL     1      -7.778  19.216  65.464  1.00  0.00    -0.432 OA 
BRANCH   7  10
HETATM   10  C   UNL     1      -7.496  20.218  67.665  1.00  0.00    -0.309 C  
HETATM   11  H   UNL     1      -6.712  22.040  67.392  1.00  0.00     0.000 HD 
HETATM   12  O   UNL     1      -7.153  21.375  66.875  1.00  0.00    -0.419 OA 
BRANCH  10  13
HETATM   13  C   UNL     1      -6.220  19.706  68.346  1.00  0.00    -0.239 C  
HETATM   14  C   UNL     1      -6.447  18.554  69.343  1.00  0.00    -0.242 C  
HETATM   15  O   UNL     1      -5.513  20.806  68.923  1.00  0.00    -0.293 OA 
HETATM   16  O   UNL     1      -7.329  17.609  68.947  1.00  0.00    -0.258 OA 
HETATM   17  O   UNL     1      -5.825  18.468  70.398  1.00  0.00    -0.212 OA 
HETATM   18  H   UNL     1      -4.723  20.489  69.345  1.00  0.00     0.000 HD 
ENDBRANCH  10  13
ENDBRANCH   7  10
ENDBRANCH   4   7
ENDBRANCH   2   4
TORSDOF 4
ENDMDL
MODEL      208
REMARK 921   NORMALIZED FREE ENERGY PREDICTED BY IDOCK:   -2.73 KCAL/MOL
REMARK 922        TOTAL FREE ENERGY PREDICTED BY IDOCK:   -3.84 KCAL/MOL
REMARK 923 INTER-LIGAND FREE ENERGY PREDICTED BY IDOCK:   -3.32 KCAL/MOL
REMARK 924 INTRA-LIGAND FREE ENERGY PREDICTED BY IDOCK:   -0.52 KCAL/MOL
REMARK 927      BINDING AFFINITY PREDICTED BY RF-SCORE:    0.00 PKD
ROOT
HETATM    1  O   UNL     1     -10.912   8.460  67.757  1.00  0.00    -0.496 OA 
HETATM    2  C   UNL     1     -10.084   9.478  67.186  1.00  0.00    -0.229 C  
HETATM    3  H   UNL     1     -10.548   7.616  67.521  1.00  0.00     0.000 HD 
ENDROOT
BRANCH   2   4
HETATM    4  C   UNL     1     -10.671  10.841  67.568  1.00  0.00    -0.264 C  
HETATM    5  H   UNL     1     -12.398  11.487  68.205  1.00  0.00     0.000 HD 
HETATM    6  O   UNL     1     -12.034  10.642  67.969  1.00  0.00    -0.457 OA 
BRANCH   4   7
HETATM    7  C   UNL     1      -9.887  11.525  68.701  1.00  0.00    -0.177 C  
HETATM    8  H   UNL     1      -8.220  11.207  69.708  1.00  0.00     0.000 HD 
HETATM    9  O   UNL     1      -8.705  10.785  69.008  1.00  0.00    -0.161 OA 
BRANCH   7  10
HETATM   10  C   UNL     1      -9.508  12.981  68.329  1.00  0.00    -0.208 C  
HETATM   11  H   UNL     1     -10.011  14.343  66.950  1.00  0.00     0.000 HD 
HETATM   12  O   UNL     1     -10.243  13.450  67.179  1.00  0.00    -0.243 OA 
BRANCH  10  13
HETATM   13  C   UNL     1      -8.011  13.165  68.051  1.00  0.00    -0.156 C  
HETATM   14  C   UNL     1      -7.558  14.633  67.946  1.00  0.00    -0.142 C  
HETATM   15  O   UNL     1      -7.639  12.388  66.911  1.00  0.00    -0.348 OA 
HETATM   16  O   UNL     1      -8.102  15.475  68.854  1.00  0.00    -0.161 OA 
HETATM   17  O   UNL     1      -6.714  15.002  67.134  1.00  0.00    -0.273 OA 
HETATM   18  H   UNL     1      -6.711  12.502  66.739  1.00  0.00     0.000 HD 
ENDBRANCH  10  13
ENDBRANCH   7  10
ENDBRANCH   4   7
ENDBRANCH   2   4
TORSDOF 4
ENDMDL
MODEL      209
REMARK 921   NORMALIZED FREE ENERGY PREDICTED BY IDOCK:   -2.73 KCAL/MOL
REMARK 922        TOTAL FREE ENERGY PREDICTED BY IDOCK:   -3.83 KCAL/MOL
REMARK 923 INTER-LIGAND FREE ENERGY PREDICTED BY IDOCK:   -3.49 KCAL/MOL
REMARK 924 INTRA-LIGAND FREE ENERGY PREDICTED BY IDOCK:   -0.35 KCAL/MOL
REMARK 927      BINDING AFFINITY PREDICTED BY RF-SCORE:    0.00 PKD
ROOT
HETATM    1  O   UNL     1      -8.609  16.200  66.170  1.00  0.00    -0.326 OA 
HETATM    2  C   UNL     1      -8.376  17.328  67.018  1.00  0.00    -0.208 C  
HETATM    3  H   UNL     1      -8.112  16.323  65.371  1.00  0.00     0.000 HD 
ENDROOT
BRANCH   2   4
HETATM    4  C   UNL     1      -9.178  17.129  68.308  1.00  0.00    -0.262 C  
HETATM    5  H   UNL     1     -11.036  17.380  68.849  1.00  0.00     0.000 HD 
HETATM    6  O   UNL     1     -10.539  17.503  68.050  1.00  0.00    -0.375 OA 
BRANCH   4   7
HETATM    7  C   UNL     1      -9.123  15.679  68.820  1.00  0.00    -0.208 C  
HETATM    8  H   UNL     1      -8.257  14.694  70.294  1.00  0.00     0.000 HD 
HETATM    9  O   UNL     1      -8.291  15.590  69.977  1.00  0.00     0.010 OA 
BRANCH   7  10
HETATM   10  C   UNL     1     -10.538  15.141  69.153  1.00  0.00    -0.256 C  
HETATM   11  H   UNL     1     -11.699  14.908  70.767  1.00  0.00     0.000 HD 
HETATM   12  O   UNL     1     -10.832  15.238  70.562  1.00  0.00    -0.295 OA 
BRANCH  10  13
HETATM   13  C   UNL     1     -10.750  13.686  68.717  1.00  0.00    -0.244 C  
HETATM   14  C   UNL     1     -11.739  13.507  67.551  1.00  0.00    -0.367 C  
HETATM   15  O   UNL     1     -11.087  12.891  69.855  1.00  0.00    -0.473 OA 
HETATM   16  O   UNL     1     -11.634  14.417  66.556  1.00  0.00    -0.354 OA 
HETATM   17  O   UNL     1     -12.528  12.568  67.499  1.00  0.00    -0.130 OA 
HETATM   18  H   UNL     1     -11.218  11.989  69.585  1.00  0.00     0.000 HD 
ENDBRANCH  10  13
ENDBRANCH   7  10
ENDBRANCH   4   7
ENDBRANCH   2   4
TORSDOF 4
ENDMDL
MODEL      210
REMARK 921   NORMALIZED FREE ENERGY PREDICTED BY IDOCK:   -2.70 KCAL/MOL
REMARK 922        TOTAL FREE ENERGY PREDICTED BY IDOCK:   -3.80 KCAL/MOL
REMARK 923 INTER-LIGAND FREE ENERGY PREDICTED BY IDOCK:   -3.46 KCAL/MOL
REMARK 924 INTRA-LIGAND FREE ENERGY PREDICTED BY IDOCK:   -0.34 KCAL/MOL
REMARK 927      BINDING AFFINITY PREDICTED BY RF-SCORE:    0.00 PKD
ROOT
HETATM    1  O   UNL     1      -7.599   6.502  67.377  1.00  0.00    -0.096 OA 
HETATM    2  C   UNL     1      -8.768   7.038  68.003  1.00  0.00    -0.126 C  
HETATM    3  H   UNL     1      -7.097   6.038  68.036  1.00  0.00     0.000 HD 
ENDROOT
BRANCH   2   4
HETATM    4  C   UNL     1      -9.579   7.786  66.940  1.00  0.00    -0.198 C  
HETATM    5  H   UNL     1     -11.391   7.667  66.226  1.00  0.00     0.000 HD 
HETATM    6  O   UNL     1     -10.889   7.203  66.886  1.00  0.00    -0.352 OA 
BRANCH   4   7
HETATM    7  C   UNL     1      -9.689   9.293  67.232  1.00  0.00    -0.167 C  
HETATM    8  H   UNL     1      -9.888  10.960  66.196  1.00  0.00     0.000 HD 
HETATM    9  O   UNL     1      -9.820  10.029  66.016  1.00  0.00    -0.222 OA 
BRANCH   7  10
HETATM   10  C   UNL     1     -10.889   9.604  68.162  1.00  0.00    -0.190 C  
HETATM   11  H   UNL     1     -12.372  10.944  68.278  1.00  0.00     0.000 HD 
HETATM   12  O   UNL     1     -11.636  10.753  67.708  1.00  0.00    -0.521 OA 
BRANCH  10  13
HETATM   13  C   UNL     1     -10.479   9.842  69.620  1.00  0.00    -0.249 C  
HETATM   14  C   UNL     1     -11.213   8.954  70.642  1.00  0.00    -0.266 C  
HETATM   15  O   UNL     1     -10.582  11.235  69.923  1.00  0.00    -0.436 OA 
HETATM   16  O   UNL     1     -11.380   7.663  70.275  1.00  0.00    -0.262 OA 
HETATM   17  O   UNL     1     -11.567   9.373  71.740  1.00  0.00    -0.377 OA 
HETATM   18  H   UNL     1     -10.327  11.382  70.827  1.00  0.00     0.000 HD 
ENDBRANCH  10  13
ENDBRANCH   7  10
ENDBRANCH   4   7
ENDBRANCH   2   4
TORSDOF 4
ENDMDL
MODEL      211
REMARK 921   NORMALIZED FREE ENERGY PREDICTED BY IDOCK:   -2.69 KCAL/MOL
REMARK 922        TOTAL FREE ENERGY PREDICTED BY IDOCK:   -3.79 KCAL/MOL
REMARK 923 INTER-LIGAND FREE ENERGY PREDICTED BY IDOCK:   -3.85 KCAL/MOL
REMARK 924 INTRA-LIGAND FREE ENERGY PREDICTED BY IDOCK:    0.06 KCAL/MOL
REMARK 927      BINDING AFFINITY PREDICTED BY RF-SCORE:    0.00 PKD
ROOT
HETATM    1  O   UNL     1     -11.834  12.683  70.603  1.00  0.00    -0.513 OA 
HETATM    2  C   UNL     1     -11.811  12.429  69.195  1.00  0.00    -0.300 C  
HETATM    3  H   UNL     1     -11.698  11.858  71.054  1.00  0.00     0.000 HD 
ENDROOT
BRANCH   2   4
HETATM    4  C   UNL     1     -12.030  13.759  68.467  1.00  0.00    -0.367 C  
HETATM    5  H   UNL     1     -11.561  15.624  68.798  1.00  0.00     0.000 HD 
HETATM    6  O   UNL     1     -11.426  14.800  69.249  1.00  0.00    -0.264 OA 
BRANCH   4   7
HETATM    7  C   UNL     1     -11.436  13.760  67.048  1.00  0.00    -0.346 C  
HETATM    8  H   UNL     1     -11.981  14.356  65.248  1.00  0.00     0.000 HD 
HETATM    9  O   UNL     1     -12.348  14.356  66.125  1.00  0.00    -0.401 OA 
BRANCH   7  10
HETATM   10  C   UNL     1     -10.081  14.512  67.000  1.00  0.00    -0.254 C  
HETATM   11  H   UNL     1      -8.963  15.479  65.650  1.00  0.00     0.000 HD 
HETATM   12  O   UNL     1      -9.794  15.018  65.680  1.00  0.00    -0.329 OA 
BRANCH  10  13
HETATM   13  C   UNL     1      -8.895  13.651  67.453  1.00  0.00    -0.221 C  
HETATM   14  C   UNL     1      -9.054  12.146  67.167  1.00  0.00    -0.189 C  
HETATM   15  O   UNL     1      -8.602  13.925  68.825  1.00  0.00    -0.314 OA 
HETATM   16  O   UNL     1      -9.588  11.837  65.964  1.00  0.00    -0.222 OA 
HETATM   17  O   UNL     1      -8.666  11.285  67.952  1.00  0.00    -0.130 OA 
HETATM   18  H   UNL     1      -7.867  13.392  69.105  1.00  0.00     0.000 HD 
ENDBRANCH  10  13
ENDBRANCH   7  10
ENDBRANCH   4   7
ENDBRANCH   2   4
TORSDOF 4
ENDMDL
MODEL      212
REMARK 921   NORMALIZED FREE ENERGY PREDICTED BY IDOCK:   -2.69 KCAL/MOL
REMARK 922        TOTAL FREE ENERGY PREDICTED BY IDOCK:   -3.79 KCAL/MOL
REMARK 923 INTER-LIGAND FREE ENERGY PREDICTED BY IDOCK:   -3.33 KCAL/MOL
REMARK 924 INTRA-LIGAND FREE ENERGY PREDICTED BY IDOCK:   -0.46 KCAL/MOL
REMARK 927      BINDING AFFINITY PREDICTED BY RF-SCORE:    0.00 PKD
ROOT
HETATM    1  O   UNL     1      -7.759  16.078  68.039  1.00  0.00    -0.129 OA 
HETATM    2  C   UNL     1      -8.265  15.335  66.926  1.00  0.00    -0.228 C  
HETATM    3  H   UNL     1      -6.811  16.069  67.994  1.00  0.00     0.000 HD 
ENDROOT
BRANCH   2   4
HETATM    4  C   UNL     1      -9.796  15.350  66.999  1.00  0.00    -0.232 C  
HETATM    5  H   UNL     1     -11.254  15.340  65.703  1.00  0.00     0.000 HD 
HETATM    6  O   UNL     1     -10.305  15.331  65.658  1.00  0.00    -0.311 OA 
BRANCH   4   7
HETATM    7  C   UNL     1     -10.361  14.159  67.791  1.00  0.00    -0.242 C  
HETATM    8  H   UNL     1      -9.709  12.872  69.136  1.00  0.00     0.000 HD 
HETATM    9  O   UNL     1      -9.360  13.608  68.647  1.00  0.00    -0.164 OA 
BRANCH   7  10
HETATM   10  C   UNL     1     -11.596  14.572  68.631  1.00  0.00    -0.315 C  
HETATM   11  H   UNL     1     -12.655  16.229  69.003  1.00  0.00     0.000 HD 
HETATM   12  O   UNL     1     -11.898  15.976  68.487  1.00  0.00    -0.343 OA 
BRANCH  10  13
HETATM   13  C   UNL     1     -11.441  14.265  70.126  1.00  0.00    -0.191 C  
HETATM   14  C   UNL     1     -12.169  12.991  70.594  1.00  0.00    -0.307 C  
HETATM   15  O   UNL     1     -11.798  15.418  70.890  1.00  0.00    -0.293 OA 
HETATM   16  O   UNL     1     -12.082  11.932  69.757  1.00  0.00    -0.290 OA 
HETATM   17  O   UNL     1     -12.737  12.922  71.680  1.00  0.00    -0.289 OA 
HETATM   18  H   UNL     1     -11.702  15.228  71.816  1.00  0.00     0.000 HD 
ENDBRANCH  10  13
ENDBRANCH   7  10
ENDBRANCH   4   7
ENDBRANCH   2   4
TORSDOF 4
ENDMDL
MODEL      213
REMARK 921   NORMALIZED FREE ENERGY PREDICTED BY IDOCK:   -2.67 KCAL/MOL
REMARK 922        TOTAL FREE ENERGY PREDICTED BY IDOCK:   -3.76 KCAL/MOL
REMARK 923 INTER-LIGAND FREE ENERGY PREDICTED BY IDOCK:   -3.48 KCAL/MOL
REMARK 924 INTRA-LIGAND FREE ENERGY PREDICTED BY IDOCK:   -0.28 KCAL/MOL
REMARK 927      BINDING AFFINITY PREDICTED BY RF-SCORE:    0.00 PKD
ROOT
HETATM    1  O   UNL     1      -9.677   7.735  65.976  1.00  0.00    -0.440 OA 
HETATM    2  C   UNL     1      -9.239   7.750  67.338  1.00  0.00    -0.136 C  
HETATM    3  H   UNL     1      -8.975   8.077  65.436  1.00  0.00     0.000 HD 
ENDROOT
BRANCH   2   4
HETATM    4  C   UNL     1     -10.372   7.198  68.209  1.00  0.00    -0.195 C  
HETATM    5  H   UNL     1     -12.083   6.319  67.882  1.00  0.00     0.000 HD 
HETATM    6  O   UNL     1     -11.381   6.661  67.341  1.00  0.00    -0.299 OA 
BRANCH   4   7
HETATM    7  C   UNL     1      -9.890   6.111  69.186  1.00  0.00    -0.145 C  
HETATM    8  H   UNL     1      -8.176   5.277  69.695  1.00  0.00     0.000 HD 
HETATM    9  O   UNL     1      -8.474   5.949  69.092  1.00  0.00    -0.111 OA 
BRANCH   7  10
HETATM   10  C   UNL     1     -10.280   6.448  70.647  1.00  0.00    -0.190 C  
HETATM   11  H   UNL     1     -10.866   5.471  72.293  1.00  0.00     0.000 HD 
HETATM   12  O   UNL     1     -10.626   5.264  71.397  1.00  0.00    -0.225 OA 
BRANCH  10  13
HETATM   13  C   UNL     1     -11.447   7.439  70.748  1.00  0.00    -0.288 C  
HETATM   14  C   UNL     1     -11.303   8.480  71.874  1.00  0.00    -0.329 C  
HETATM   15  O   UNL     1     -12.680   6.720  70.814  1.00  0.00    -0.460 OA 
HETATM   16  O   UNL     1     -10.064   9.001  72.028  1.00  0.00    -0.327 OA 
HETATM   17  O   UNL     1     -12.259   8.856  72.545  1.00  0.00    -0.337 OA 
HETATM   18  H   UNL     1     -13.402   7.334  70.877  1.00  0.00     0.000 HD 
ENDBRANCH  10  13
ENDBRANCH   7  10
ENDBRANCH   4   7
ENDBRANCH   2   4
TORSDOF 4
ENDMDL
MODEL      214
REMARK 921   NORMALIZED FREE ENERGY PREDICTED BY IDOCK:   -2.67 KCAL/MOL
REMARK 922        TOTAL FREE ENERGY PREDICTED BY IDOCK:   -3.76 KCAL/MOL
REMARK 923 INTER-LIGAND FREE ENERGY PREDICTED BY IDOCK:   -3.56 KCAL/MOL
REMARK 924 INTRA-LIGAND FREE ENERGY PREDICTED BY IDOCK:   -0.20 KCAL/MOL
REMARK 927      BINDING AFFINITY PREDICTED BY RF-SCORE:    0.00 PKD
ROOT
HETATM    1  O   UNL     1     -10.653  18.061  68.554  1.00  0.00    -0.313 OA 
HETATM    2  C   UNL     1     -10.609  16.631  68.588  1.00  0.00    -0.337 C  
HETATM    3  H   UNL     1     -10.722  18.375  69.447  1.00  0.00     0.000 HD 
ENDROOT
BRANCH   2   4
HETATM    4  C   UNL     1     -10.498  16.123  67.146  1.00  0.00    -0.305 C  
HETATM    5  H   UNL     1      -9.076  15.999  65.816  1.00  0.00     0.000 HD 
HETATM    6  O   UNL     1      -9.144  16.314  66.710  1.00  0.00    -0.204 OA 
BRANCH   4   7
HETATM    7  C   UNL     1     -10.888  14.641  67.011  1.00  0.00    -0.304 C  
HETATM    8  H   UNL     1     -12.504  13.603  66.565  1.00  0.00     0.000 HD 
HETATM    9  O   UNL     1     -12.264  14.518  66.649  1.00  0.00    -0.379 OA 
BRANCH   7  10
HETATM   10  C   UNL     1     -10.006  13.917  65.961  1.00  0.00    -0.310 C  
HETATM   11  H   UNL     1      -9.905  13.743  63.969  1.00  0.00     0.000 HD 
HETATM   12  O   UNL     1     -10.445  14.187  64.613  1.00  0.00    -0.434 OA 
BRANCH  10  13
HETATM   13  C   UNL     1      -9.960  12.396  66.156  1.00  0.00    -0.253 C  
HETATM   14  C   UNL     1      -8.620  11.863  66.693  1.00  0.00    -0.163 C  
HETATM   15  O   UNL     1     -10.370  11.748  64.950  1.00  0.00    -0.264 OA 
HETATM   16  O   UNL     1      -8.049  12.605  67.669  1.00  0.00    -0.148 OA 
HETATM   17  O   UNL     1      -8.133  10.805  66.306  1.00  0.00    -0.149 OA 
HETATM   18  H   UNL     1     -10.342  10.806  65.070  1.00  0.00     0.000 HD 
ENDBRANCH  10  13
ENDBRANCH   7  10
ENDBRANCH   4   7
ENDBRANCH   2   4
TORSDOF 4
ENDMDL
MODEL      215
REMARK 921   NORMALIZED FREE ENERGY PREDICTED BY IDOCK:   -2.66 KCAL/MOL
REMARK 922        TOTAL FREE ENERGY PREDICTED BY IDOCK:   -3.75 KCAL/MOL
REMARK 923 INTER-LIGAND FREE ENERGY PREDICTED BY IDOCK:   -3.36 KCAL/MOL
REMARK 924 INTRA-LIGAND FREE ENERGY PREDICTED BY IDOCK:   -0.39 KCAL/MOL
REMARK 927      BINDING AFFINITY PREDICTED BY RF-SCORE:    0.00 PKD
ROOT
HETATM    1  O   UNL     1      -6.269  15.878  69.749  1.00  0.00    -0.167 OA 
HETATM    2  C   UNL     1      -5.582  16.992  69.171  1.00  0.00    -0.155 C  
HETATM    3  H   UNL     1      -5.626  15.325  70.177  1.00  0.00     0.000 HD 
ENDROOT
BRANCH   2   4
HETATM    4  C   UNL     1      -6.619  17.884  68.479  1.00  0.00    -0.215 C  
HETATM    5  H   UNL     1      -6.654  19.711  67.795  1.00  0.00     0.000 HD 
HETATM    6  O   UNL     1      -6.011  19.158  68.223  1.00  0.00    -0.209 OA 
BRANCH   4   7
HETATM    7  C   UNL     1      -7.136  17.277  67.163  1.00  0.00    -0.173 C  
HETATM    8  H   UNL     1      -6.906  15.600  66.151  1.00  0.00     0.000 HD 
HETATM    9  O   UNL     1      -6.587  15.975  66.964  1.00  0.00    -0.238 OA 
BRANCH   7  10
HETATM   10  C   UNL     1      -8.684  17.198  67.146  1.00  0.00    -0.212 C  
HETATM   11  H   UNL     1     -10.100  15.859  66.687  1.00  0.00     0.000 HD 
HETATM   12  O   UNL     1      -9.151  15.908  66.698  1.00  0.00    -0.215 OA 
BRANCH  10  13
HETATM   13  C   UNL     1      -9.335  18.275  66.269  1.00  0.00    -0.213 C  
HETATM   14  C   UNL     1      -9.943  19.454  67.052  1.00  0.00    -0.364 C  
HETATM   15  O   UNL     1     -10.269  17.664  65.376  1.00  0.00    -0.576 OA 
HETATM   16  O   UNL     1      -9.205  19.901  68.093  1.00  0.00    -0.331 OA 
HETATM   17  O   UNL     1     -10.995  19.990  66.717  1.00  0.00    -0.294 OA 
HETATM   18  H   UNL     1     -10.672  18.331  64.832  1.00  0.00     0.000 HD 
ENDBRANCH  10  13
ENDBRANCH   7  10
ENDBRANCH   4   7
ENDBRANCH   2   4
TORSDOF 4
ENDMDL
MODEL      216
REMARK 921   NORMALIZED FREE ENERGY PREDICTED BY IDOCK:   -2.65 KCAL/MOL
REMARK 922        TOTAL FREE ENERGY PREDICTED BY IDOCK:   -3.74 KCAL/MOL
REMARK 923 INTER-LIGAND FREE ENERGY PREDICTED BY IDOCK:   -3.26 KCAL/MOL
REMARK 924 INTRA-LIGAND FREE ENERGY PREDICTED BY IDOCK:   -0.47 KCAL/MOL
REMARK 927      BINDING AFFINITY PREDICTED BY RF-SCORE:    0.00 PKD
ROOT
HETATM    1  O   UNL     1     -11.660   4.518  65.235  1.00  0.00    -1.061 OA 
HETATM    2  C   UNL     1     -10.319   4.024  65.176  1.00  0.00    -0.134 C  
HETATM    3  H   UNL     1     -12.225   3.893  64.796  1.00  0.00     0.000 HD 
ENDROOT
BRANCH   2   4
HETATM    4  C   UNL     1      -9.408   5.032  65.885  1.00  0.00    -0.159 C  
HETATM    5  H   UNL     1      -8.005   6.271  65.336  1.00  0.00     0.000 HD 
HETATM    6  O   UNL     1      -8.569   5.647  64.897  1.00  0.00    -0.145 OA 
BRANCH   4   7
HETATM    7  C   UNL     1     -10.200   6.111  66.644  1.00  0.00    -0.178 C  
HETATM    8  H   UNL     1     -11.176   6.261  68.352  1.00  0.00     0.000 HD 
HETATM    9  O   UNL     1     -10.687   5.594  67.883  1.00  0.00    -0.223 OA 
BRANCH   7  10
HETATM   10  C   UNL     1      -9.334   7.369  66.908  1.00  0.00    -0.157 C  
HETATM   11  H   UNL     1      -8.543   8.327  68.478  1.00  0.00     0.000 HD 
HETATM   12  O   UNL     1      -9.074   7.556  68.316  1.00  0.00    -0.133 OA 
BRANCH  10  13
HETATM   13  C   UNL     1      -9.956   8.659  66.359  1.00  0.00    -0.260 C  
HETATM   14  C   UNL     1      -8.933   9.714  65.899  1.00  0.00    -0.167 C  
HETATM   15  O   UNL     1     -10.897   9.174  67.302  1.00  0.00    -0.371 OA 
HETATM   16  O   UNL     1      -7.867   9.233  65.222  1.00  0.00    -0.100 OA 
HETATM   17  O   UNL     1      -9.105  10.916  66.082  1.00  0.00    -0.171 OA 
HETATM   18  H   UNL     1     -11.283   9.973  66.961  1.00  0.00     0.000 HD 
ENDBRANCH  10  13
ENDBRANCH   7  10
ENDBRANCH   4   7
ENDBRANCH   2   4
TORSDOF 4
ENDMDL
MODEL      217
REMARK 921   NORMALIZED FREE ENERGY PREDICTED BY IDOCK:   -2.64 KCAL/MOL
REMARK 922        TOTAL FREE ENERGY PREDICTED BY IDOCK:   -3.73 KCAL/MOL
REMARK 923 INTER-LIGAND FREE ENERGY PREDICTED BY IDOCK:   -3.44 KCAL/MOL
REMARK 924 INTRA-LIGAND FREE ENERGY PREDICTED BY IDOCK:   -0.30 KCAL/MOL
REMARK 927      BINDING AFFINITY PREDICTED BY RF-SCORE:    0.00 PKD
ROOT
HETATM    1  O   UNL     1     -12.219   6.011  72.845  1.00  0.00    -0.483 OA 
HETATM    2  C   UNL     1     -11.074   6.557  72.185  1.00  0.00    -0.260 C  
HETATM    3  H   UNL     1     -11.915   5.436  73.537  1.00  0.00     0.000 HD 
ENDROOT
BRANCH   2   4
HETATM    4  C   UNL     1     -11.564   7.485  71.068  1.00  0.00    -0.283 C  
HETATM    5  H   UNL     1     -12.903   8.897  70.915  1.00  0.00     0.000 HD 
HETATM    6  O   UNL     1     -12.599   8.321  71.607  1.00  0.00    -0.309 OA 
BRANCH   4   7
HETATM    7  C   UNL     1     -10.437   8.357  70.487  1.00  0.00    -0.207 C  
HETATM    8  H   UNL     1      -8.572   8.809  70.944  1.00  0.00     0.000 HD 
HETATM    9  O   UNL     1      -9.268   8.271  71.303  1.00  0.00    -0.144 OA 
BRANCH   7  10
HETATM   10  C   UNL     1     -10.091   7.941  69.035  1.00  0.00    -0.200 C  
HETATM   11  H   UNL     1     -10.436   8.600  67.177  1.00  0.00     0.000 HD 
HETATM   12  O   UNL     1     -10.648   8.855  68.067  1.00  0.00    -0.221 OA 
BRANCH  10  13
HETATM   13  C   UNL     1     -10.560   6.524  68.683  1.00  0.00    -0.245 C  
HETATM   14  C   UNL     1      -9.422   5.505  68.485  1.00  0.00    -0.122 C  
HETATM   15  O   UNL     1     -11.452   6.579  67.568  1.00  0.00    -0.721 OA 
HETATM   16  O   UNL     1      -8.405   5.592  69.373  1.00  0.00    -0.104 OA 
HETATM   17  O   UNL     1      -9.463   4.636  67.620  1.00  0.00    -0.136 OA 
HETATM   18  H   UNL     1     -11.743   5.701  67.350  1.00  0.00     0.000 HD 
ENDBRANCH  10  13
ENDBRANCH   7  10
ENDBRANCH   4   7
ENDBRANCH   2   4
TORSDOF 4
ENDMDL
MODEL      218
REMARK 921   NORMALIZED FREE ENERGY PREDICTED BY IDOCK:   -2.64 KCAL/MOL
REMARK 922        TOTAL FREE ENERGY PREDICTED BY IDOCK:   -3.73 KCAL/MOL
REMARK 923 INTER-LIGAND FREE ENERGY PREDICTED BY IDOCK:   -3.43 KCAL/MOL
REMARK 924 INTRA-LIGAND FREE ENERGY PREDICTED BY IDOCK:   -0.30 KCAL/MOL
REMARK 927      BINDING AFFINITY PREDICTED BY RF-SCORE:    0.00 PKD
ROOT
HETATM    1  O   UNL     1      -7.768  12.827  68.156  1.00  0.00    -0.116 OA 
HETATM    2  C   UNL     1      -7.572  14.074  67.483  1.00  0.00    -0.180 C  
HETATM    3  H   UNL     1      -6.919  12.421  68.279  1.00  0.00     0.000 HD 
ENDROOT
BRANCH   2   4
HETATM    4  C   UNL     1      -8.943  14.729  67.285  1.00  0.00    -0.198 C  
HETATM    5  H   UNL     1      -9.935  15.460  65.772  1.00  0.00     0.000 HD 
HETATM    6  O   UNL     1      -9.085  15.054  65.894  1.00  0.00    -0.227 OA 
BRANCH   4   7
HETATM    7  C   UNL     1     -10.102  13.820  67.730  1.00  0.00    -0.245 C  
HETATM    8  H   UNL     1     -11.728  13.980  68.835  1.00  0.00     0.000 HD 
HETATM    9  O   UNL     1     -11.012  14.541  68.560  1.00  0.00    -0.234 OA 
BRANCH   7  10
HETATM   10  C   UNL     1     -10.861  13.232  66.513  1.00  0.00    -0.281 C  
HETATM   11  H   UNL     1     -12.733  13.192  65.805  1.00  0.00     0.000 HD 
HETATM   12  O   UNL     1     -12.268  13.552  66.551  1.00  0.00    -0.407 OA 
BRANCH  10  13
HETATM   13  C   UNL     1     -10.718  11.710  66.389  1.00  0.00    -0.272 C  
HETATM   14  C   UNL     1     -11.009  10.934  67.687  1.00  0.00    -0.293 C  
HETATM   15  O   UNL     1      -9.442  11.394  65.829  1.00  0.00    -0.222 OA 
HETATM   16  O   UNL     1     -12.068  11.376  68.402  1.00  0.00    -0.575 OA 
HETATM   17  O   UNL     1     -10.362   9.945  68.018  1.00  0.00    -0.179 OA 
HETATM   18  H   UNL     1      -9.354  10.451  65.752  1.00  0.00     0.000 HD 
ENDBRANCH  10  13
ENDBRANCH   7  10
ENDBRANCH   4   7
ENDBRANCH   2   4
TORSDOF 4
ENDMDL
MODEL      219
REMARK 921   NORMALIZED FREE ENERGY PREDICTED BY IDOCK:   -2.64 KCAL/MOL
REMARK 922        TOTAL FREE ENERGY PREDICTED BY IDOCK:   -3.73 KCAL/MOL
REMARK 923 INTER-LIGAND FREE ENERGY PREDICTED BY IDOCK:   -3.30 KCAL/MOL
REMARK 924 INTRA-LIGAND FREE ENERGY PREDICTED BY IDOCK:   -0.43 KCAL/MOL
REMARK 927      BINDING AFFINITY PREDICTED BY RF-SCORE:    0.00 PKD
ROOT
HETATM    1  O   UNL     1     -11.475  11.979  70.258  1.00  0.00    -0.515 OA 
HETATM    2  C   UNL     1     -12.284  11.327  69.275  1.00  0.00    -0.222 C  
HETATM    3  H   UNL     1     -11.981  12.048  71.059  1.00  0.00     0.000 HD 
ENDROOT
BRANCH   2   4
HETATM    4  C   UNL     1     -11.467  11.216  67.983  1.00  0.00    -0.293 C  
HETATM    5  H   UNL     1     -10.240  12.374  67.005  1.00  0.00     0.000 HD 
HETATM    6  O   UNL     1     -10.746  12.443  67.805  1.00  0.00    -0.213 OA 
BRANCH   4   7
HETATM    7  C   UNL     1     -10.487  10.031  68.005  1.00  0.00    -0.218 C  
HETATM    8  H   UNL     1     -10.271   8.346  69.008  1.00  0.00     0.000 HD 
HETATM    9  O   UNL     1     -10.877   9.078  68.994  1.00  0.00    -0.179 OA 
BRANCH   7  10
HETATM   10  C   UNL     1     -10.403   9.339  66.620  1.00  0.00    -0.222 C  
HETATM   11  H   UNL     1     -10.168   7.489  65.894  1.00  0.00     0.000 HD 
HETATM   12  O   UNL     1     -10.219   7.913  66.743  1.00  0.00    -0.277 OA 
BRANCH  10  13
HETATM   13  C   UNL     1      -9.280   9.894  65.734  1.00  0.00    -0.179 C  
HETATM   14  C   UNL     1      -9.761  10.505  64.404  1.00  0.00    -0.328 C  
HETATM   15  O   UNL     1      -8.277   8.893  65.552  1.00  0.00    -0.115 OA 
HETATM   16  O   UNL     1     -10.883  11.255  64.482  1.00  0.00    -0.329 OA 
HETATM   17  O   UNL     1      -9.134  10.370  63.357  1.00  0.00    -0.208 OA 
HETATM   18  H   UNL     1      -7.582   9.236  65.004  1.00  0.00     0.000 HD 
ENDBRANCH  10  13
ENDBRANCH   7  10
ENDBRANCH   4   7
ENDBRANCH   2   4
TORSDOF 4
ENDMDL
MODEL      220
REMARK 921   NORMALIZED FREE ENERGY PREDICTED BY IDOCK:   -2.64 KCAL/MOL
REMARK 922        TOTAL FREE ENERGY PREDICTED BY IDOCK:   -3.73 KCAL/MOL
REMARK 923 INTER-LIGAND FREE ENERGY PREDICTED BY IDOCK:   -3.25 KCAL/MOL
REMARK 924 INTRA-LIGAND FREE ENERGY PREDICTED BY IDOCK:   -0.47 KCAL/MOL
REMARK 927      BINDING AFFINITY PREDICTED BY RF-SCORE:    0.00 PKD
ROOT
HETATM    1  O   UNL     1     -12.784  11.209  71.606  1.00  0.00    -0.395 OA 
HETATM    2  C   UNL     1     -13.211  10.058  70.872  1.00  0.00    -0.268 C  
HETATM    3  H   UNL     1     -13.199  11.973  71.224  1.00  0.00     0.000 HD 
ENDROOT
BRANCH   2   4
HETATM    4  C   UNL     1     -12.542   8.824  71.488  1.00  0.00    -0.326 C  
HETATM    5  H   UNL     1     -12.995   6.935  71.670  1.00  0.00     0.000 HD 
HETATM    6  O   UNL     1     -13.410   7.699  71.288  1.00  0.00    -0.302 OA 
BRANCH   4   7
HETATM    7  C   UNL     1     -11.160   8.534  70.876  1.00  0.00    -0.255 C  
HETATM    8  H   UNL     1      -9.667   9.571  70.111  1.00  0.00     0.000 HD 
HETATM    9  O   UNL     1     -10.521   9.750  70.488  1.00  0.00    -0.278 OA 
BRANCH   7  10
HETATM   10  C   UNL     1     -10.253   7.761  71.867  1.00  0.00    -0.202 C  
HETATM   11  H   UNL     1     -10.201   7.349  73.825  1.00  0.00     0.000 HD 
HETATM   12  O   UNL     1     -10.758   7.823  73.218  1.00  0.00    -0.374 OA 
BRANCH  10  13
HETATM   13  C   UNL     1      -8.802   8.259  71.873  1.00  0.00    -0.177 C  
HETATM   14  C   UNL     1      -7.792   7.287  71.236  1.00  0.00    -0.096 C  
HETATM   15  O   UNL     1      -8.436   8.646  73.199  1.00  0.00    -0.398 OA 
HETATM   16  O   UNL     1      -8.207   6.679  70.101  1.00  0.00    -0.128 OA 
HETATM   17  O   UNL     1      -6.664   7.121  71.692  1.00  0.00    -0.054 OA 
HETATM   18  H   UNL     1      -7.537   8.955  73.203  1.00  0.00     0.000 HD 
ENDBRANCH  10  13
ENDBRANCH   7  10
ENDBRANCH   4   7
ENDBRANCH   2   4
TORSDOF 4
ENDMDL
MODEL      221
REMARK 921   NORMALIZED FREE ENERGY PREDICTED BY IDOCK:   -2.64 KCAL/MOL
REMARK 922        TOTAL FREE ENERGY PREDICTED BY IDOCK:   -3.73 KCAL/MOL
REMARK 923 INTER-LIGAND FREE ENERGY PREDICTED BY IDOCK:   -3.24 KCAL/MOL
REMARK 924 INTRA-LIGAND FREE ENERGY PREDICTED BY IDOCK:   -0.49 KCAL/MOL
REMARK 927      BINDING AFFINITY PREDICTED BY RF-SCORE:    0.00 PKD
ROOT
HETATM    1  O   UNL     1     -11.598  11.311  66.921  1.00  0.00    -0.464 OA 
HETATM    2  C   UNL     1     -12.095  12.600  67.294  1.00  0.00    -0.114 C  
HETATM    3  H   UNL     1     -12.246  10.662  67.168  1.00  0.00     0.000 HD 
ENDROOT
BRANCH   2   4
HETATM    4  C   UNL     1     -11.050  13.647  66.896  1.00  0.00    -0.304 C  
HETATM    5  H   UNL     1     -11.094  15.446  66.142  1.00  0.00     0.000 HD 
HETATM    6  O   UNL     1     -11.742  14.797  66.389  1.00  0.00    -0.346 OA 
BRANCH   4   7
HETATM    7  C   UNL     1     -10.146  14.057  68.072  1.00  0.00    -0.239 C  
HETATM    8  H   UNL     1      -8.716  13.237  69.155  1.00  0.00     0.000 HD 
HETATM    9  O   UNL     1      -9.275  12.984  68.429  1.00  0.00    -0.196 OA 
BRANCH   7  10
HETATM   10  C   UNL     1      -9.310  15.316  67.732  1.00  0.00    -0.196 C  
HETATM   11  H   UNL     1      -8.071  15.934  66.286  1.00  0.00     0.000 HD 
HETATM   12  O   UNL     1      -8.584  15.161  66.494  1.00  0.00    -0.270 OA 
BRANCH  10  13
HETATM   13  C   UNL     1      -8.310  15.694  68.832  1.00  0.00    -0.210 C  
HETATM   14  C   UNL     1      -7.882  17.173  68.825  1.00  0.00    -0.258 C  
HETATM   15  O   UNL     1      -7.198  14.797  68.794  1.00  0.00    -0.111 OA 
HETATM   16  O   UNL     1      -8.874  18.063  68.592  1.00  0.00    -0.301 OA 
HETATM   17  O   UNL     1      -6.733  17.524  69.074  1.00  0.00    -0.227 OA 
HETATM   18  H   UNL     1      -6.579  15.030  69.476  1.00  0.00     0.000 HD 
ENDBRANCH  10  13
ENDBRANCH   7  10
ENDBRANCH   4   7
ENDBRANCH   2   4
TORSDOF 4
ENDMDL
MODEL      222
REMARK 921   NORMALIZED FREE ENERGY PREDICTED BY IDOCK:   -2.64 KCAL/MOL
REMARK 922        TOTAL FREE ENERGY PREDICTED BY IDOCK:   -3.72 KCAL/MOL
REMARK 923 INTER-LIGAND FREE ENERGY PREDICTED BY IDOCK:   -3.70 KCAL/MOL
REMARK 924 INTRA-LIGAND FREE ENERGY PREDICTED BY IDOCK:   -0.02 KCAL/MOL
REMARK 927      BINDING AFFINITY PREDICTED BY RF-SCORE:    0.00 PKD
ROOT
HETATM    1  O   UNL     1     -10.398  12.866  69.328  1.00  0.00    -0.423 OA 
HETATM    2  C   UNL     1     -11.594  12.195  69.735  1.00  0.00    -0.262 C  
HETATM    3  H   UNL     1     -10.335  13.679  69.814  1.00  0.00     0.000 HD 
ENDROOT
BRANCH   2   4
HETATM    4  C   UNL     1     -11.695  10.883  68.951  1.00  0.00    -0.306 C  
HETATM    5  H   UNL     1     -10.989  10.208  67.262  1.00  0.00     0.000 HD 
HETATM    6  O   UNL     1     -10.926  11.022  67.748  1.00  0.00    -0.227 OA 
BRANCH   4   7
HETATM    7  C   UNL     1     -11.192   9.672  69.757  1.00  0.00    -0.174 C  
HETATM    8  H   UNL     1      -9.780   9.300  71.083  1.00  0.00     0.000 HD 
HETATM    9  O   UNL     1     -10.091  10.047  70.585  1.00  0.00    -0.177 OA 
BRANCH   7  10
HETATM   10  C   UNL     1     -12.319   9.065  70.630  1.00  0.00     0.083 C  
HETATM   11  H   UNL     1     -13.950   9.697  71.604  1.00  0.00     0.000 HD 
HETATM   12  O   UNL     1     -13.259  10.069  71.068  1.00  0.00    -0.386 OA 
BRANCH  10  13
HETATM   13  C   UNL     1     -11.794   8.327  71.868  1.00  0.00    -0.324 C  
HETATM   14  C   UNL     1     -11.516   6.828  71.647  1.00  0.00    -0.282 C  
HETATM   15  O   UNL     1     -12.664   8.571  72.975  1.00  0.00    -0.679 OA 
HETATM   16  O   UNL     1     -10.925   6.515  70.472  1.00  0.00    -0.253 OA 
HETATM   17  O   UNL     1     -11.760   5.984  72.504  1.00  0.00    -0.292 OA 
HETATM   18  H   UNL     1     -12.339   8.114  73.741  1.00  0.00     0.000 HD 
ENDBRANCH  10  13
ENDBRANCH   7  10
ENDBRANCH   4   7
ENDBRANCH   2   4
TORSDOF 4
ENDMDL
MODEL      223
REMARK 921   NORMALIZED FREE ENERGY PREDICTED BY IDOCK:   -2.64 KCAL/MOL
REMARK 922        TOTAL FREE ENERGY PREDICTED BY IDOCK:   -3.72 KCAL/MOL
REMARK 923 INTER-LIGAND FREE ENERGY PREDICTED BY IDOCK:   -3.63 KCAL/MOL
REMARK 924 INTRA-LIGAND FREE ENERGY PREDICTED BY IDOCK:   -0.09 KCAL/MOL
REMARK 927      BINDING AFFINITY PREDICTED BY RF-SCORE:    0.00 PKD
ROOT
HETATM    1  O   UNL     1     -10.498   8.847  68.047  1.00  0.00    -0.220 OA 
HETATM    2  C   UNL     1     -10.628   9.798  69.107  1.00  0.00    -0.218 C  
HETATM    3  H   UNL     1     -10.959   8.057  68.300  1.00  0.00     0.000 HD 
ENDROOT
BRANCH   2   4
HETATM    4  C   UNL     1      -9.883  11.074  68.698  1.00  0.00    -0.193 C  
HETATM    5  H   UNL     1      -8.393  11.500  67.513  1.00  0.00     0.000 HD 
HETATM    6  O   UNL     1      -8.855  10.710  67.766  1.00  0.00    -0.131 OA 
BRANCH   4   7
HETATM    7  C   UNL     1     -10.814  12.123  68.066  1.00  0.00    -0.222 C  
HETATM    8  H   UNL     1     -12.689  12.222  67.462  1.00  0.00     0.000 HD 
HETATM    9  O   UNL     1     -12.114  11.574  67.852  1.00  0.00    -0.630 OA 
BRANCH   7  10
HETATM   10  C   UNL     1     -10.923  13.390  68.952  1.00  0.00    -0.248 C  
HETATM   11  H   UNL     1     -12.347  14.655  69.570  1.00  0.00     0.000 HD 
HETATM   12  O   UNL     1     -12.279  13.878  69.027  1.00  0.00    -0.350 OA 
BRANCH  10  13
HETATM   13  C   UNL     1     -10.025  14.540  68.477  1.00  0.00    -0.238 C  
HETATM   14  C   UNL     1     -10.060  14.791  66.959  1.00  0.00    -0.245 C  
HETATM   15  O   UNL     1      -8.700  14.347  68.976  1.00  0.00    -0.324 OA 
HETATM   16  O   UNL     1     -11.283  14.717  66.386  1.00  0.00    -0.327 OA 
HETATM   17  O   UNL     1      -9.057  15.098  66.322  1.00  0.00    -0.288 OA 
HETATM   18  H   UNL     1      -8.144  15.060  68.682  1.00  0.00     0.000 HD 
ENDBRANCH  10  13
ENDBRANCH   7  10
ENDBRANCH   4   7
ENDBRANCH   2   4
TORSDOF 4
ENDMDL
MODEL      224
REMARK 921   NORMALIZED FREE ENERGY PREDICTED BY IDOCK:   -2.64 KCAL/MOL
REMARK 922        TOTAL FREE ENERGY PREDICTED BY IDOCK:   -3.72 KCAL/MOL
REMARK 923 INTER-LIGAND FREE ENERGY PREDICTED BY IDOCK:   -3.31 KCAL/MOL
REMARK 924 INTRA-LIGAND FREE ENERGY PREDICTED BY IDOCK:   -0.42 KCAL/MOL
REMARK 927      BINDING AFFINITY PREDICTED BY RF-SCORE:    0.00 PKD
ROOT
HETATM    1  O   UNL     1      -8.024   8.480  67.217  1.00  0.00    -0.100 OA 
HETATM    2  C   UNL     1      -8.612   9.711  67.650  1.00  0.00    -0.126 C  
HETATM    3  H   UNL     1      -8.323   7.790  67.797  1.00  0.00     0.000 HD 
ENDROOT
BRANCH   2   4
HETATM    4  C   UNL     1      -8.130  10.824  66.714  1.00  0.00    -0.137 C  
HETATM    5  H   UNL     1      -6.545  11.140  65.621  1.00  0.00     0.000 HD 
HETATM    6  O   UNL     1      -6.844  10.450  66.201  1.00  0.00    -0.109 OA 
BRANCH   4   7
HETATM    7  C   UNL     1      -9.103  11.080  65.550  1.00  0.00    -0.207 C  
HETATM    8  H   UNL     1     -10.384  10.033  64.475  1.00  0.00     0.000 HD 
HETATM    9  O   UNL     1      -9.783   9.876  65.194  1.00  0.00    -0.289 OA 
BRANCH   7  10
HETATM   10  C   UNL     1     -10.139  12.176  65.908  1.00  0.00    -0.245 C  
HETATM   11  H   UNL     1     -12.028  12.281  66.562  1.00  0.00     0.000 HD 
HETATM   12  O   UNL     1     -11.393  11.609  66.342  1.00  0.00    -0.323 OA 
BRANCH  10  13
HETATM   13  C   UNL     1     -10.424  13.140  64.749  1.00  0.00    -0.372 C  
HETATM   14  C   UNL     1     -10.244  14.629  65.100  1.00  0.00    -0.382 C  
HETATM   15  O   UNL     1     -11.710  12.854  64.196  1.00  0.00    -0.353 OA 
HETATM   16  O   UNL     1      -9.166  14.919  65.863  1.00  0.00    -0.254 OA 
HETATM   17  O   UNL     1     -10.992  15.500  64.665  1.00  0.00    -0.409 OA 
HETATM   18  H   UNL     1     -11.887  13.451  63.478  1.00  0.00     0.000 HD 
ENDBRANCH  10  13
ENDBRANCH   7  10
ENDBRANCH   4   7
ENDBRANCH   2   4
TORSDOF 4
ENDMDL
MODEL      225
REMARK 921   NORMALIZED FREE ENERGY PREDICTED BY IDOCK:   -2.62 KCAL/MOL
REMARK 922        TOTAL FREE ENERGY PREDICTED BY IDOCK:   -3.71 KCAL/MOL
REMARK 923 INTER-LIGAND FREE ENERGY PREDICTED BY IDOCK:   -3.30 KCAL/MOL
REMARK 924 INTRA-LIGAND FREE ENERGY PREDICTED BY IDOCK:   -0.40 KCAL/MOL
REMARK 927      BINDING AFFINITY PREDICTED BY RF-SCORE:    0.00 PKD
ROOT
HETATM    1  O   UNL     1     -11.520  12.647  69.790  1.00  0.00    -0.445 OA 
HETATM    2  C   UNL     1     -11.927  11.292  70.002  1.00  0.00    -0.368 C  
HETATM    3  H   UNL     1     -11.719  13.141  70.575  1.00  0.00     0.000 HD 
ENDROOT
BRANCH   2   4
HETATM    4  C   UNL     1     -11.606  10.493  68.734  1.00  0.00    -0.182 C  
HETATM    5  H   UNL     1     -11.726  10.816  66.814  1.00  0.00     0.000 HD 
HETATM    6  O   UNL     1     -11.925  11.311  67.599  1.00  0.00    -0.634 OA 
BRANCH   4   7
HETATM    7  C   UNL     1     -10.132  10.058  68.668  1.00  0.00    -0.172 C  
HETATM    8  H   UNL     1      -8.432  10.559  69.535  1.00  0.00     0.000 HD 
HETATM    9  O   UNL     1      -9.343  10.827  69.576  1.00  0.00    -0.071 OA 
BRANCH   7  10
HETATM   10  C   UNL     1      -9.971   8.550  68.986  1.00  0.00    -0.193 C  
HETATM   11  H   UNL     1      -8.533   7.308  69.616  1.00  0.00     0.000 HD 
HETATM   12  O   UNL     1      -8.632   8.233  69.421  1.00  0.00    -0.131 OA 
BRANCH  10  13
HETATM   13  C   UNL     1     -10.318   7.641  67.800  1.00  0.00    -0.219 C  
HETATM   14  C   UNL     1     -10.841   6.248  68.196  1.00  0.00    -0.320 C  
HETATM   15  O   UNL     1      -9.207   7.580  66.904  1.00  0.00    -0.136 OA 
HETATM   16  O   UNL     1     -11.706   6.227  69.235  1.00  0.00    -0.262 OA 
HETATM   17  O   UNL     1     -10.541   5.234  67.574  1.00  0.00    -0.171 OA 
HETATM   18  H   UNL     1      -9.422   7.017  66.169  1.00  0.00     0.000 HD 
ENDBRANCH  10  13
ENDBRANCH   7  10
ENDBRANCH   4   7
ENDBRANCH   2   4
TORSDOF 4
ENDMDL
MODEL      226
REMARK 921   NORMALIZED FREE ENERGY PREDICTED BY IDOCK:   -2.62 KCAL/MOL
REMARK 922        TOTAL FREE ENERGY PREDICTED BY IDOCK:   -3.71 KCAL/MOL
REMARK 923 INTER-LIGAND FREE ENERGY PREDICTED BY IDOCK:   -3.45 KCAL/MOL
REMARK 924 INTRA-LIGAND FREE ENERGY PREDICTED BY IDOCK:   -0.26 KCAL/MOL
REMARK 927      BINDING AFFINITY PREDICTED BY RF-SCORE:    0.00 PKD
ROOT
HETATM    1  O   UNL     1      -9.833   8.089  70.389  1.00  0.00    -0.182 OA 
HETATM    2  C   UNL     1     -10.078   9.498  70.400  1.00  0.00    -0.271 C  
HETATM    3  H   UNL     1      -9.933   7.765  71.275  1.00  0.00     0.000 HD 
ENDROOT
BRANCH   2   4
HETATM    4  C   UNL     1      -9.917  10.022  68.969  1.00  0.00    -0.196 C  
HETATM    5  H   UNL     1     -10.752   9.652  67.245  1.00  0.00     0.000 HD 
HETATM    6  O   UNL     1     -10.852   9.327  68.132  1.00  0.00    -0.188 OA 
BRANCH   4   7
HETATM    7  C   UNL     1     -10.149  11.539  68.866  1.00  0.00    -0.127 C  
HETATM    8  H   UNL     1      -9.776  12.978  67.569  1.00  0.00     0.000 HD 
HETATM    9  O   UNL     1      -9.632  12.041  67.633  1.00  0.00    -0.180 OA 
BRANCH   7  10
HETATM   10  C   UNL     1     -11.654  11.891  68.982  1.00  0.00    -0.317 C  
HETATM   11  H   UNL     1     -13.123  12.551  67.793  1.00  0.00     0.000 HD 
HETATM   12  O   UNL     1     -12.200  12.335  67.722  1.00  0.00    -0.425 OA 
BRANCH  10  13
HETATM   13  C   UNL     1     -11.945  12.966  70.037  1.00  0.00    -0.309 C  
HETATM   14  C   UNL     1     -12.937  12.533  71.132  1.00  0.00    -0.148 C  
HETATM   15  O   UNL     1     -12.332  14.179  69.388  1.00  0.00    -0.449 OA 
HETATM   16  O   UNL     1     -12.776  11.273  71.595  1.00  0.00    -0.387 OA 
HETATM   17  O   UNL     1     -13.777  13.299  71.595  1.00  0.00    -0.271 OA 
HETATM   18  H   UNL     1     -12.512  14.845  70.041  1.00  0.00     0.000 HD 
ENDBRANCH  10  13
ENDBRANCH   7  10
ENDBRANCH   4   7
ENDBRANCH   2   4
TORSDOF 4
ENDMDL
MODEL      227
REMARK 921   NORMALIZED FREE ENERGY PREDICTED BY IDOCK:   -2.61 KCAL/MOL
REMARK 922        TOTAL FREE ENERGY PREDICTED BY IDOCK:   -3.70 KCAL/MOL
REMARK 923 INTER-LIGAND FREE ENERGY PREDICTED BY IDOCK:   -3.23 KCAL/MOL
REMARK 924 INTRA-LIGAND FREE ENERGY PREDICTED BY IDOCK:   -0.46 KCAL/MOL
REMARK 927      BINDING AFFINITY PREDICTED BY RF-SCORE:    0.00 PKD
ROOT
HETATM    1  O   UNL     1      -7.412   5.002  70.801  1.00  0.00    -0.065 OA 
HETATM    2  C   UNL     1      -7.928   6.191  70.194  1.00  0.00    -0.107 C  
HETATM    3  H   UNL     1      -6.610   5.227  71.256  1.00  0.00     0.000 HD 
ENDROOT
BRANCH   2   4
HETATM    4  C   UNL     1      -9.223   5.828  69.459  1.00  0.00    -0.130 C  
HETATM    5  H   UNL     1      -9.727   4.559  68.066  1.00  0.00     0.000 HD 
HETATM    6  O   UNL     1      -8.925   4.783  68.521  1.00  0.00    -0.104 OA 
BRANCH   4   7
HETATM    7  C   UNL     1     -10.337   5.369  70.416  1.00  0.00    -0.283 C  
HETATM    8  H   UNL     1     -10.660   3.864  71.650  1.00  0.00     0.000 HD 
HETATM    9  O   UNL     1      -9.972   4.148  71.059  1.00  0.00    -0.189 OA 
BRANCH   7  10
HETATM   10  C   UNL     1     -10.646   6.448  71.485  1.00  0.00    -0.231 C  
HETATM   11  H   UNL     1     -11.688   6.600  73.187  1.00  0.00     0.000 HD 
HETATM   12  O   UNL     1     -11.498   5.939  72.532  1.00  0.00    -0.290 OA 
BRANCH  10  13
HETATM   13  C   UNL     1     -11.300   7.707  70.903  1.00  0.00    -0.276 C  
HETATM   14  C   UNL     1     -10.911   9.016  71.616  1.00  0.00    -0.365 C  
HETATM   15  O   UNL     1     -12.714   7.518  70.825  1.00  0.00    -0.557 OA 
HETATM   16  O   UNL     1      -9.607   9.126  71.956  1.00  0.00    -0.300 OA 
HETATM   17  O   UNL     1     -11.717   9.922  71.808  1.00  0.00    -0.336 OA 
HETATM   18  H   UNL     1     -13.119   8.298  70.464  1.00  0.00     0.000 HD 
ENDBRANCH  10  13
ENDBRANCH   7  10
ENDBRANCH   4   7
ENDBRANCH   2   4
TORSDOF 4
ENDMDL
MODEL      228
REMARK 921   NORMALIZED FREE ENERGY PREDICTED BY IDOCK:   -2.60 KCAL/MOL
REMARK 922        TOTAL FREE ENERGY PREDICTED BY IDOCK:   -3.67 KCAL/MOL
REMARK 923 INTER-LIGAND FREE ENERGY PREDICTED BY IDOCK:   -3.53 KCAL/MOL
REMARK 924 INTRA-LIGAND FREE ENERGY PREDICTED BY IDOCK:   -0.14 KCAL/MOL
REMARK 927      BINDING AFFINITY PREDICTED BY RF-SCORE:    0.00 PKD
ROOT
HETATM    1  O   UNL     1     -11.431  12.054  66.846  1.00  0.00    -0.327 OA 
HETATM    2  C   UNL     1     -10.723  10.886  67.271  1.00  0.00    -0.268 C  
HETATM    3  H   UNL     1     -11.198  12.229  65.943  1.00  0.00     0.000 HD 
ENDROOT
BRANCH   2   4
HETATM    4  C   UNL     1     -11.100  10.604  68.730  1.00  0.00    -0.265 C  
HETATM    5  H   UNL     1     -12.711  10.787  69.815  1.00  0.00     0.000 HD 
HETATM    6  O   UNL     1     -12.478  10.961  68.911  1.00  0.00    -0.431 OA 
BRANCH   4   7
HETATM    7  C   UNL     1     -10.886   9.131  69.121  1.00  0.00    -0.110 C  
HETATM    8  H   UNL     1      -9.548   7.722  68.784  1.00  0.00     0.000 HD 
HETATM    9  O   UNL     1      -9.680   8.631  68.542  1.00  0.00    -0.157 OA 
BRANCH   7  10
HETATM   10  C   UNL     1     -10.836   8.955  70.660  1.00  0.00    -0.239 C  
HETATM   11  H   UNL     1     -11.288  10.020  72.294  1.00  0.00     0.000 HD 
HETATM   12  O   UNL     1     -11.318  10.128  71.350  1.00  0.00    -0.291 OA 
BRANCH  10  13
HETATM   13  C   UNL     1      -9.433   8.630  71.188  1.00  0.00    -0.215 C  
HETATM   14  C   UNL     1      -9.397   8.156  72.652  1.00  0.00    -0.272 C  
HETATM   15  O   UNL     1      -8.563   9.737  70.942  1.00  0.00    -0.363 OA 
HETATM   16  O   UNL     1     -10.380   7.299  73.010  1.00  0.00    -0.228 OA 
HETATM   17  O   UNL     1      -8.502   8.486  73.425  1.00  0.00    -0.367 OA 
HETATM   18  H   UNL     1      -7.694   9.535  71.269  1.00  0.00     0.000 HD 
ENDBRANCH  10  13
ENDBRANCH   7  10
ENDBRANCH   4   7
ENDBRANCH   2   4
TORSDOF 4
ENDMDL
MODEL      229
REMARK 921   NORMALIZED FREE ENERGY PREDICTED BY IDOCK:   -2.58 KCAL/MOL
REMARK 922        TOTAL FREE ENERGY PREDICTED BY IDOCK:   -3.65 KCAL/MOL
REMARK 923 INTER-LIGAND FREE ENERGY PREDICTED BY IDOCK:   -3.14 KCAL/MOL
REMARK 924 INTRA-LIGAND FREE ENERGY PREDICTED BY IDOCK:   -0.51 KCAL/MOL
REMARK 927      BINDING AFFINITY PREDICTED BY RF-SCORE:    0.00 PKD
ROOT
HETATM    1  O   UNL     1     -10.937  10.815  70.291  1.00  0.00    -0.442 OA 
HETATM    2  C   UNL     1     -10.140  10.922  69.108  1.00  0.00    -0.177 C  
HETATM    3  H   UNL     1     -11.025  11.683  70.667  1.00  0.00     0.000 HD 
ENDROOT
BRANCH   2   4
HETATM    4  C   UNL     1      -9.999   9.522  68.500  1.00  0.00    -0.167 C  
HETATM    5  H   UNL     1      -9.388   8.796  66.795  1.00  0.00     0.000 HD 
HETATM    6  O   UNL     1      -9.475   9.664  67.172  1.00  0.00    -0.143 OA 
BRANCH   4   7
HETATM    7  C   UNL     1      -9.080   8.608  69.330  1.00  0.00    -0.149 C  
HETATM    8  H   UNL     1      -8.170   8.670  71.079  1.00  0.00     0.000 HD 
HETATM    9  O   UNL     1      -8.737   9.235  70.566  1.00  0.00    -0.201 OA 
BRANCH   7  10
HETATM   10  C   UNL     1      -9.745   7.237  69.607  1.00  0.00    -0.159 C  
HETATM   11  H   UNL     1     -10.637   5.778  68.565  1.00  0.00     0.000 HD 
HETATM   12  O   UNL     1     -10.228   6.619  68.395  1.00  0.00    -0.152 OA 
BRANCH  10  13
HETATM   13  C   UNL     1     -10.910   7.319  70.601  1.00  0.00    -0.242 C  
HETATM   14  C   UNL     1     -10.669   6.577  71.929  1.00  0.00    -0.219 C  
HETATM   15  O   UNL     1     -12.119   6.917  69.954  1.00  0.00    -0.635 OA 
HETATM   16  O   UNL     1      -9.430   6.712  72.452  1.00  0.00    -0.149 OA 
HETATM   17  O   UNL     1     -11.559   5.956  72.503  1.00  0.00    -0.302 OA 
HETATM   18  H   UNL     1     -12.841   6.968  70.570  1.00  0.00     0.000 HD 
ENDBRANCH  10  13
ENDBRANCH   7  10
ENDBRANCH   4   7
ENDBRANCH   2   4
TORSDOF 4
ENDMDL
MODEL      230
REMARK 921   NORMALIZED FREE ENERGY PREDICTED BY IDOCK:   -2.58 KCAL/MOL
REMARK 922        TOTAL FREE ENERGY PREDICTED BY IDOCK:   -3.65 KCAL/MOL
REMARK 923 INTER-LIGAND FREE ENERGY PREDICTED BY IDOCK:   -3.63 KCAL/MOL
REMARK 924 INTRA-LIGAND FREE ENERGY PREDICTED BY IDOCK:   -0.02 KCAL/MOL
REMARK 927      BINDING AFFINITY PREDICTED BY RF-SCORE:    0.00 PKD
ROOT
HETATM    1  O   UNL     1     -11.591  13.133  70.214  1.00  0.00    -0.520 OA 
HETATM    2  C   UNL     1     -12.435  12.053  70.624  1.00  0.00    -0.247 C  
HETATM    3  H   UNL     1     -12.095  13.936  70.260  1.00  0.00     0.000 HD 
ENDROOT
BRANCH   2   4
HETATM    4  C   UNL     1     -11.620  10.757  70.550  1.00  0.00    -0.330 C  
HETATM    5  H   UNL     1     -11.772   8.968  71.314  1.00  0.00     0.000 HD 
HETATM    6  O   UNL     1     -12.277   9.771  71.359  1.00  0.00    -0.342 OA 
BRANCH   4   7
HETATM    7  C   UNL     1     -11.470  10.236  69.110  1.00  0.00    -0.147 C  
HETATM    8  H   UNL     1     -11.880  10.870  67.288  1.00  0.00     0.000 HD 
HETATM    9  O   UNL     1     -11.973  11.192  68.177  1.00  0.00    -0.615 OA 
BRANCH   7  10
HETATM   10  C   UNL     1      -9.991   9.911  68.777  1.00  0.00    -0.173 C  
HETATM   11  H   UNL     1      -8.767  10.008  67.196  1.00  0.00     0.000 HD 
HETATM   12  O   UNL     1      -9.674  10.207  67.400  1.00  0.00    -0.154 OA 
BRANCH  10  13
HETATM   13  C   UNL     1      -9.616   8.449  69.052  1.00  0.00    -0.160 C  
HETATM   14  C   UNL     1     -10.377   7.423  68.192  1.00  0.00    -0.192 C  
HETATM   15  O   UNL     1      -9.722   8.184  70.452  1.00  0.00    -0.177 OA 
HETATM   16  O   UNL     1     -10.539   7.761  66.893  1.00  0.00    -0.343 OA 
HETATM   17  O   UNL     1     -10.756   6.345  68.640  1.00  0.00    -0.227 OA 
HETATM   18  H   UNL     1      -9.489   7.279  70.622  1.00  0.00     0.000 HD 
ENDBRANCH  10  13
ENDBRANCH   7  10
ENDBRANCH   4   7
ENDBRANCH   2   4
TORSDOF 4
ENDMDL
MODEL      231
REMARK 921   NORMALIZED FREE ENERGY PREDICTED BY IDOCK:   -2.57 KCAL/MOL
REMARK 922        TOTAL FREE ENERGY PREDICTED BY IDOCK:   -3.64 KCAL/MOL
REMARK 923 INTER-LIGAND FREE ENERGY PREDICTED BY IDOCK:   -3.05 KCAL/MOL
REMARK 924 INTRA-LIGAND FREE ENERGY PREDICTED BY IDOCK:   -0.60 KCAL/MOL
REMARK 927      BINDING AFFINITY PREDICTED BY RF-SCORE:    0.00 PKD
ROOT
HETATM    1  O   UNL     1     -10.154   3.812  66.370  1.00  0.00    -0.409 OA 
HETATM    2  C   UNL     1      -9.027   3.428  67.162  1.00  0.00    -0.154 C  
HETATM    3  H   UNL     1      -9.957   3.620  65.461  1.00  0.00     0.000 HD 
ENDROOT
BRANCH   2   4
HETATM    4  C   UNL     1      -9.346   3.737  68.629  1.00  0.00    -0.163 C  
HETATM    5  H   UNL     1      -8.592   3.236  70.357  1.00  0.00     0.000 HD 
HETATM    6  O   UNL     1      -8.394   3.044  69.448  1.00  0.00    -0.057 OA 
BRANCH   4   7
HETATM    7  C   UNL     1      -9.304   5.244  68.937  1.00  0.00    -0.124 C  
HETATM    8  H   UNL     1      -8.676   6.888  68.046  1.00  0.00     0.000 HD 
HETATM    9  O   UNL     1      -8.702   5.958  67.856  1.00  0.00    -0.106 OA 
BRANCH   7  10
HETATM   10  C   UNL     1     -10.722   5.807  69.209  1.00  0.00    -0.316 C  
HETATM   11  H   UNL     1     -12.207   6.661  68.172  1.00  0.00     0.000 HD 
HETATM   12  O   UNL     1     -11.337   6.316  68.006  1.00  0.00    -0.260 OA 
BRANCH  10  13
HETATM   13  C   UNL     1     -10.739   6.920  70.264  1.00  0.00    -0.242 C  
HETATM   14  C   UNL     1     -11.350   6.507  71.616  1.00  0.00    -0.285 C  
HETATM   15  O   UNL     1     -11.350   8.089  69.715  1.00  0.00    -0.455 OA 
HETATM   16  O   UNL     1     -11.007   5.275  72.056  1.00  0.00    -0.208 OA 
HETATM   17  O   UNL     1     -12.051   7.267  72.278  1.00  0.00    -0.269 OA 
HETATM   18  H   UNL     1     -11.360   8.779  70.369  1.00  0.00     0.000 HD 
ENDBRANCH  10  13
ENDBRANCH   7  10
ENDBRANCH   4   7
ENDBRANCH   2   4
TORSDOF 4
ENDMDL
MODEL      232
REMARK 921   NORMALIZED FREE ENERGY PREDICTED BY IDOCK:   -2.57 KCAL/MOL
REMARK 922        TOTAL FREE ENERGY PREDICTED BY IDOCK:   -3.64 KCAL/MOL
REMARK 923 INTER-LIGAND FREE ENERGY PREDICTED BY IDOCK:   -3.31 KCAL/MOL
REMARK 924 INTRA-LIGAND FREE ENERGY PREDICTED BY IDOCK:   -0.33 KCAL/MOL
REMARK 927      BINDING AFFINITY PREDICTED BY RF-SCORE:    0.00 PKD
ROOT
HETATM    1  O   UNL     1     -10.998  15.398  67.044  1.00  0.00    -0.321 OA 
HETATM    2  C   UNL     1     -11.968  14.352  66.934  1.00  0.00    -0.399 C  
HETATM    3  H   UNL     1     -11.326  16.041  67.661  1.00  0.00     0.000 HD 
ENDROOT
BRANCH   2   4
HETATM    4  C   UNL     1     -11.438  13.314  65.938  1.00  0.00    -0.332 C  
HETATM    5  H   UNL     1     -10.171  13.323  64.455  1.00  0.00     0.000 HD 
HETATM    6  O   UNL     1     -10.499  13.966  65.072  1.00  0.00    -0.363 OA 
BRANCH   4   7
HETATM    7  C   UNL     1     -10.766  12.118  66.634  1.00  0.00    -0.246 C  
HETATM    8  H   UNL     1     -11.335  10.481  67.576  1.00  0.00     0.000 HD 
HETATM    9  O   UNL     1     -11.750  11.220  67.147  1.00  0.00    -0.533 OA 
BRANCH   7  10
HETATM   10  C   UNL     1      -9.820  11.359  65.669  1.00  0.00    -0.235 C  
HETATM   11  H   UNL     1      -9.972  10.054  64.159  1.00  0.00     0.000 HD 
HETATM   12  O   UNL     1     -10.551  10.520  64.751  1.00  0.00    -0.253 OA 
BRANCH  10  13
HETATM   13  C   UNL     1      -8.785  10.490  66.394  1.00  0.00    -0.145 C  
HETATM   14  C   UNL     1      -7.913   9.626  65.464  1.00  0.00    -0.115 C  
HETATM   15  O   UNL     1      -9.434   9.725  67.412  1.00  0.00    -0.148 OA 
HETATM   16  O   UNL     1      -7.490  10.236  64.334  1.00  0.00    -0.143 OA 
HETATM   17  O   UNL     1      -7.575   8.483  65.757  1.00  0.00    -0.082 OA 
HETATM   18  H   UNL     1      -8.793   9.187  67.862  1.00  0.00     0.000 HD 
ENDBRANCH  10  13
ENDBRANCH   7  10
ENDBRANCH   4   7
ENDBRANCH   2   4
TORSDOF 4
ENDMDL
MODEL      233
REMARK 921   NORMALIZED FREE ENERGY PREDICTED BY IDOCK:   -2.57 KCAL/MOL
REMARK 922        TOTAL FREE ENERGY PREDICTED BY IDOCK:   -3.64 KCAL/MOL
REMARK 923 INTER-LIGAND FREE ENERGY PREDICTED BY IDOCK:   -4.27 KCAL/MOL
REMARK 924 INTRA-LIGAND FREE ENERGY PREDICTED BY IDOCK:    0.63 KCAL/MOL
REMARK 927      BINDING AFFINITY PREDICTED BY RF-SCORE:    0.00 PKD
ROOT
HETATM    1  O   UNL     1     -12.513  13.890  63.022  1.00  0.00    -1.099 OA 
HETATM    2  C   UNL     1     -12.628  12.802  63.943  1.00  0.00    -0.289 C  
HETATM    3  H   UNL     1     -12.954  13.644  62.217  1.00  0.00     0.000 HD 
ENDROOT
BRANCH   2   4
HETATM    4  C   UNL     1     -11.916  13.200  65.241  1.00  0.00    -0.398 C  
HETATM    5  H   UNL     1     -11.525  12.327  66.941  1.00  0.00     0.000 HD 
HETATM    6  O   UNL     1     -11.966  12.080  66.137  1.00  0.00    -0.581 OA 
BRANCH   4   7
HETATM    7  C   UNL     1     -10.454  13.619  65.008  1.00  0.00    -0.391 C  
HETATM    8  H   UNL     1      -8.952  14.302  66.089  1.00  0.00     0.000 HD 
HETATM    9  O   UNL     1      -9.855  14.043  66.233  1.00  0.00    -0.286 OA 
BRANCH   7  10
HETATM   10  C   UNL     1      -9.624  12.463  64.395  1.00  0.00     0.161 C  
HETATM   11  H   UNL     1      -9.460  11.519  62.637  1.00  0.00     0.000 HD 
HETATM   12  O   UNL     1      -9.969  12.228  63.014  1.00  0.00    -0.320 OA 
BRANCH  10  13
HETATM   13  C   UNL     1      -9.771  11.141  65.159  1.00  0.00    -0.250 C  
HETATM   14  C   UNL     1      -8.473  10.637  65.817  1.00  0.00    -0.178 C  
HETATM   15  O   UNL     1     -10.376  10.164  64.309  1.00  0.00    -0.417 OA 
HETATM   16  O   UNL     1      -7.718  11.587  66.413  1.00  0.00    -0.108 OA 
HETATM   17  O   UNL     1      -8.175   9.447  65.852  1.00  0.00    -0.112 OA 
HETATM   18  H   UNL     1     -10.467   9.345  64.782  1.00  0.00     0.000 HD 
ENDBRANCH  10  13
ENDBRANCH   7  10
ENDBRANCH   4   7
ENDBRANCH   2   4
TORSDOF 4
ENDMDL
MODEL      234
REMARK 921   NORMALIZED FREE ENERGY PREDICTED BY IDOCK:   -2.57 KCAL/MOL
REMARK 922        TOTAL FREE ENERGY PREDICTED BY IDOCK:   -3.64 KCAL/MOL
REMARK 923 INTER-LIGAND FREE ENERGY PREDICTED BY IDOCK:   -3.73 KCAL/MOL
REMARK 924 INTRA-LIGAND FREE ENERGY PREDICTED BY IDOCK:    0.09 KCAL/MOL
REMARK 927      BINDING AFFINITY PREDICTED BY RF-SCORE:    0.00 PKD
ROOT
HETATM    1  O   UNL     1      -7.894  11.205  69.479  1.00  0.00    -0.368 OA 
HETATM    2  C   UNL     1      -9.007  10.475  68.955  1.00  0.00    -0.176 C  
HETATM    3  H   UNL     1      -7.826  11.014  70.407  1.00  0.00     0.000 HD 
ENDROOT
BRANCH   2   4
HETATM    4  C   UNL     1      -9.116  10.783  67.458  1.00  0.00    -0.139 C  
HETATM    5  H   UNL     1      -9.002   9.746  65.809  1.00  0.00     0.000 HD 
HETATM    6  O   UNL     1      -8.934   9.556  66.736  1.00  0.00    -0.135 OA 
BRANCH   4   7
HETATM    7  C   UNL     1     -10.468  11.415  67.082  1.00  0.00    -0.224 C  
HETATM    8  H   UNL     1     -12.197  11.769  67.962  1.00  0.00     0.000 HD 
HETATM    9  O   UNL     1     -11.362  11.379  68.194  1.00  0.00    -0.253 OA 
BRANCH   7  10
HETATM   10  C   UNL     1     -10.295  12.877  66.599  1.00  0.00    -0.251 C  
HETATM   11  H   UNL     1     -10.967  14.697  67.096  1.00  0.00     0.000 HD 
HETATM   12  O   UNL     1     -11.072  13.800  67.391  1.00  0.00    -0.284 OA 
BRANCH  10  13
HETATM   13  C   UNL     1     -10.669  13.076  65.125  1.00  0.00    -0.306 C  
HETATM   14  C   UNL     1     -11.945  12.334  64.685  1.00  0.00    -0.366 C  
HETATM   15  O   UNL     1      -9.542  12.774  64.301  1.00  0.00    -0.527 OA 
HETATM   16  O   UNL     1     -12.968  12.365  65.568  1.00  0.00    -0.238 OA 
HETATM   17  O   UNL     1     -12.047  11.802  63.583  1.00  0.00    -0.458 OA 
HETATM   18  H   UNL     1      -9.774  12.898  63.388  1.00  0.00     0.000 HD 
ENDBRANCH  10  13
ENDBRANCH   7  10
ENDBRANCH   4   7
ENDBRANCH   2   4
TORSDOF 4
ENDMDL
MODEL      235
REMARK 921   NORMALIZED FREE ENERGY PREDICTED BY IDOCK:   -2.56 KCAL/MOL
REMARK 922        TOTAL FREE ENERGY PREDICTED BY IDOCK:   -3.63 KCAL/MOL
REMARK 923 INTER-LIGAND FREE ENERGY PREDICTED BY IDOCK:   -4.08 KCAL/MOL
REMARK 924 INTRA-LIGAND FREE ENERGY PREDICTED BY IDOCK:    0.45 KCAL/MOL
REMARK 927      BINDING AFFINITY PREDICTED BY RF-SCORE:    0.00 PKD
ROOT
HETATM    1  O   UNL     1     -10.862   8.085  67.633  1.00  0.00    -0.477 OA 
HETATM    2  C   UNL     1     -10.225   9.040  68.487  1.00  0.00    -0.200 C  
HETATM    3  H   UNL     1     -11.285   7.435  68.180  1.00  0.00     0.000 HD 
ENDROOT
BRANCH   2   4
HETATM    4  C   UNL     1      -9.542  10.090  67.603  1.00  0.00    -0.148 C  
HETATM    5  H   UNL     1      -9.457  10.460  65.690  1.00  0.00     0.000 HD 
HETATM    6  O   UNL     1      -9.880   9.810  66.237  1.00  0.00    -0.215 OA 
BRANCH   4   7
HETATM    7  C   UNL     1      -9.961  11.526  67.962  1.00  0.00    -0.189 C  
HETATM    8  H   UNL     1      -9.617  13.347  67.288  1.00  0.00     0.000 HD 
HETATM    9  O   UNL     1      -9.358  12.460  67.067  1.00  0.00    -0.192 OA 
BRANCH   7  10
HETATM   10  C   UNL     1     -11.502  11.692  67.929  1.00  0.00    -0.311 C  
HETATM   11  H   UNL     1     -12.904  12.305  66.639  1.00  0.00     0.000 HD 
HETATM   12  O   UNL     1     -11.960  12.203  66.659  1.00  0.00    -0.616 OA 
BRANCH  10  13
HETATM   13  C   UNL     1     -12.036  12.609  69.037  1.00  0.00    -0.236 C  
HETATM   14  C   UNL     1     -11.877  14.114  68.750  1.00  0.00    -0.349 C  
HETATM   15  O   UNL     1     -11.470  12.222  70.291  1.00  0.00    -0.515 OA 
HETATM   16  O   UNL     1     -12.147  14.494  67.481  1.00  0.00    -0.366 OA 
HETATM   17  O   UNL     1     -11.585  14.921  69.628  1.00  0.00    -0.268 OA 
HETATM   18  H   UNL     1     -11.802  12.790  70.977  1.00  0.00     0.000 HD 
ENDBRANCH  10  13
ENDBRANCH   7  10
ENDBRANCH   4   7
ENDBRANCH   2   4
TORSDOF 4
ENDMDL
MODEL      236
REMARK 921   NORMALIZED FREE ENERGY PREDICTED BY IDOCK:   -2.56 KCAL/MOL
REMARK 922        TOTAL FREE ENERGY PREDICTED BY IDOCK:   -3.63 KCAL/MOL
REMARK 923 INTER-LIGAND FREE ENERGY PREDICTED BY IDOCK:   -3.17 KCAL/MOL
REMARK 924 INTRA-LIGAND FREE ENERGY PREDICTED BY IDOCK:   -0.46 KCAL/MOL
REMARK 927      BINDING AFFINITY PREDICTED BY RF-SCORE:    0.00 PKD
ROOT
HETATM    1  O   UNL     1      -8.538   8.955  69.480  1.00  0.00    -0.127 OA 
HETATM    2  C   UNL     1      -8.612   7.754  68.706  1.00  0.00    -0.129 C  
HETATM    3  H   UNL     1      -8.297   9.667  68.900  1.00  0.00     0.000 HD 
ENDROOT
BRANCH   2   4
HETATM    4  C   UNL     1      -9.001   6.606  69.642  1.00  0.00    -0.142 C  
HETATM    5  H   UNL     1      -8.299   5.861  71.303  1.00  0.00     0.000 HD 
HETATM    6  O   UNL     1      -8.058   6.573  70.723  1.00  0.00    -0.116 OA 
BRANCH   4   7
HETATM    7  C   UNL     1     -10.428   6.754  70.198  1.00  0.00    -0.209 C  
HETATM    8  H   UNL     1     -12.140   5.783  70.074  1.00  0.00     0.000 HD 
HETATM    9  O   UNL     1     -11.259   5.691  69.731  1.00  0.00    -0.274 OA 
BRANCH   7  10
HETATM   10  C   UNL     1     -10.433   6.778  71.747  1.00  0.00    -0.207 C  
HETATM   11  H   UNL     1     -11.479   5.956  73.244  1.00  0.00     0.000 HD 
HETATM   12  O   UNL     1     -11.475   5.941  72.293  1.00  0.00    -0.293 OA 
BRANCH  10  13
HETATM   13  C   UNL     1     -10.594   8.187  72.331  1.00  0.00    -0.323 C  
HETATM   14  C   UNL     1     -11.746   9.004  71.717  1.00  0.00    -0.369 C  
HETATM   15  O   UNL     1      -9.340   8.871  72.277  1.00  0.00    -0.360 OA 
HETATM   16  O   UNL     1     -12.890   8.318  71.495  1.00  0.00    -0.308 OA 
HETATM   17  O   UNL     1     -11.652  10.209  71.500  1.00  0.00    -0.319 OA 
HETATM   18  H   UNL     1      -9.440   9.744  72.639  1.00  0.00     0.000 HD 
ENDBRANCH  10  13
ENDBRANCH   7  10
ENDBRANCH   4   7
ENDBRANCH   2   4
TORSDOF 4
ENDMDL
MODEL      237
REMARK 921   NORMALIZED FREE ENERGY PREDICTED BY IDOCK:   -2.55 KCAL/MOL
REMARK 922        TOTAL FREE ENERGY PREDICTED BY IDOCK:   -3.61 KCAL/MOL
REMARK 923 INTER-LIGAND FREE ENERGY PREDICTED BY IDOCK:   -3.03 KCAL/MOL
REMARK 924 INTRA-LIGAND FREE ENERGY PREDICTED BY IDOCK:   -0.58 KCAL/MOL
REMARK 927      BINDING AFFINITY PREDICTED BY RF-SCORE:    0.00 PKD
ROOT
HETATM    1  O   UNL     1      -8.059   6.609  70.860  1.00  0.00    -0.115 OA 
HETATM    2  C   UNL     1      -8.525   6.200  69.571  1.00  0.00    -0.120 C  
HETATM    3  H   UNL     1      -7.221   6.190  71.018  1.00  0.00     0.000 HD 
ENDROOT
BRANCH   2   4
HETATM    4  C   UNL     1      -9.876   6.877  69.316  1.00  0.00    -0.157 C  
HETATM    5  H   UNL     1     -11.554   7.057  70.294  1.00  0.00     0.000 HD 
HETATM    6  O   UNL     1     -10.717   6.637  70.453  1.00  0.00    -0.226 OA 
BRANCH   4   7
HETATM    7  C   UNL     1      -9.741   8.390  69.074  1.00  0.00    -0.171 C  
HETATM    8  H   UNL     1      -8.297   9.670  68.665  1.00  0.00     0.000 HD 
HETATM    9  O   UNL     1      -8.380   8.735  68.815  1.00  0.00    -0.121 OA 
BRANCH   7  10
HETATM   10  C   UNL     1     -10.631   8.858  67.895  1.00  0.00    -0.183 C  
HETATM   11  H   UNL     1     -11.274   8.138  66.141  1.00  0.00     0.000 HD 
HETATM   12  O   UNL     1     -10.728   7.852  66.864  1.00  0.00    -0.333 OA 
BRANCH  10  13
HETATM   13  C   UNL     1     -10.146  10.162  67.250  1.00  0.00    -0.206 C  
HETATM   14  C   UNL     1     -11.237  11.235  67.081  1.00  0.00    -0.275 C  
HETATM   15  O   UNL     1      -9.468   9.866  66.027  1.00  0.00    -0.173 OA 
HETATM   16  O   UNL     1     -12.086  11.368  68.125  1.00  0.00    -0.623 OA 
HETATM   17  O   UNL     1     -11.296  11.961  66.093  1.00  0.00    -0.332 OA 
HETATM   18  H   UNL     1      -9.167  10.674  65.628  1.00  0.00     0.000 HD 
ENDBRANCH  10  13
ENDBRANCH   7  10
ENDBRANCH   4   7
ENDBRANCH   2   4
TORSDOF 4
ENDMDL
MODEL      238
REMARK 921   NORMALIZED FREE ENERGY PREDICTED BY IDOCK:   -2.55 KCAL/MOL
REMARK 922        TOTAL FREE ENERGY PREDICTED BY IDOCK:   -3.61 KCAL/MOL
REMARK 923 INTER-LIGAND FREE ENERGY PREDICTED BY IDOCK:   -3.89 KCAL/MOL
REMARK 924 INTRA-LIGAND FREE ENERGY PREDICTED BY IDOCK:    0.28 KCAL/MOL
REMARK 927      BINDING AFFINITY PREDICTED BY RF-SCORE:    0.00 PKD
ROOT
HETATM    1  O   UNL     1      -7.918  17.528  67.668  1.00  0.00    -0.198 OA 
HETATM    2  C   UNL     1      -8.885  17.237  66.655  1.00  0.00    -0.255 C  
HETATM    3  H   UNL     1      -7.992  18.447  67.892  1.00  0.00     0.000 HD 
ENDROOT
BRANCH   2   4
HETATM    4  C   UNL     1      -8.766  15.752  66.294  1.00  0.00    -0.323 C  
HETATM    5  H   UNL     1      -7.897  14.191  67.077  1.00  0.00     0.000 HD 
HETATM    6  O   UNL     1      -7.971  15.111  67.301  1.00  0.00    -0.175 OA 
BRANCH   4   7
HETATM    7  C   UNL     1     -10.135  15.059  66.187  1.00  0.00    -0.294 C  
HETATM    8  H   UNL     1     -12.030  15.599  66.090  1.00  0.00     0.000 HD 
HETATM    9  O   UNL     1     -11.184  16.027  66.156  1.00  0.00    -0.056 OA 
BRANCH   7  10
HETATM   10  C   UNL     1     -10.218  14.160  64.927  1.00  0.00    -0.341 C  
HETATM   11  H   UNL     1     -11.345  14.009  63.279  1.00  0.00     0.000 HD 
HETATM   12  O   UNL     1     -11.293  14.560  64.052  1.00  0.00    -0.067 OA 
BRANCH  10  13
HETATM   13  C   UNL     1     -10.396  12.672  65.256  1.00  0.00    -0.289 C  
HETATM   14  C   UNL     1     -11.767  12.311  65.856  1.00  0.00    -0.389 C  
HETATM   15  O   UNL     1      -9.304  12.229  66.065  1.00  0.00    -0.328 OA 
HETATM   16  O   UNL     1     -12.829  12.925  65.287  1.00  0.00    -0.668 OA 
HETATM   17  O   UNL     1     -11.893  11.477  66.748  1.00  0.00    -0.511 OA 
HETATM   18  H   UNL     1      -9.414  11.307  66.268  1.00  0.00     0.000 HD 
ENDBRANCH  10  13
ENDBRANCH   7  10
ENDBRANCH   4   7
ENDBRANCH   2   4
TORSDOF 4
ENDMDL
MODEL      239
REMARK 921   NORMALIZED FREE ENERGY PREDICTED BY IDOCK:   -2.55 KCAL/MOL
REMARK 922        TOTAL FREE ENERGY PREDICTED BY IDOCK:   -3.61 KCAL/MOL
REMARK 923 INTER-LIGAND FREE ENERGY PREDICTED BY IDOCK:   -3.45 KCAL/MOL
REMARK 924 INTRA-LIGAND FREE ENERGY PREDICTED BY IDOCK:   -0.16 KCAL/MOL
REMARK 927      BINDING AFFINITY PREDICTED BY RF-SCORE:    0.00 PKD
ROOT
HETATM    1  O   UNL     1      -7.347  11.435  69.614  1.00  0.00    -0.350 OA 
HETATM    2  C   UNL     1      -8.440  11.378  68.693  1.00  0.00    -0.131 C  
HETATM    3  H   UNL     1      -7.310  10.608  70.080  1.00  0.00     0.000 HD 
ENDROOT
BRANCH   2   4
HETATM    4  C   UNL     1      -8.499  12.712  67.941  1.00  0.00    -0.173 C  
HETATM    5  H   UNL     1      -8.911  13.268  66.117  1.00  0.00     0.000 HD 
HETATM    6  O   UNL     1      -8.874  12.441  66.583  1.00  0.00    -0.208 OA 
BRANCH   4   7
HETATM    7  C   UNL     1      -9.494  13.701  68.571  1.00  0.00    -0.143 C  
HETATM    8  H   UNL     1      -9.472  15.564  69.220  1.00  0.00     0.000 HD 
HETATM    9  O   UNL     1      -8.858  14.952  68.831  1.00  0.00    -0.180 OA 
BRANCH   7  10
HETATM   10  C   UNL     1     -10.727  13.923  67.659  1.00  0.00    -0.249 C  
HETATM   11  H   UNL     1     -11.994  15.406  67.205  1.00  0.00     0.000 HD 
HETATM   12  O   UNL     1     -11.238  15.269  67.765  1.00  0.00    -0.310 OA 
BRANCH  10  13
HETATM   13  C   UNL     1     -11.877  12.950  67.946  1.00  0.00    -0.339 C  
HETATM   14  C   UNL     1     -12.022  12.555  69.428  1.00  0.00    -0.256 C  
HETATM   15  O   UNL     1     -11.772  11.818  67.080  1.00  0.00    -0.547 OA 
HETATM   16  O   UNL     1     -11.859  13.562  70.316  1.00  0.00    -0.309 OA 
HETATM   17  O   UNL     1     -12.325  11.417  69.776  1.00  0.00    -0.259 OA 
HETATM   18  H   UNL     1     -12.484  11.215  67.258  1.00  0.00     0.000 HD 
ENDBRANCH  10  13
ENDBRANCH   7  10
ENDBRANCH   4   7
ENDBRANCH   2   4
TORSDOF 4
ENDMDL
MODEL      240
REMARK 921   NORMALIZED FREE ENERGY PREDICTED BY IDOCK:   -2.55 KCAL/MOL
REMARK 922        TOTAL FREE ENERGY PREDICTED BY IDOCK:   -3.61 KCAL/MOL
REMARK 923 INTER-LIGAND FREE ENERGY PREDICTED BY IDOCK:   -4.37 KCAL/MOL
REMARK 924 INTRA-LIGAND FREE ENERGY PREDICTED BY IDOCK:    0.76 KCAL/MOL
REMARK 927      BINDING AFFINITY PREDICTED BY RF-SCORE:    0.00 PKD
ROOT
HETATM    1  O   UNL     1     -11.177  11.029  70.339  1.00  0.00    -0.461 OA 
HETATM    2  C   UNL     1     -11.181  10.943  68.912  1.00  0.00    -0.267 C  
HETATM    3  H   UNL     1     -11.901  10.510  70.669  1.00  0.00     0.000 HD 
ENDROOT
BRANCH   2   4
HETATM    4  C   UNL     1     -10.012  11.779  68.380  1.00  0.00    -0.202 C  
HETATM    5  H   UNL     1      -8.066  11.654  68.440  1.00  0.00     0.000 HD 
HETATM    6  O   UNL     1      -8.790  11.136  68.770  1.00  0.00    -0.162 OA 
BRANCH   4   7
HETATM    7  C   UNL     1     -10.052  11.946  66.852  1.00  0.00    -0.207 C  
HETATM    8  H   UNL     1     -11.389  11.786  65.410  1.00  0.00     0.000 HD 
HETATM    9  O   UNL     1     -11.364  11.683  66.355  1.00  0.00    -0.323 OA 
BRANCH   7  10
HETATM   10  C   UNL     1      -9.607  13.368  66.424  1.00  0.00    -0.257 C  
HETATM   11  H   UNL     1      -9.034  15.074  67.302  1.00  0.00     0.000 HD 
HETATM   12  O   UNL     1      -9.307  14.201  67.564  1.00  0.00    -0.193 OA 
BRANCH  10  13
HETATM   13  C   UNL     1     -10.647  14.093  65.560  1.00  0.00    -0.326 C  
HETATM   14  C   UNL     1     -12.032  14.240  66.217  1.00  0.00    -0.412 C  
HETATM   15  O   UNL     1     -10.708  13.478  64.272  1.00  0.00    -0.491 OA 
HETATM   16  O   UNL     1     -12.019  14.564  67.530  1.00  0.00    -0.382 OA 
HETATM   17  O   UNL     1     -13.075  14.131  65.580  1.00  0.00    -0.691 OA 
HETATM   18  H   UNL     1     -11.352  13.927  63.736  1.00  0.00     0.000 HD 
ENDBRANCH  10  13
ENDBRANCH   7  10
ENDBRANCH   4   7
ENDBRANCH   2   4
TORSDOF 4
ENDMDL
MODEL      241
REMARK 921   NORMALIZED FREE ENERGY PREDICTED BY IDOCK:   -2.54 KCAL/MOL
REMARK 922        TOTAL FREE ENERGY PREDICTED BY IDOCK:   -3.60 KCAL/MOL
REMARK 923 INTER-LIGAND FREE ENERGY PREDICTED BY IDOCK:   -3.26 KCAL/MOL
REMARK 924 INTRA-LIGAND FREE ENERGY PREDICTED BY IDOCK:   -0.34 KCAL/MOL
REMARK 927      BINDING AFFINITY PREDICTED BY RF-SCORE:    0.00 PKD
ROOT
HETATM    1  O   UNL     1      -7.558  11.365  66.094  1.00  0.00    -0.349 OA 
HETATM    2  C   UNL     1      -7.103  10.635  67.238  1.00  0.00    -0.089 C  
HETATM    3  H   UNL     1      -7.050  12.165  66.033  1.00  0.00     0.000 HD 
ENDROOT
BRANCH   2   4
HETATM    4  C   UNL     1      -7.922   9.344  67.336  1.00  0.00    -0.106 C  
HETATM    5  H   UNL     1      -8.254   8.003  68.714  1.00  0.00     0.000 HD 
HETATM    6  O   UNL     1      -7.747   8.804  68.653  1.00  0.00    -0.095 OA 
BRANCH   4   7
HETATM    7  C   UNL     1      -9.419   9.571  67.059  1.00  0.00    -0.155 C  
HETATM    8  H   UNL     1     -10.963   8.497  66.466  1.00  0.00     0.000 HD 
HETATM    9  O   UNL     1     -10.039   8.356  66.637  1.00  0.00    -0.266 OA 
BRANCH   7  10
HETATM   10  C   UNL     1     -10.149  10.122  68.310  1.00  0.00    -0.156 C  
HETATM   11  H   UNL     1     -11.183   9.401  69.866  1.00  0.00     0.000 HD 
HETATM   12  O   UNL     1     -10.735   9.064  69.098  1.00  0.00    -0.222 OA 
BRANCH  10  13
HETATM   13  C   UNL     1     -11.250  11.135  67.971  1.00  0.00    -0.296 C  
HETATM   14  C   UNL     1     -10.880  12.601  68.265  1.00  0.00    -0.239 C  
HETATM   15  O   UNL     1     -12.473  10.737  68.595  1.00  0.00    -0.793 OA 
HETATM   16  O   UNL     1      -9.619  12.959  67.933  1.00  0.00    -0.201 OA 
HETATM   17  O   UNL     1     -11.692  13.404  68.714  1.00  0.00    -0.296 OA 
HETATM   18  H   UNL     1     -13.155  11.365  68.385  1.00  0.00     0.000 HD 
ENDBRANCH  10  13
ENDBRANCH   7  10
ENDBRANCH   4   7
ENDBRANCH   2   4
TORSDOF 4
ENDMDL
MODEL      242
REMARK 921   NORMALIZED FREE ENERGY PREDICTED BY IDOCK:   -2.52 KCAL/MOL
REMARK 922        TOTAL FREE ENERGY PREDICTED BY IDOCK:   -3.58 KCAL/MOL
REMARK 923 INTER-LIGAND FREE ENERGY PREDICTED BY IDOCK:   -2.98 KCAL/MOL
REMARK 924 INTRA-LIGAND FREE ENERGY PREDICTED BY IDOCK:   -0.59 KCAL/MOL
REMARK 927      BINDING AFFINITY PREDICTED BY RF-SCORE:    0.00 PKD
ROOT
HETATM    1  O   UNL     1      -7.301   9.486  71.115  1.00  0.00    -0.318 OA 
HETATM    2  C   UNL     1      -7.213   8.785  69.871  1.00  0.00    -0.051 C  
HETATM    3  H   UNL     1      -7.183  10.412  70.941  1.00  0.00     0.000 HD 
ENDROOT
BRANCH   2   4
HETATM    4  C   UNL     1      -7.404   7.291  70.152  1.00  0.00    -0.079 C  
HETATM    5  H   UNL     1      -7.685   6.194  71.741  1.00  0.00     0.000 HD 
HETATM    6  O   UNL     1      -7.567   7.120  71.567  1.00  0.00    -0.086 OA 
BRANCH   4   7
HETATM    7  C   UNL     1      -8.617   6.701  69.412  1.00  0.00    -0.135 C  
HETATM    8  H   UNL     1      -9.028   5.082  68.361  1.00  0.00     0.000 HD 
HETATM    9  O   UNL     1      -8.278   5.447  68.819  1.00  0.00    -0.093 OA 
BRANCH   7  10
HETATM   10  C   UNL     1      -9.827   6.518  70.362  1.00  0.00    -0.175 C  
HETATM   11  H   UNL     1     -11.080   5.056  70.911  1.00  0.00     0.000 HD 
HETATM   12  O   UNL     1     -10.338   5.168  70.328  1.00  0.00    -0.268 OA 
BRANCH  10  13
HETATM   13  C   UNL     1     -10.985   7.477  70.059  1.00  0.00    -0.240 C  
HETATM   14  C   UNL     1     -11.256   8.518  71.162  1.00  0.00    -0.267 C  
HETATM   15  O   UNL     1     -12.149   6.725  69.710  1.00  0.00    -0.648 OA 
HETATM   16  O   UNL     1     -10.156   9.071  71.721  1.00  0.00    -0.326 OA 
HETATM   17  O   UNL     1     -12.392   8.866  71.470  1.00  0.00    -0.298 OA 
HETATM   18  H   UNL     1     -12.866   7.320  69.522  1.00  0.00     0.000 HD 
ENDBRANCH  10  13
ENDBRANCH   7  10
ENDBRANCH   4   7
ENDBRANCH   2   4
TORSDOF 4
ENDMDL
MODEL      243
REMARK 921   NORMALIZED FREE ENERGY PREDICTED BY IDOCK:   -2.51 KCAL/MOL
REMARK 922        TOTAL FREE ENERGY PREDICTED BY IDOCK:   -3.57 KCAL/MOL
REMARK 923 INTER-LIGAND FREE ENERGY PREDICTED BY IDOCK:   -2.78 KCAL/MOL
REMARK 924 INTRA-LIGAND FREE ENERGY PREDICTED BY IDOCK:   -0.79 KCAL/MOL
REMARK 927      BINDING AFFINITY PREDICTED BY RF-SCORE:    0.00 PKD
ROOT
HETATM    1  O   UNL     1     -11.116   7.012  67.881  1.00  0.00    -0.486 OA 
HETATM    2  C   UNL     1     -10.036   7.274  66.981  1.00  0.00    -0.224 C  
HETATM    3  H   UNL     1     -11.692   6.376  67.475  1.00  0.00     0.000 HD 
ENDROOT
BRANCH   2   4
HETATM    4  C   UNL     1      -9.106   8.300  67.637  1.00  0.00    -0.131 C  
HETATM    5  H   UNL     1      -7.284   8.929  67.331  1.00  0.00     0.000 HD 
HETATM    6  O   UNL     1      -7.861   8.293  66.924  1.00  0.00    -0.094 OA 
BRANCH   4   7
HETATM    7  C   UNL     1      -9.700   9.719  67.639  1.00  0.00    -0.156 C  
HETATM    8  H   UNL     1     -11.260  10.638  66.857  1.00  0.00     0.000 HD 
HETATM    9  O   UNL     1     -10.893   9.762  66.856  1.00  0.00    -0.170 OA 
BRANCH   7  10
HETATM   10  C   UNL     1     -10.003  10.204  69.079  1.00  0.00    -0.208 C  
HETATM   11  H   UNL     1      -9.649  11.817  70.211  1.00  0.00     0.000 HD 
HETATM   12  O   UNL     1      -9.463  11.519  69.327  1.00  0.00     0.115 OA 
BRANCH  10  13
HETATM   13  C   UNL     1      -9.475   9.255  70.162  1.00  0.00    -0.226 C  
HETATM   14  C   UNL     1     -10.541   8.773  71.163  1.00  0.00    -0.241 C  
HETATM   15  O   UNL     1      -8.342   9.845  70.802  1.00  0.00    -0.383 OA 
HETATM   16  O   UNL     1     -11.740   8.454  70.625  1.00  0.00    -0.254 OA 
HETATM   17  O   UNL     1     -10.301   8.631  72.358  1.00  0.00    -0.319 OA 
HETATM   18  H   UNL     1      -8.014   9.256  71.472  1.00  0.00     0.000 HD 
ENDBRANCH  10  13
ENDBRANCH   7  10
ENDBRANCH   4   7
ENDBRANCH   2   4
TORSDOF 4
ENDMDL
MODEL      244
REMARK 921   NORMALIZED FREE ENERGY PREDICTED BY IDOCK:   -2.50 KCAL/MOL
REMARK 922        TOTAL FREE ENERGY PREDICTED BY IDOCK:   -3.55 KCAL/MOL
REMARK 923 INTER-LIGAND FREE ENERGY PREDICTED BY IDOCK:   -3.26 KCAL/MOL
REMARK 924 INTRA-LIGAND FREE ENERGY PREDICTED BY IDOCK:   -0.30 KCAL/MOL
REMARK 927      BINDING AFFINITY PREDICTED BY RF-SCORE:    0.00 PKD
ROOT
HETATM    1  O   UNL     1     -11.617  15.192  66.748  1.00  0.00    -0.270 OA 
HETATM    2  C   UNL     1     -11.869  13.859  66.292  1.00  0.00    -0.408 C  
HETATM    3  H   UNL     1     -12.358  15.732  66.504  1.00  0.00     0.000 HD 
ENDROOT
BRANCH   2   4
HETATM    4  C   UNL     1     -10.673  12.986  66.686  1.00  0.00    -0.274 C  
HETATM    5  H   UNL     1      -8.794  13.301  67.106  1.00  0.00     0.000 HD 
HETATM    6  O   UNL     1      -9.535  13.843  66.862  1.00  0.00    -0.240 OA 
BRANCH   4   7
HETATM    7  C   UNL     1     -10.927  12.182  67.972  1.00  0.00    -0.229 C  
HETATM    8  H   UNL     1     -12.429  11.208  68.800  1.00  0.00     0.000 HD 
HETATM    9  O   UNL     1     -12.272  11.705  68.005  1.00  0.00    -0.551 OA 
BRANCH   7  10
HETATM   10  C   UNL     1      -9.947  10.988  68.098  1.00  0.00    -0.177 C  
HETATM   11  H   UNL     1      -8.197  10.587  68.985  1.00  0.00     0.000 HD 
HETATM   12  O   UNL     1      -8.799  11.319  68.908  1.00  0.00    -0.142 OA 
BRANCH  10  13
HETATM   13  C   UNL     1      -9.445  10.472  66.743  1.00  0.00    -0.163 C  
HETATM   14  C   UNL     1      -9.554   8.947  66.563  1.00  0.00    -0.232 C  
HETATM   15  O   UNL     1      -8.126  10.965  66.503  1.00  0.00    -0.143 OA 
HETATM   16  O   UNL     1     -10.693   8.386  67.028  1.00  0.00    -0.289 OA 
HETATM   17  O   UNL     1      -8.692   8.293  65.982  1.00  0.00    -0.138 OA 
HETATM   18  H   UNL     1      -7.816  10.646  65.664  1.00  0.00     0.000 HD 
ENDBRANCH  10  13
ENDBRANCH   7  10
ENDBRANCH   4   7
ENDBRANCH   2   4
TORSDOF 4
ENDMDL
MODEL      245
REMARK 921   NORMALIZED FREE ENERGY PREDICTED BY IDOCK:   -2.49 KCAL/MOL
REMARK 922        TOTAL FREE ENERGY PREDICTED BY IDOCK:   -3.54 KCAL/MOL
REMARK 923 INTER-LIGAND FREE ENERGY PREDICTED BY IDOCK:   -3.40 KCAL/MOL
REMARK 924 INTRA-LIGAND FREE ENERGY PREDICTED BY IDOCK:   -0.15 KCAL/MOL
REMARK 927      BINDING AFFINITY PREDICTED BY RF-SCORE:    0.00 PKD
ROOT
HETATM    1  O   UNL     1      -8.748  10.164  63.059  1.00  0.00    -0.169 OA 
HETATM    2  C   UNL     1      -8.774   9.190  64.107  1.00  0.00    -0.141 C  
HETATM    3  H   UNL     1      -8.680   9.705  62.231  1.00  0.00     0.000 HD 
ENDROOT
BRANCH   2   4
HETATM    4  C   UNL     1      -8.885   9.931  65.444  1.00  0.00    -0.168 C  
HETATM    5  H   UNL     1      -8.920  11.799  66.006  1.00  0.00     0.000 HD 
HETATM    6  O   UNL     1      -8.851  11.340  65.177  1.00  0.00    -0.110 OA 
BRANCH   4   7
HETATM    7  C   UNL     1     -10.171   9.575  66.210  1.00  0.00    -0.220 C  
HETATM    8  H   UNL     1     -11.009   7.955  66.963  1.00  0.00     0.000 HD 
HETATM    9  O   UNL     1     -10.215   8.175  66.489  1.00  0.00    -0.279 OA 
BRANCH   7  10
HETATM   10  C   UNL     1     -10.281  10.373  67.534  1.00  0.00    -0.210 C  
HETATM   11  H   UNL     1     -10.189  10.012  69.501  1.00  0.00     0.000 HD 
HETATM   12  O   UNL     1     -10.122   9.522  68.689  1.00  0.00    -0.169 OA 
BRANCH  10  13
HETATM   13  C   UNL     1     -11.606  11.132  67.675  1.00  0.00    -0.183 C  
HETATM   14  C   UNL     1     -11.461  12.664  67.735  1.00  0.00    -0.322 C  
HETATM   15  O   UNL     1     -12.344  10.603  68.779  1.00  0.00    -0.814 OA 
HETATM   16  O   UNL     1     -10.560  13.195  66.878  1.00  0.00    -0.260 OA 
HETATM   17  O   UNL     1     -12.158  13.360  68.467  1.00  0.00    -0.352 OA 
HETATM   18  H   UNL     1     -13.165  11.073  68.866  1.00  0.00     0.000 HD 
ENDBRANCH  10  13
ENDBRANCH   7  10
ENDBRANCH   4   7
ENDBRANCH   2   4
TORSDOF 4
ENDMDL
MODEL      246
REMARK 921   NORMALIZED FREE ENERGY PREDICTED BY IDOCK:   -2.49 KCAL/MOL
REMARK 922        TOTAL FREE ENERGY PREDICTED BY IDOCK:   -3.54 KCAL/MOL
REMARK 923 INTER-LIGAND FREE ENERGY PREDICTED BY IDOCK:   -4.43 KCAL/MOL
REMARK 924 INTRA-LIGAND FREE ENERGY PREDICTED BY IDOCK:    0.89 KCAL/MOL
REMARK 927      BINDING AFFINITY PREDICTED BY RF-SCORE:    0.00 PKD
ROOT
HETATM    1  O   UNL     1     -11.876  13.651  63.767  1.00  0.00    -0.621 OA 
HETATM    2  C   UNL     1     -12.070  14.802  64.594  1.00  0.00    -0.427 C  
HETATM    3  H   UNL     1     -12.703  13.189  63.705  1.00  0.00     0.000 HD 
ENDROOT
BRANCH   2   4
HETATM    4  C   UNL     1     -10.735  15.548  64.694  1.00  0.00    -0.165 C  
HETATM    5  H   UNL     1     -10.176  17.348  65.197  1.00  0.00     0.000 HD 
HETATM    6  O   UNL     1     -11.003  16.886  65.135  1.00  0.00    -0.508 OA 
BRANCH   4   7
HETATM    7  C   UNL     1      -9.749  14.867  65.659  1.00  0.00    -0.291 C  
HETATM    8  H   UNL     1      -8.088  15.344  66.611  1.00  0.00     0.000 HD 
HETATM    9  O   UNL     1      -8.697  15.765  66.014  1.00  0.00    -0.313 OA 
BRANCH   7  10
HETATM   10  C   UNL     1     -10.463  14.368  66.941  1.00  0.00    -0.269 C  
HETATM   11  H   UNL     1     -12.125  13.360  67.421  1.00  0.00     0.000 HD 
HETATM   12  O   UNL     1     -11.686  13.666  66.635  1.00  0.00    -0.348 OA 
BRANCH  10  13
HETATM   13  C   UNL     1     -10.791  15.496  67.928  1.00  0.00    -0.307 C  
HETATM   14  C   UNL     1     -10.041  15.406  69.270  1.00  0.00    -0.253 C  
HETATM   15  O   UNL     1     -12.208  15.590  68.092  1.00  0.00    -0.409 OA 
HETATM   16  O   UNL     1      -8.739  15.051  69.184  1.00  0.00    -0.200 OA 
HETATM   17  O   UNL     1     -10.571  15.697  70.338  1.00  0.00    -0.322 OA 
HETATM   18  H   UNL     1     -12.411  16.288  68.703  1.00  0.00     0.000 HD 
ENDBRANCH  10  13
ENDBRANCH   7  10
ENDBRANCH   4   7
ENDBRANCH   2   4
TORSDOF 4
ENDMDL
MODEL      247
REMARK 921   NORMALIZED FREE ENERGY PREDICTED BY IDOCK:   -2.48 KCAL/MOL
REMARK 922        TOTAL FREE ENERGY PREDICTED BY IDOCK:   -3.53 KCAL/MOL
REMARK 923 INTER-LIGAND FREE ENERGY PREDICTED BY IDOCK:   -3.31 KCAL/MOL
REMARK 924 INTRA-LIGAND FREE ENERGY PREDICTED BY IDOCK:   -0.22 KCAL/MOL
REMARK 927      BINDING AFFINITY PREDICTED BY RF-SCORE:    0.00 PKD
ROOT
HETATM    1  O   UNL     1     -11.975  14.122  63.839  1.00  0.00    -0.658 OA 
HETATM    2  C   UNL     1     -10.884  14.721  64.543  1.00  0.00    -0.159 C  
HETATM    3  H   UNL     1     -11.986  14.473  62.957  1.00  0.00     0.000 HD 
ENDROOT
BRANCH   2   4
HETATM    4  C   UNL     1     -10.867  14.155  65.967  1.00  0.00    -0.297 C  
HETATM    5  H   UNL     1     -11.572  12.560  66.843  1.00  0.00     0.000 HD 
HETATM    6  O   UNL     1     -11.582  12.911  65.961  1.00  0.00    -0.336 OA 
BRANCH   4   7
HETATM    7  C   UNL     1      -9.440  13.934  66.498  1.00  0.00    -0.274 C  
HETATM    8  H   UNL     1      -7.824  15.023  66.807  1.00  0.00     0.000 HD 
HETATM    9  O   UNL     1      -8.705  15.159  66.479  1.00  0.00    -0.278 OA 
BRANCH   7  10
HETATM   10  C   UNL     1      -9.453  13.358  67.937  1.00  0.00    -0.216 C  
HETATM   11  H   UNL     1      -9.525  14.047  69.815  1.00  0.00     0.000 HD 
HETATM   12  O   UNL     1      -9.517  14.400  68.933  1.00  0.00    -0.188 OA 
BRANCH  10  13
HETATM   13  C   UNL     1      -8.239  12.472  68.245  1.00  0.00    -0.168 C  
HETATM   14  C   UNL     1      -8.590  11.037  68.680  1.00  0.00    -0.157 C  
HETATM   15  O   UNL     1      -7.386  13.140  69.177  1.00  0.00    -0.285 OA 
HETATM   16  O   UNL     1      -9.595  10.451  67.990  1.00  0.00    -0.141 OA 
HETATM   17  O   UNL     1      -7.962  10.445  69.553  1.00  0.00    -0.155 OA 
HETATM   18  H   UNL     1      -6.634  12.591  69.368  1.00  0.00     0.000 HD 
ENDBRANCH  10  13
ENDBRANCH   7  10
ENDBRANCH   4   7
ENDBRANCH   2   4
TORSDOF 4
ENDMDL
MODEL      248
REMARK 921   NORMALIZED FREE ENERGY PREDICTED BY IDOCK:   -2.47 KCAL/MOL
REMARK 922        TOTAL FREE ENERGY PREDICTED BY IDOCK:   -3.52 KCAL/MOL
REMARK 923 INTER-LIGAND FREE ENERGY PREDICTED BY IDOCK:   -3.03 KCAL/MOL
REMARK 924 INTRA-LIGAND FREE ENERGY PREDICTED BY IDOCK:   -0.49 KCAL/MOL
REMARK 927      BINDING AFFINITY PREDICTED BY RF-SCORE:    0.00 PKD
ROOT
HETATM    1  O   UNL     1      -6.395  14.378  66.975  1.00  0.00    -0.271 OA 
HETATM    2  C   UNL     1      -7.077  14.744  68.178  1.00  0.00    -0.121 C  
HETATM    3  H   UNL     1      -5.935  13.563  67.133  1.00  0.00     0.000 HD 
ENDROOT
BRANCH   2   4
HETATM    4  C   UNL     1      -7.820  16.060  67.924  1.00  0.00    -0.138 C  
HETATM    5  H   UNL     1      -7.353  17.807  67.192  1.00  0.00     0.000 HD 
HETATM    6  O   UNL     1      -6.893  16.992  67.350  1.00  0.00    -0.131 OA 
BRANCH   4   7
HETATM    7  C   UNL     1      -9.030  15.883  66.990  1.00  0.00    -0.217 C  
HETATM    8  H   UNL     1      -9.914  14.406  66.027  1.00  0.00     0.000 HD 
HETATM    9  O   UNL     1      -9.167  14.516  66.603  1.00  0.00    -0.253 OA 
BRANCH   7  10
HETATM   10  C   UNL     1     -10.340  16.369  67.661  1.00  0.00    -0.284 C  
HETATM   11  H   UNL     1     -11.245  18.106  68.072  1.00  0.00     0.000 HD 
HETATM   12  O   UNL     1     -10.442  17.808  67.660  1.00  0.00    -0.363 OA 
BRANCH  10  13
HETATM   13  C   UNL     1     -10.498  15.877  69.106  1.00  0.00    -0.235 C  
HETATM   14  C   UNL     1     -11.681  14.917  69.327  1.00  0.00    -0.316 C  
HETATM   15  O   UNL     1     -10.522  16.999  69.991  1.00  0.00    -0.058 OA 
HETATM   16  O   UNL     1     -11.864  13.989  68.360  1.00  0.00    -0.332 OA 
HETATM   17  O   UNL     1     -12.372  14.951  70.341  1.00  0.00    -0.307 OA 
HETATM   18  H   UNL     1     -10.620  16.694  70.886  1.00  0.00     0.000 HD 
ENDBRANCH  10  13
ENDBRANCH   7  10
ENDBRANCH   4   7
ENDBRANCH   2   4
TORSDOF 4
ENDMDL
MODEL      249
REMARK 921   NORMALIZED FREE ENERGY PREDICTED BY IDOCK:   -2.47 KCAL/MOL
REMARK 922        TOTAL FREE ENERGY PREDICTED BY IDOCK:   -3.52 KCAL/MOL
REMARK 923 INTER-LIGAND FREE ENERGY PREDICTED BY IDOCK:   -3.64 KCAL/MOL
REMARK 924 INTRA-LIGAND FREE ENERGY PREDICTED BY IDOCK:    0.13 KCAL/MOL
REMARK 927      BINDING AFFINITY PREDICTED BY RF-SCORE:    0.00 PKD
ROOT
HETATM    1  O   UNL     1      -8.605  16.605  66.173  1.00  0.00    -0.337 OA 
HETATM    2  C   UNL     1      -8.222  16.208  67.492  1.00  0.00    -0.150 C  
HETATM    3  H   UNL     1      -8.715  17.549  66.168  1.00  0.00     0.000 HD 
ENDROOT
BRANCH   2   4
HETATM    4  C   UNL     1      -8.044  14.686  67.500  1.00  0.00    -0.184 C  
HETATM    5  H   UNL     1      -7.129  13.394  68.639  1.00  0.00     0.000 HD 
HETATM    6  O   UNL     1      -7.239  14.337  68.635  1.00  0.00    -0.110 OA 
BRANCH   4   7
HETATM    7  C   UNL     1      -9.386  13.935  67.559  1.00  0.00    -0.217 C  
HETATM    8  H   UNL     1     -11.215  14.179  66.863  1.00  0.00     0.000 HD 
HETATM    9  O   UNL     1     -10.386  14.643  66.827  1.00  0.00    -0.263 OA 
BRANCH   7  10
HETATM   10  C   UNL     1      -9.254  12.494  67.003  1.00  0.00    -0.214 C  
HETATM   11  H   UNL     1      -9.637  11.517  65.299  1.00  0.00     0.000 HD 
HETATM   12  O   UNL     1      -9.718  12.400  65.640  1.00  0.00    -0.240 OA 
BRANCH  10  13
HETATM   13  C   UNL     1     -10.005  11.452  67.840  1.00  0.00    -0.177 C  
HETATM   14  C   UNL     1     -11.537  11.613  67.834  1.00  0.00    -0.298 C  
HETATM   15  O   UNL     1      -9.458  11.414  69.159  1.00  0.00    -0.408 OA 
HETATM   16  O   UNL     1     -12.083  11.921  66.636  1.00  0.00    -0.587 OA 
HETATM   17  O   UNL     1     -12.220  11.416  68.834  1.00  0.00    -0.458 OA 
HETATM   18  H   UNL     1      -9.924  10.768  69.678  1.00  0.00     0.000 HD 
ENDBRANCH  10  13
ENDBRANCH   7  10
ENDBRANCH   4   7
ENDBRANCH   2   4
TORSDOF 4
ENDMDL
MODEL      250
REMARK 921   NORMALIZED FREE ENERGY PREDICTED BY IDOCK:   -2.46 KCAL/MOL
REMARK 922        TOTAL FREE ENERGY PREDICTED BY IDOCK:   -3.50 KCAL/MOL
REMARK 923 INTER-LIGAND FREE ENERGY PREDICTED BY IDOCK:   -3.11 KCAL/MOL
REMARK 924 INTRA-LIGAND FREE ENERGY PREDICTED BY IDOCK:   -0.39 KCAL/MOL
REMARK 927      BINDING AFFINITY PREDICTED BY RF-SCORE:    0.00 PKD
ROOT
HETATM    1  O   UNL     1      -9.811   7.081  66.269  1.00  0.00    -0.399 OA 
HETATM    2  C   UNL     1     -10.444   7.033  67.551  1.00  0.00    -0.250 C  
HETATM    3  H   UNL     1     -10.484   6.999  65.604  1.00  0.00     0.000 HD 
ENDROOT
BRANCH   2   4
HETATM    4  C   UNL     1      -9.358   7.167  68.624  1.00  0.00    -0.134 C  
HETATM    5  H   UNL     1      -7.486   7.715  68.653  1.00  0.00     0.000 HD 
HETATM    6  O   UNL     1      -8.158   7.632  67.988  1.00  0.00    -0.120 OA 
BRANCH   4   7
HETATM    7  C   UNL     1      -9.759   8.131  69.753  1.00  0.00    -0.173 C  
HETATM    8  H   UNL     1      -8.934   8.883  71.380  1.00  0.00     0.000 HD 
HETATM    9  O   UNL     1      -8.686   8.287  70.682  1.00  0.00    -0.129 OA 
BRANCH   7  10
HETATM   10  C   UNL     1     -10.170   9.518  69.195  1.00  0.00    -0.201 C  
HETATM   11  H   UNL     1      -9.349  11.328  68.956  1.00  0.00     0.000 HD 
HETATM   12  O   UNL     1      -9.097  10.477  69.298  1.00  0.00    -0.189 OA 
BRANCH  10  13
HETATM   13  C   UNL     1     -11.408  10.105  69.884  1.00  0.00    -0.275 C  
HETATM   14  C   UNL     1     -11.999  11.344  69.186  1.00  0.00    -0.328 C  
HETATM   15  O   UNL     1     -11.123  10.332  71.266  1.00  0.00    -0.228 OA 
HETATM   16  O   UNL     1     -12.042  11.284  67.836  1.00  0.00    -0.634 OA 
HETATM   17  O   UNL     1     -12.455  12.295  69.814  1.00  0.00    -0.056 OA 
HETATM   18  H   UNL     1     -11.890  10.696  71.693  1.00  0.00     0.000 HD 
ENDBRANCH  10  13
ENDBRANCH   7  10
ENDBRANCH   4   7
ENDBRANCH   2   4
TORSDOF 4
ENDMDL
MODEL      251
REMARK 921   NORMALIZED FREE ENERGY PREDICTED BY IDOCK:   -2.44 KCAL/MOL
REMARK 922        TOTAL FREE ENERGY PREDICTED BY IDOCK:   -3.48 KCAL/MOL
REMARK 923 INTER-LIGAND FREE ENERGY PREDICTED BY IDOCK:   -3.84 KCAL/MOL
REMARK 924 INTRA-LIGAND FREE ENERGY PREDICTED BY IDOCK:    0.36 KCAL/MOL
REMARK 927      BINDING AFFINITY PREDICTED BY RF-SCORE:    0.00 PKD
ROOT
HETATM    1  O   UNL     1      -6.334  20.496  71.260  1.00  0.00    -0.599 OA 
HETATM    2  C   UNL     1      -5.756  20.363  69.958  1.00  0.00    -0.347 C  
HETATM    3  H   UNL     1      -6.280  21.410  71.514  1.00  0.00     0.000 HD 
ENDROOT
BRANCH   2   4
HETATM    4  C   UNL     1      -5.843  18.889  69.546  1.00  0.00    -0.246 C  
HETATM    5  H   UNL     1      -5.533  17.175  70.425  1.00  0.00     0.000 HD 
HETATM    6  O   UNL     1      -5.479  18.088  70.680  1.00  0.00    -0.254 OA 
BRANCH   4   7
HETATM    7  C   UNL     1      -7.247  18.495  69.056  1.00  0.00    -0.240 C  
HETATM    8  H   UNL     1      -8.933  19.411  68.597  1.00  0.00     0.000 HD 
HETATM    9  O   UNL     1      -8.066  19.654  68.900  1.00  0.00    -0.330 OA 
BRANCH   7  10
HETATM   10  C   UNL     1      -7.183  17.718  67.717  1.00  0.00    -0.203 C  
HETATM   11  H   UNL     1      -7.076  18.133  65.761  1.00  0.00     0.000 HD 
HETATM   12  O   UNL     1      -7.115  18.609  66.583  1.00  0.00    -0.201 OA 
BRANCH  10  13
HETATM   13  C   UNL     1      -8.368  16.767  67.510  1.00  0.00    -0.188 C  
HETATM   14  C   UNL     1      -9.665  17.456  67.049  1.00  0.00    -0.276 C  
HETATM   15  O   UNL     1      -8.551  15.971  68.683  1.00  0.00    -0.183 OA 
HETATM   16  O   UNL     1      -9.509  18.422  66.116  1.00  0.00    -0.457 OA 
HETATM   17  O   UNL     1     -10.771  17.110  67.454  1.00  0.00    -0.323 OA 
HETATM   18  H   UNL     1      -9.285  15.382  68.555  1.00  0.00     0.000 HD 
ENDBRANCH  10  13
ENDBRANCH   7  10
ENDBRANCH   4   7
ENDBRANCH   2   4
TORSDOF 4
ENDMDL
MODEL      252
REMARK 921   NORMALIZED FREE ENERGY PREDICTED BY IDOCK:   -2.43 KCAL/MOL
REMARK 922        TOTAL FREE ENERGY PREDICTED BY IDOCK:   -3.47 KCAL/MOL
REMARK 923 INTER-LIGAND FREE ENERGY PREDICTED BY IDOCK:   -3.08 KCAL/MOL
REMARK 924 INTRA-LIGAND FREE ENERGY PREDICTED BY IDOCK:   -0.40 KCAL/MOL
REMARK 927      BINDING AFFINITY PREDICTED BY RF-SCORE:    0.00 PKD
ROOT
HETATM    1  O   UNL     1      -6.924  12.383  69.617  1.00  0.00    -0.337 OA 
HETATM    2  C   UNL     1      -6.165  13.581  69.797  1.00  0.00    -0.116 C  
HETATM    3  H   UNL     1      -6.391  11.650  69.901  1.00  0.00     0.000 HD 
ENDROOT
BRANCH   2   4
HETATM    4  C   UNL     1      -7.025  14.764  69.340  1.00  0.00    -0.167 C  
HETATM    5  H   UNL     1      -6.947  16.704  69.534  1.00  0.00     0.000 HD 
HETATM    6  O   UNL     1      -6.414  15.971  69.817  1.00  0.00    -0.193 OA 
BRANCH   4   7
HETATM    7  C   UNL     1      -7.179  14.825  67.810  1.00  0.00    -0.176 C  
HETATM    8  H   UNL     1      -6.756  13.676  66.263  1.00  0.00     0.000 HD 
HETATM    9  O   UNL     1      -6.660  13.639  67.208  1.00  0.00    -0.254 OA 
BRANCH   7  10
HETATM   10  C   UNL     1      -8.660  15.015  67.396  1.00  0.00    -0.192 C  
HETATM   11  H   UNL     1      -9.716  16.140  66.120  1.00  0.00     0.000 HD 
HETATM   12  O   UNL     1      -8.807  16.023  66.374  1.00  0.00    -0.267 OA 
BRANCH  10  13
HETATM   13  C   UNL     1      -9.574  15.385  68.571  1.00  0.00    -0.201 C  
HETATM   14  C   UNL     1     -11.059  15.035  68.360  1.00  0.00    -0.278 C  
HETATM   15  O   UNL     1      -9.373  16.757  68.918  1.00  0.00    -0.245 OA 
HETATM   16  O   UNL     1     -11.295  13.838  67.777  1.00  0.00    -0.276 OA 
HETATM   17  O   UNL     1     -11.966  15.765  68.749  1.00  0.00    -0.374 OA 
HETATM   18  H   UNL     1      -9.939  16.986  69.646  1.00  0.00     0.000 HD 
ENDBRANCH  10  13
ENDBRANCH   7  10
ENDBRANCH   4   7
ENDBRANCH   2   4
TORSDOF 4
ENDMDL
MODEL      253
REMARK 921   NORMALIZED FREE ENERGY PREDICTED BY IDOCK:   -2.43 KCAL/MOL
REMARK 922        TOTAL FREE ENERGY PREDICTED BY IDOCK:   -3.47 KCAL/MOL
REMARK 923 INTER-LIGAND FREE ENERGY PREDICTED BY IDOCK:   -3.07 KCAL/MOL
REMARK 924 INTRA-LIGAND FREE ENERGY PREDICTED BY IDOCK:   -0.39 KCAL/MOL
REMARK 927      BINDING AFFINITY PREDICTED BY RF-SCORE:    0.00 PKD
ROOT
HETATM    1  O   UNL     1      -8.104   6.552  67.629  1.00  0.00    -0.115 OA 
HETATM    2  C   UNL     1      -8.545   7.700  66.900  1.00  0.00    -0.123 C  
HETATM    3  H   UNL     1      -7.454   6.100  67.105  1.00  0.00     0.000 HD 
ENDROOT
BRANCH   2   4
HETATM    4  C   UNL     1      -9.595   8.429  67.746  1.00  0.00    -0.156 C  
HETATM    5  H   UNL     1     -11.081   7.893  68.890  1.00  0.00     0.000 HD 
HETATM    6  O   UNL     1     -10.431   7.441  68.366  1.00  0.00    -0.195 OA 
BRANCH   4   7
HETATM    7  C   UNL     1      -8.964   9.330  68.821  1.00  0.00    -0.132 C  
HETATM    8  H   UNL     1      -7.323  10.404  69.032  1.00  0.00     0.000 HD 
HETATM    9  O   UNL     1      -7.712   9.847  68.368  1.00  0.00    -0.083 OA 
BRANCH   7  10
HETATM   10  C   UNL     1      -9.905  10.502  69.201  1.00  0.00    -0.218 C  
HETATM   11  H   UNL     1     -11.292  10.906  70.587  1.00  0.00     0.000 HD 
HETATM   12  O   UNL     1     -10.715  10.188  70.354  1.00  0.00    -0.291 OA 
BRANCH  10  13
HETATM   13  C   UNL     1     -10.837  10.924  68.059  1.00  0.00    -0.245 C  
HETATM   14  C   UNL     1     -10.554  12.327  67.490  1.00  0.00    -0.218 C  
HETATM   15  O   UNL     1     -12.197  10.757  68.467  1.00  0.00    -0.824 OA 
HETATM   16  O   UNL     1      -9.247  12.637  67.336  1.00  0.00    -0.178 OA 
HETATM   17  O   UNL     1     -11.453  13.087  67.142  1.00  0.00    -0.296 OA 
HETATM   18  H   UNL     1     -12.775  11.019  67.759  1.00  0.00     0.000 HD 
ENDBRANCH  10  13
ENDBRANCH   7  10
ENDBRANCH   4   7
ENDBRANCH   2   4
TORSDOF 4
ENDMDL
MODEL      254
REMARK 921   NORMALIZED FREE ENERGY PREDICTED BY IDOCK:   -2.39 KCAL/MOL
REMARK 922        TOTAL FREE ENERGY PREDICTED BY IDOCK:   -3.42 KCAL/MOL
REMARK 923 INTER-LIGAND FREE ENERGY PREDICTED BY IDOCK:   -3.39 KCAL/MOL
REMARK 924 INTRA-LIGAND FREE ENERGY PREDICTED BY IDOCK:   -0.03 KCAL/MOL
REMARK 927      BINDING AFFINITY PREDICTED BY RF-SCORE:    0.00 PKD
ROOT
HETATM    1  O   UNL     1      -6.492  17.188  67.721  1.00  0.00    -0.138 OA 
HETATM    2  C   UNL     1      -7.164  17.031  66.468  1.00  0.00    -0.276 C  
HETATM    3  H   UNL     1      -5.672  17.639  67.563  1.00  0.00     0.000 HD 
ENDROOT
BRANCH   2   4
HETATM    4  C   UNL     1      -8.488  16.303  66.724  1.00  0.00    -0.247 C  
HETATM    5  H   UNL     1     -10.022  15.776  65.641  1.00  0.00     0.000 HD 
HETATM    6  O   UNL     1      -9.202  16.228  65.482  1.00  0.00    -0.402 OA 
BRANCH   4   7
HETATM    7  C   UNL     1      -8.283  14.890  67.296  1.00  0.00    -0.209 C  
HETATM    8  H   UNL     1      -7.300  14.059  68.792  1.00  0.00     0.000 HD 
HETATM    9  O   UNL     1      -7.427  14.932  68.438  1.00  0.00    -0.106 OA 
BRANCH   7  10
HETATM   10  C   UNL     1      -9.633  14.233  67.681  1.00  0.00    -0.219 C  
HETATM   11  H   UNL     1     -10.895  12.874  66.926  1.00  0.00     0.000 HD 
HETATM   12  O   UNL     1     -10.067  13.277  66.691  1.00  0.00    -0.255 OA 
BRANCH  10  13
HETATM   13  C   UNL     1     -10.761  15.249  67.894  1.00  0.00    -0.275 C  
HETATM   14  C   UNL     1     -11.123  15.500  69.370  1.00  0.00    -0.291 C  
HETATM   15  O   UNL     1     -11.892  14.880  67.102  1.00  0.00    -0.338 OA 
HETATM   16  O   UNL     1     -10.074  15.590  70.218  1.00  0.00    -0.270 OA 
HETATM   17  O   UNL     1     -12.281  15.667  69.741  1.00  0.00    -0.360 OA 
HETATM   18  H   UNL     1     -12.591  15.510  67.234  1.00  0.00     0.000 HD 
ENDBRANCH  10  13
ENDBRANCH   7  10
ENDBRANCH   4   7
ENDBRANCH   2   4
TORSDOF 4
ENDMDL
MODEL      255
REMARK 921   NORMALIZED FREE ENERGY PREDICTED BY IDOCK:   -2.39 KCAL/MOL
REMARK 922        TOTAL FREE ENERGY PREDICTED BY IDOCK:   -3.42 KCAL/MOL
REMARK 923 INTER-LIGAND FREE ENERGY PREDICTED BY IDOCK:   -3.01 KCAL/MOL
REMARK 924 INTRA-LIGAND FREE ENERGY PREDICTED BY IDOCK:   -0.41 KCAL/MOL
REMARK 927      BINDING AFFINITY PREDICTED BY RF-SCORE:    0.00 PKD
ROOT
HETATM    1  O   UNL     1      -5.618  10.846  64.600  1.00  0.00    -0.344 OA 
HETATM    2  C   UNL     1      -6.179  10.635  65.899  1.00  0.00    -0.134 C  
HETATM    3  H   UNL     1      -4.686  10.997  64.701  1.00  0.00     0.000 HD 
ENDROOT
BRANCH   2   4
HETATM    4  C   UNL     1      -7.683  10.391  65.735  1.00  0.00    -0.146 C  
HETATM    5  H   UNL     1      -8.795   8.943  65.048  1.00  0.00     0.000 HD 
HETATM    6  O   UNL     1      -7.863   9.094  65.149  1.00  0.00    -0.101 OA 
BRANCH   4   7
HETATM    7  C   UNL     1      -8.443  10.472  67.070  1.00  0.00    -0.128 C  
HETATM    8  H   UNL     1      -8.002  10.722  68.976  1.00  0.00     0.000 HD 
HETATM    9  O   UNL     1      -7.533  10.672  68.152  1.00  0.00    -0.087 OA 
BRANCH   7  10
HETATM   10  C   UNL     1      -9.493  11.612  67.056  1.00  0.00    -0.182 C  
HETATM   11  H   UNL     1      -9.658  13.474  66.339  1.00  0.00     0.000 HD 
HETATM   12  O   UNL     1      -9.014  12.775  66.348  1.00  0.00    -0.156 OA 
BRANCH  10  13
HETATM   13  C   UNL     1      -9.930  12.051  68.459  1.00  0.00    -0.184 C  
HETATM   14  C   UNL     1     -11.419  12.423  68.577  1.00  0.00    -0.306 C  
HETATM   15  O   UNL     1      -9.062  13.085  68.928  1.00  0.00    -0.380 OA 
HETATM   16  O   UNL     1     -12.274  11.612  67.914  1.00  0.00    -0.560 OA 
HETATM   17  O   UNL     1     -11.808  13.356  69.273  1.00  0.00    -0.299 OA 
HETATM   18  H   UNL     1      -9.332  13.356  69.798  1.00  0.00     0.000 HD 
ENDBRANCH  10  13
ENDBRANCH   7  10
ENDBRANCH   4   7
ENDBRANCH   2   4
TORSDOF 4
ENDMDL
MODEL      256
REMARK 921   NORMALIZED FREE ENERGY PREDICTED BY IDOCK:   -2.38 KCAL/MOL
REMARK 922        TOTAL FREE ENERGY PREDICTED BY IDOCK:   -3.40 KCAL/MOL
REMARK 923 INTER-LIGAND FREE ENERGY PREDICTED BY IDOCK:   -3.21 KCAL/MOL
REMARK 924 INTRA-LIGAND FREE ENERGY PREDICTED BY IDOCK:   -0.19 KCAL/MOL
REMARK 927      BINDING AFFINITY PREDICTED BY RF-SCORE:    0.00 PKD
ROOT
HETATM    1  O   UNL     1     -10.368  13.595  68.151  1.00  0.00    -0.232 OA 
HETATM    2  C   UNL     1     -10.000  12.221  68.301  1.00  0.00    -0.216 C  
HETATM    3  H   UNL     1      -9.684  14.032  67.658  1.00  0.00     0.000 HD 
ENDROOT
BRANCH   2   4
HETATM    4  C   UNL     1     -11.104  11.516  69.097  1.00  0.00    -0.259 C  
HETATM    5  H   UNL     1     -12.793  10.639  68.665  1.00  0.00     0.000 HD 
HETATM    6  O   UNL     1     -12.109  11.076  68.172  1.00  0.00    -0.610 OA 
BRANCH   4   7
HETATM    7  C   UNL     1     -10.576  10.318  69.905  1.00  0.00    -0.276 C  
HETATM    8  H   UNL     1     -10.948   9.467  71.646  1.00  0.00     0.000 HD 
HETATM    9  O   UNL     1     -11.274  10.207  71.146  1.00  0.00    -0.325 OA 
BRANCH   7  10
HETATM   10  C   UNL     1     -10.712   8.995  69.111  1.00  0.00    -0.157 C  
HETATM   11  H   UNL     1     -11.022   7.054  69.495  1.00  0.00     0.000 HD 
HETATM   12  O   UNL     1     -10.939   7.867  69.982  1.00  0.00    -0.249 OA 
BRANCH  10  13
HETATM   13  C   UNL     1      -9.491   8.687  68.234  1.00  0.00    -0.141 C  
HETATM   14  C   UNL     1      -9.595   7.376  67.434  1.00  0.00    -0.148 C  
HETATM   15  O   UNL     1      -8.305   8.759  69.027  1.00  0.00    -0.125 OA 
HETATM   16  O   UNL     1     -10.804   7.129  66.879  1.00  0.00    -0.352 OA 
HETATM   17  O   UNL     1      -8.632   6.636  67.260  1.00  0.00    -0.119 OA 
HETATM   18  H   UNL     1      -7.548   8.569  68.484  1.00  0.00     0.000 HD 
ENDBRANCH  10  13
ENDBRANCH   7  10
ENDBRANCH   4   7
ENDBRANCH   2   4
TORSDOF 4
ENDMDL
MODEL      257
REMARK 921   NORMALIZED FREE ENERGY PREDICTED BY IDOCK:   -2.38 KCAL/MOL
REMARK 922        TOTAL FREE ENERGY PREDICTED BY IDOCK:   -3.40 KCAL/MOL
REMARK 923 INTER-LIGAND FREE ENERGY PREDICTED BY IDOCK:   -2.81 KCAL/MOL
REMARK 924 INTRA-LIGAND FREE ENERGY PREDICTED BY IDOCK:   -0.59 KCAL/MOL
REMARK 927      BINDING AFFINITY PREDICTED BY RF-SCORE:    0.00 PKD
ROOT
HETATM    1  O   UNL     1     -10.743   4.756  72.430  1.00  0.00    -0.204 OA 
HETATM    2  C   UNL     1      -9.902   5.729  71.804  1.00  0.00    -0.166 C  
HETATM    3  H   UNL     1     -10.732   4.914  73.366  1.00  0.00     0.000 HD 
ENDROOT
BRANCH   2   4
HETATM    4  C   UNL     1      -9.920   5.474  70.293  1.00  0.00    -0.216 C  
HETATM    5  H   UNL     1      -9.903   3.897  69.144  1.00  0.00     0.000 HD 
HETATM    6  O   UNL     1      -9.892   4.055  70.080  1.00  0.00    -0.210 OA 
BRANCH   4   7
HETATM    7  C   UNL     1     -11.156   6.081  69.606  1.00  0.00    -0.404 C  
HETATM    8  H   UNL     1     -12.771   7.078  70.144  1.00  0.00     0.000 HD 
HETATM    9  O   UNL     1     -12.007   6.702  70.568  1.00  0.00    -0.400 OA 
BRANCH   7  10
HETATM   10  C   UNL     1     -10.752   7.113  68.523  1.00  0.00    -0.152 C  
HETATM   11  H   UNL     1     -10.782   7.264  66.527  1.00  0.00     0.000 HD 
HETATM   12  O   UNL     1     -11.030   6.631  67.191  1.00  0.00    -0.363 OA 
BRANCH  10  13
HETATM   13  C   UNL     1      -9.273   7.514  68.590  1.00  0.00    -0.144 C  
HETATM   14  C   UNL     1      -9.020   8.927  69.146  1.00  0.00    -0.140 C  
HETATM   15  O   UNL     1      -8.663   7.304  67.315  1.00  0.00    -0.120 OA 
HETATM   16  O   UNL     1      -9.780   9.278  70.208  1.00  0.00    -0.198 OA 
HETATM   17  O   UNL     1      -8.146   9.662  68.695  1.00  0.00    -0.097 OA 
HETATM   18  H   UNL     1      -7.747   7.551  67.357  1.00  0.00     0.000 HD 
ENDBRANCH  10  13
ENDBRANCH   7  10
ENDBRANCH   4   7
ENDBRANCH   2   4
TORSDOF 4
ENDMDL
MODEL      258
REMARK 921   NORMALIZED FREE ENERGY PREDICTED BY IDOCK:   -2.34 KCAL/MOL
REMARK 922        TOTAL FREE ENERGY PREDICTED BY IDOCK:   -3.36 KCAL/MOL
REMARK 923 INTER-LIGAND FREE ENERGY PREDICTED BY IDOCK:   -3.14 KCAL/MOL
REMARK 924 INTRA-LIGAND FREE ENERGY PREDICTED BY IDOCK:   -0.22 KCAL/MOL
REMARK 927      BINDING AFFINITY PREDICTED BY RF-SCORE:    0.00 PKD
ROOT
HETATM    1  O   UNL     1     -10.215   6.106  66.036  1.00  0.00    -0.404 OA 
HETATM    2  C   UNL     1     -11.025   6.473  67.156  1.00  0.00    -0.408 C  
HETATM    3  H   UNL     1     -10.753   6.148  65.256  1.00  0.00     0.000 HD 
ENDROOT
BRANCH   2   4
HETATM    4  C   UNL     1     -10.155   6.406  68.417  1.00  0.00    -0.157 C  
HETATM    5  H   UNL     1      -8.370   7.015  68.914  1.00  0.00     0.000 HD 
HETATM    6  O   UNL     1      -8.909   7.057  68.133  1.00  0.00    -0.129 OA 
BRANCH   4   7
HETATM    7  C   UNL     1     -10.826   7.067  69.633  1.00  0.00    -0.247 C  
HETATM    8  H   UNL     1     -12.535   6.915  70.607  1.00  0.00     0.000 HD 
HETATM    9  O   UNL     1     -12.120   6.506  69.856  1.00  0.00    -0.229 OA 
BRANCH   7  10
HETATM   10  C   UNL     1      -9.963   6.911  70.911  1.00  0.00    -0.189 C  
HETATM   11  H   UNL     1     -10.149   6.129  72.744  1.00  0.00     0.000 HD 
HETATM   12  O   UNL     1     -10.678   6.225  71.961  1.00  0.00    -0.215 OA 
BRANCH  10  13
HETATM   13  C   UNL     1      -9.458   8.248  71.468  1.00  0.00    -0.186 C  
HETATM   14  C   UNL     1      -8.303   8.122  72.478  1.00  0.00    -0.172 C  
HETATM   15  O   UNL     1     -10.561   8.999  71.978  1.00  0.00    -0.345 OA 
HETATM   16  O   UNL     1      -7.354   7.212  72.164  1.00  0.00    -0.079 OA 
HETATM   17  O   UNL     1      -8.219   8.841  73.470  1.00  0.00    -0.379 OA 
HETATM   18  H   UNL     1     -10.248   9.827  72.323  1.00  0.00     0.000 HD 
ENDBRANCH  10  13
ENDBRANCH   7  10
ENDBRANCH   4   7
ENDBRANCH   2   4
TORSDOF 4
ENDMDL
MODEL      259
REMARK 921   NORMALIZED FREE ENERGY PREDICTED BY IDOCK:   -2.33 KCAL/MOL
REMARK 922        TOTAL FREE ENERGY PREDICTED BY IDOCK:   -3.35 KCAL/MOL
REMARK 923 INTER-LIGAND FREE ENERGY PREDICTED BY IDOCK:   -3.43 KCAL/MOL
REMARK 924 INTRA-LIGAND FREE ENERGY PREDICTED BY IDOCK:    0.08 KCAL/MOL
REMARK 927      BINDING AFFINITY PREDICTED BY RF-SCORE:    0.00 PKD
ROOT
HETATM    1  O   UNL     1     -11.800  13.118  69.303  1.00  0.00    -0.302 OA 
HETATM    2  C   UNL     1     -11.832  13.983  68.164  1.00  0.00    -0.367 C  
HETATM    3  H   UNL     1     -12.688  13.018  69.623  1.00  0.00     0.000 HD 
ENDROOT
BRANCH   2   4
HETATM    4  C   UNL     1     -10.398  14.144  67.648  1.00  0.00    -0.241 C  
HETATM    5  H   UNL     1      -8.679  14.632  68.432  1.00  0.00     0.000 HD 
HETATM    6  O   UNL     1      -9.567  14.532  68.752  1.00  0.00    -0.210 OA 
BRANCH   4   7
HETATM    7  C   UNL     1      -9.851  12.856  67.009  1.00  0.00    -0.233 C  
HETATM    8  H   UNL     1      -8.734  11.326  67.559  1.00  0.00     0.000 HD 
HETATM    9  O   UNL     1      -9.071  12.123  67.954  1.00  0.00    -0.170 OA 
BRANCH   7  10
HETATM   10  C   UNL     1     -10.996  11.960  66.472  1.00  0.00    -0.292 C  
HETATM   11  H   UNL     1     -11.910  10.252  66.976  1.00  0.00     0.000 HD 
HETATM   12  O   UNL     1     -11.208  10.801  67.306  1.00  0.00    -0.324 OA 
BRANCH  10  13
HETATM   13  C   UNL     1     -10.765  11.481  65.033  1.00  0.00    -0.290 C  
HETATM   14  C   UNL     1      -9.547  10.555  64.857  1.00  0.00    -0.277 C  
HETATM   15  O   UNL     1     -10.736  12.607  64.154  1.00  0.00    -0.351 OA 
HETATM   16  O   UNL     1      -9.377   9.629  65.827  1.00  0.00    -0.190 OA 
HETATM   17  O   UNL     1      -8.815  10.615  63.873  1.00  0.00    -0.180 OA 
HETATM   18  H   UNL     1     -10.593  12.310  63.262  1.00  0.00     0.000 HD 
ENDBRANCH  10  13
ENDBRANCH   7  10
ENDBRANCH   4   7
ENDBRANCH   2   4
TORSDOF 4
ENDMDL
MODEL      260
REMARK 921   NORMALIZED FREE ENERGY PREDICTED BY IDOCK:   -2.33 KCAL/MOL
REMARK 922        TOTAL FREE ENERGY PREDICTED BY IDOCK:   -3.34 KCAL/MOL
REMARK 923 INTER-LIGAND FREE ENERGY PREDICTED BY IDOCK:   -3.03 KCAL/MOL
REMARK 924 INTRA-LIGAND FREE ENERGY PREDICTED BY IDOCK:   -0.31 KCAL/MOL
REMARK 927      BINDING AFFINITY PREDICTED BY RF-SCORE:    0.00 PKD
ROOT
HETATM    1  O   UNL     1     -10.678  11.321  69.782  1.00  0.00    -0.449 OA 
HETATM    2  C   UNL     1     -10.835   9.972  69.333  1.00  0.00    -0.239 C  
HETATM    3  H   UNL     1     -11.540  11.714  69.845  1.00  0.00     0.000 HD 
ENDROOT
BRANCH   2   4
HETATM    4  C   UNL     1      -9.444   9.337  69.233  1.00  0.00    -0.160 C  
HETATM    5  H   UNL     1      -7.639   9.982  68.865  1.00  0.00     0.000 HD 
HETATM    6  O   UNL     1      -8.502  10.375  68.927  1.00  0.00    -0.126 OA 
BRANCH   4   7
HETATM    7  C   UNL     1      -9.028   8.619  70.528  1.00  0.00    -0.164 C  
HETATM    8  H   UNL     1      -7.847   8.974  72.068  1.00  0.00     0.000 HD 
HETATM    9  O   UNL     1      -8.104   9.417  71.268  1.00  0.00    -0.319 OA 
BRANCH   7  10
HETATM   10  C   UNL     1     -10.257   8.289  71.413  1.00  0.00    -0.207 C  
HETATM   11  H   UNL     1     -10.873   8.628  73.288  1.00  0.00     0.000 HD 
HETATM   12  O   UNL     1     -10.120   8.830  72.744  1.00  0.00    -0.111 OA 
BRANCH  10  13
HETATM   13  C   UNL     1     -10.532   6.785  71.531  1.00  0.00    -0.213 C  
HETATM   14  C   UNL     1     -11.937   6.432  72.052  1.00  0.00    -0.326 C  
HETATM   15  O   UNL     1      -9.490   6.167  72.290  1.00  0.00    -0.151 OA 
HETATM   16  O   UNL     1     -12.946   7.184  71.555  1.00  0.00    -0.374 OA 
HETATM   17  O   UNL     1     -12.136   5.495  72.819  1.00  0.00    -0.192 OA 
HETATM   18  H   UNL     1      -9.660   5.235  72.363  1.00  0.00     0.000 HD 
ENDBRANCH  10  13
ENDBRANCH   7  10
ENDBRANCH   4   7
ENDBRANCH   2   4
TORSDOF 4
ENDMDL
MODEL      261
REMARK 921   NORMALIZED FREE ENERGY PREDICTED BY IDOCK:   -2.33 KCAL/MOL
REMARK 922        TOTAL FREE ENERGY PREDICTED BY IDOCK:   -3.34 KCAL/MOL
REMARK 923 INTER-LIGAND FREE ENERGY PREDICTED BY IDOCK:   -3.08 KCAL/MOL
REMARK 924 INTRA-LIGAND FREE ENERGY PREDICTED BY IDOCK:   -0.27 KCAL/MOL
REMARK 927      BINDING AFFINITY PREDICTED BY RF-SCORE:    0.00 PKD
ROOT
HETATM    1  O   UNL     1     -10.737  13.119  68.377  1.00  0.00    -0.239 OA 
HETATM    2  C   UNL     1     -10.114  11.831  68.379  1.00  0.00    -0.201 C  
HETATM    3  H   UNL     1     -10.066  13.772  68.218  1.00  0.00     0.000 HD 
ENDROOT
BRANCH   2   4
HETATM    4  C   UNL     1     -11.196  10.778  68.636  1.00  0.00    -0.274 C  
HETATM    5  H   UNL     1     -11.660   9.040  67.879  1.00  0.00     0.000 HD 
HETATM    6  O   UNL     1     -10.989   9.693  67.720  1.00  0.00    -0.260 OA 
BRANCH   4   7
HETATM    7  C   UNL     1     -11.178  10.252  70.081  1.00  0.00    -0.318 C  
HETATM    8  H   UNL     1     -12.423  10.167  71.609  1.00  0.00     0.000 HD 
HETATM    9  O   UNL     1     -12.434  10.492  70.716  1.00  0.00    -0.320 OA 
BRANCH   7  10
HETATM   10  C   UNL     1     -10.850   8.738  70.130  1.00  0.00    -0.227 C  
HETATM   11  H   UNL     1     -11.631   7.071  70.916  1.00  0.00     0.000 HD 
HETATM   12  O   UNL     1     -11.832   8.000  70.886  1.00  0.00    -0.288 OA 
BRANCH  10  13
HETATM   13  C   UNL     1      -9.465   8.437  70.718  1.00  0.00    -0.169 C  
HETATM   14  C   UNL     1      -9.054   6.955  70.654  1.00  0.00    -0.155 C  
HETATM   15  O   UNL     1      -9.380   8.978  72.038  1.00  0.00    -0.358 OA 
HETATM   16  O   UNL     1      -9.363   6.316  69.502  1.00  0.00    -0.141 OA 
HETATM   17  O   UNL     1      -8.434   6.407  71.561  1.00  0.00    -0.128 OA 
HETATM   18  H   UNL     1      -8.522   8.792  72.402  1.00  0.00     0.000 HD 
ENDBRANCH  10  13
ENDBRANCH   7  10
ENDBRANCH   4   7
ENDBRANCH   2   4
TORSDOF 4
ENDMDL
MODEL      262
REMARK 921   NORMALIZED FREE ENERGY PREDICTED BY IDOCK:   -2.33 KCAL/MOL
REMARK 922        TOTAL FREE ENERGY PREDICTED BY IDOCK:   -3.34 KCAL/MOL
REMARK 923 INTER-LIGAND FREE ENERGY PREDICTED BY IDOCK:   -3.08 KCAL/MOL
REMARK 924 INTRA-LIGAND FREE ENERGY PREDICTED BY IDOCK:   -0.26 KCAL/MOL
REMARK 927      BINDING AFFINITY PREDICTED BY RF-SCORE:    0.00 PKD
ROOT
HETATM    1  O   UNL     1      -7.212   7.336  67.259  1.00  0.00    -0.087 OA 
HETATM    2  C   UNL     1      -8.331   8.099  67.718  1.00  0.00    -0.128 C  
HETATM    3  H   UNL     1      -6.945   6.752  67.958  1.00  0.00     0.000 HD 
ENDROOT
BRANCH   2   4
HETATM    4  C   UNL     1      -8.761   9.042  66.589  1.00  0.00    -0.128 C  
HETATM    5  H   UNL     1     -10.418   9.394  65.621  1.00  0.00     0.000 HD 
HETATM    6  O   UNL     1     -10.151   8.810  66.320  1.00  0.00    -0.291 OA 
BRANCH   4   7
HETATM    7  C   UNL     1      -8.537  10.523  66.940  1.00  0.00    -0.125 C  
HETATM    8  H   UNL     1      -7.280  11.957  66.436  1.00  0.00     0.000 HD 
HETATM    9  O   UNL     1      -7.418  11.042  66.220  1.00  0.00    -0.144 OA 
BRANCH   7  10
HETATM   10  C   UNL     1      -9.795  11.375  66.633  1.00  0.00    -0.205 C  
HETATM   11  H   UNL     1     -10.442  12.609  65.196  1.00  0.00     0.000 HD 
HETATM   12  O   UNL     1      -9.670  12.086  65.384  1.00  0.00    -0.238 OA 
BRANCH  10  13
HETATM   13  C   UNL     1     -10.120  12.392  67.735  1.00  0.00    -0.203 C  
HETATM   14  C   UNL     1     -11.614  12.487  68.094  1.00  0.00    -0.340 C  
HETATM   15  O   UNL     1      -9.550  13.659  67.398  1.00  0.00    -0.215 OA 
HETATM   16  O   UNL     1     -12.271  11.307  68.162  1.00  0.00    -0.622 OA 
HETATM   17  O   UNL     1     -12.157  13.555  68.360  1.00  0.00    -0.352 OA 
HETATM   18  H   UNL     1      -9.751  14.289  68.080  1.00  0.00     0.000 HD 
ENDBRANCH  10  13
ENDBRANCH   7  10
ENDBRANCH   4   7
ENDBRANCH   2   4
TORSDOF 4
ENDMDL
MODEL      263
REMARK 921   NORMALIZED FREE ENERGY PREDICTED BY IDOCK:   -2.32 KCAL/MOL
REMARK 922        TOTAL FREE ENERGY PREDICTED BY IDOCK:   -3.33 KCAL/MOL
REMARK 923 INTER-LIGAND FREE ENERGY PREDICTED BY IDOCK:   -2.83 KCAL/MOL
REMARK 924 INTRA-LIGAND FREE ENERGY PREDICTED BY IDOCK:   -0.50 KCAL/MOL
REMARK 927      BINDING AFFINITY PREDICTED BY RF-SCORE:    0.00 PKD
ROOT
HETATM    1  O   UNL     1      -6.915   5.740  70.796  1.00  0.00    -0.058 OA 
HETATM    2  C   UNL     1      -8.035   6.324  70.126  1.00  0.00    -0.108 C  
HETATM    3  H   UNL     1      -6.180   5.736  70.195  1.00  0.00     0.000 HD 
ENDROOT
BRANCH   2   4
HETATM    4  C   UNL     1      -9.222   6.330  71.096  1.00  0.00    -0.153 C  
HETATM    5  H   UNL     1      -9.974   5.076  72.387  1.00  0.00     0.000 HD 
HETATM    6  O   UNL     1      -9.239   5.072  71.786  1.00  0.00    -0.138 OA 
BRANCH   4   7
HETATM    7  C   UNL     1      -9.148   7.483  72.112  1.00  0.00    -0.133 C  
HETATM    8  H   UNL     1      -7.912   8.958  72.543  1.00  0.00     0.000 HD 
HETATM    9  O   UNL     1      -7.957   8.246  71.915  1.00  0.00    -0.107 OA 
BRANCH   7  10
HETATM   10  C   UNL     1     -10.385   8.411  72.007  1.00  0.00    -0.304 C  
HETATM   11  H   UNL     1     -12.180   8.599  72.872  1.00  0.00     0.000 HD 
HETATM   12  O   UNL     1     -11.421   8.031  72.937  1.00  0.00    -0.411 OA 
BRANCH  10  13
HETATM   13  C   UNL     1     -10.993   8.451  70.599  1.00  0.00    -0.243 C  
HETATM   14  C   UNL     1     -10.697   9.742  69.814  1.00  0.00    -0.256 C  
HETATM   15  O   UNL     1     -12.390   8.157  70.674  1.00  0.00    -0.497 OA 
HETATM   16  O   UNL     1      -9.436  10.216  69.931  1.00  0.00    -0.204 OA 
HETATM   17  O   UNL     1     -11.530  10.271  69.083  1.00  0.00    -0.218 OA 
HETATM   18  H   UNL     1     -12.766   8.182  69.802  1.00  0.00     0.000 HD 
ENDBRANCH  10  13
ENDBRANCH   7  10
ENDBRANCH   4   7
ENDBRANCH   2   4
TORSDOF 4
ENDMDL
MODEL      264
REMARK 921   NORMALIZED FREE ENERGY PREDICTED BY IDOCK:   -2.32 KCAL/MOL
REMARK 922        TOTAL FREE ENERGY PREDICTED BY IDOCK:   -3.33 KCAL/MOL
REMARK 923 INTER-LIGAND FREE ENERGY PREDICTED BY IDOCK:   -3.04 KCAL/MOL
REMARK 924 INTRA-LIGAND FREE ENERGY PREDICTED BY IDOCK:   -0.29 KCAL/MOL
REMARK 927      BINDING AFFINITY PREDICTED BY RF-SCORE:    0.00 PKD
ROOT
HETATM    1  O   UNL     1      -6.950  11.005  66.833  1.00  0.00    -0.108 OA 
HETATM    2  C   UNL     1      -7.436  12.324  67.096  1.00  0.00    -0.113 C  
HETATM    3  H   UNL     1      -6.018  10.992  67.014  1.00  0.00     0.000 HD 
ENDROOT
BRANCH   2   4
HETATM    4  C   UNL     1      -8.940  12.345  66.804  1.00  0.00    -0.205 C  
HETATM    5  H   UNL     1     -10.195  11.184  65.863  1.00  0.00     0.000 HD 
HETATM    6  O   UNL     1      -9.263  11.171  66.044  1.00  0.00    -0.192 OA 
BRANCH   4   7
HETATM    7  C   UNL     1      -9.790  12.388  68.085  1.00  0.00    -0.213 C  
HETATM    8  H   UNL     1     -11.070  13.626  68.935  1.00  0.00     0.000 HD 
HETATM    9  O   UNL     1     -10.545  13.599  68.143  1.00  0.00    -0.235 OA 
BRANCH   7  10
HETATM   10  C   UNL     1     -10.748  11.173  68.172  1.00  0.00    -0.204 C  
HETATM   11  H   UNL     1     -12.705  10.804  67.969  1.00  0.00     0.000 HD 
HETATM   12  O   UNL     1     -12.117  11.549  67.916  1.00  0.00    -0.630 OA 
BRANCH  10  13
HETATM   13  C   UNL     1     -10.692  10.453  69.526  1.00  0.00    -0.251 C  
HETATM   14  C   UNL     1     -10.375   8.949  69.436  1.00  0.00    -0.213 C  
HETATM   15  O   UNL     1     -11.888  10.724  70.259  1.00  0.00    -0.288 OA 
HETATM   16  O   UNL     1      -9.419   8.610  68.542  1.00  0.00    -0.141 OA 
HETATM   17  O   UNL     1     -10.910   8.122  70.168  1.00  0.00    -0.243 OA 
HETATM   18  H   UNL     1     -11.853  10.279  71.098  1.00  0.00     0.000 HD 
ENDBRANCH  10  13
ENDBRANCH   7  10
ENDBRANCH   4   7
ENDBRANCH   2   4
TORSDOF 4
ENDMDL
MODEL      265
REMARK 921   NORMALIZED FREE ENERGY PREDICTED BY IDOCK:   -2.32 KCAL/MOL
REMARK 922        TOTAL FREE ENERGY PREDICTED BY IDOCK:   -3.33 KCAL/MOL
REMARK 923 INTER-LIGAND FREE ENERGY PREDICTED BY IDOCK:   -3.05 KCAL/MOL
REMARK 924 INTRA-LIGAND FREE ENERGY PREDICTED BY IDOCK:   -0.28 KCAL/MOL
REMARK 927      BINDING AFFINITY PREDICTED BY RF-SCORE:    0.00 PKD
ROOT
HETATM    1  O   UNL     1     -11.288  12.141  70.255  1.00  0.00    -0.483 OA 
HETATM    2  C   UNL     1     -11.306  12.438  68.856  1.00  0.00    -0.294 C  
HETATM    3  H   UNL     1     -12.107  11.716  70.478  1.00  0.00     0.000 HD 
ENDROOT
BRANCH   2   4
HETATM    4  C   UNL     1      -9.983  13.123  68.497  1.00  0.00    -0.180 C  
HETATM    5  H   UNL     1      -8.237  12.535  67.853  1.00  0.00     0.000 HD 
HETATM    6  O   UNL     1      -9.057  12.110  68.075  1.00  0.00    -0.177 OA 
BRANCH   4   7
HETATM    7  C   UNL     1     -10.145  14.177  67.388  1.00  0.00    -0.240 C  
HETATM    8  H   UNL     1     -11.622  15.174  66.541  1.00  0.00     0.000 HD 
HETATM    9  O   UNL     1     -11.521  14.523  67.226  1.00  0.00    -0.335 OA 
BRANCH   7  10
HETATM   10  C   UNL     1      -9.320  15.453  67.694  1.00  0.00    -0.203 C  
HETATM   11  H   UNL     1      -9.521  17.436  67.504  1.00  0.00     0.000 HD 
HETATM   12  O   UNL     1     -10.027  16.653  67.316  1.00  0.00    -0.258 OA 
BRANCH  10  13
HETATM   13  C   UNL     1      -7.949  15.466  67.007  1.00  0.00    -0.224 C  
HETATM   14  C   UNL     1      -6.751  15.439  67.974  1.00  0.00    -0.144 C  
HETATM   15  O   UNL     1      -7.889  16.554  66.082  1.00  0.00    -0.291 OA 
HETATM   16  O   UNL     1      -6.877  14.607  69.032  1.00  0.00    -0.097 OA 
HETATM   17  O   UNL     1      -5.726  16.083  67.766  1.00  0.00    -0.122 OA 
HETATM   18  H   UNL     1      -7.040  16.562  65.656  1.00  0.00     0.000 HD 
ENDBRANCH  10  13
ENDBRANCH   7  10
ENDBRANCH   4   7
ENDBRANCH   2   4
TORSDOF 4
ENDMDL
MODEL      266
REMARK 921   NORMALIZED FREE ENERGY PREDICTED BY IDOCK:   -2.32 KCAL/MOL
REMARK 922        TOTAL FREE ENERGY PREDICTED BY IDOCK:   -3.33 KCAL/MOL
REMARK 923 INTER-LIGAND FREE ENERGY PREDICTED BY IDOCK:   -3.07 KCAL/MOL
REMARK 924 INTRA-LIGAND FREE ENERGY PREDICTED BY IDOCK:   -0.25 KCAL/MOL
REMARK 927      BINDING AFFINITY PREDICTED BY RF-SCORE:    0.00 PKD
ROOT
HETATM    1  O   UNL     1     -12.609   5.128  72.964  1.00  0.00    -0.358 OA 
HETATM    2  C   UNL     1     -11.613   5.850  72.234  1.00  0.00    -0.282 C  
HETATM    3  H   UNL     1     -12.167   4.510  73.534  1.00  0.00     0.000 HD 
ENDROOT
BRANCH   2   4
HETATM    4  C   UNL     1     -12.326   6.849  71.315  1.00  0.00    -0.375 C  
HETATM    5  H   UNL     1     -14.001   7.847  71.373  1.00  0.00     0.000 HD 
HETATM    6  O   UNL     1     -13.559   7.229  71.942  1.00  0.00    -0.305 OA 
BRANCH   4   7
HETATM    7  C   UNL     1     -11.477   8.099  71.030  1.00  0.00    -0.279 C  
HETATM    8  H   UNL     1     -10.494   9.453  72.075  1.00  0.00     0.000 HD 
HETATM    9  O   UNL     1     -11.018   8.681  72.251  1.00  0.00    -0.354 OA 
BRANCH   7  10
HETATM   10  C   UNL     1     -10.264   7.766  70.124  1.00  0.00    -0.205 C  
HETATM   11  H   UNL     1      -8.276   7.603  70.300  1.00  0.00     0.000 HD 
HETATM   12  O   UNL     1      -9.020   7.807  70.856  1.00  0.00    -0.144 OA 
BRANCH  10  13
HETATM   13  C   UNL     1     -10.139   8.699  68.913  1.00  0.00    -0.202 C  
HETATM   14  C   UNL     1      -8.930   8.407  68.005  1.00  0.00    -0.138 C  
HETATM   15  O   UNL     1     -10.188  10.058  69.350  1.00  0.00    -0.194 OA 
HETATM   16  O   UNL     1      -8.678   7.098  67.777  1.00  0.00    -0.125 OA 
HETATM   17  O   UNL     1      -8.277   9.301  67.476  1.00  0.00    -0.113 OA 
HETATM   18  H   UNL     1     -10.111  10.636  68.599  1.00  0.00     0.000 HD 
ENDBRANCH  10  13
ENDBRANCH   7  10
ENDBRANCH   4   7
ENDBRANCH   2   4
TORSDOF 4
ENDMDL
MODEL      267
REMARK 921   NORMALIZED FREE ENERGY PREDICTED BY IDOCK:   -2.31 KCAL/MOL
REMARK 922        TOTAL FREE ENERGY PREDICTED BY IDOCK:   -3.33 KCAL/MOL
REMARK 923 INTER-LIGAND FREE ENERGY PREDICTED BY IDOCK:   -3.02 KCAL/MOL
REMARK 924 INTRA-LIGAND FREE ENERGY PREDICTED BY IDOCK:   -0.31 KCAL/MOL
REMARK 927      BINDING AFFINITY PREDICTED BY RF-SCORE:    0.00 PKD
ROOT
HETATM    1  O   UNL     1     -11.530   6.491  68.484  1.00  0.00    -0.575 OA 
HETATM    2  C   UNL     1     -10.892   7.209  67.424  1.00  0.00    -0.276 C  
HETATM    3  H   UNL     1     -11.841   5.664  68.135  1.00  0.00     0.000 HD 
ENDROOT
BRANCH   2   4
HETATM    4  C   UNL     1     -10.388   8.543  67.988  1.00  0.00    -0.217 C  
HETATM    5  H   UNL     1     -10.378   9.402  69.739  1.00  0.00     0.000 HD 
HETATM    6  O   UNL     1     -10.690   8.576  69.390  1.00  0.00    -0.222 OA 
BRANCH   4   7
HETATM    7  C   UNL     1      -8.878   8.742  67.772  1.00  0.00    -0.136 C  
HETATM    8  H   UNL     1      -7.366   7.699  67.054  1.00  0.00     0.000 HD 
HETATM    9  O   UNL     1      -8.299   7.576  67.187  1.00  0.00    -0.119 OA 
BRANCH   7  10
HETATM   10  C   UNL     1      -8.592   9.973  66.875  1.00  0.00    -0.125 C  
HETATM   11  H   UNL     1      -7.325  11.522  66.836  1.00  0.00     0.000 HD 
HETATM   12  O   UNL     1      -7.501  10.768  67.386  1.00  0.00    -0.094 OA 
BRANCH  10  13
HETATM   13  C   UNL     1      -9.810  10.888  66.695  1.00  0.00    -0.198 C  
HETATM   14  C   UNL     1     -10.079  11.311  65.239  1.00  0.00    -0.267 C  
HETATM   15  O   UNL     1      -9.706  12.001  67.585  1.00  0.00    -0.181 OA 
HETATM   16  O   UNL     1      -9.924  10.338  64.313  1.00  0.00    -0.328 OA 
HETATM   17  O   UNL     1     -10.467  12.439  64.946  1.00  0.00    -0.281 OA 
HETATM   18  H   UNL     1     -10.461  12.567  67.474  1.00  0.00     0.000 HD 
ENDBRANCH  10  13
ENDBRANCH   7  10
ENDBRANCH   4   7
ENDBRANCH   2   4
TORSDOF 4
ENDMDL
MODEL      268
REMARK 921   NORMALIZED FREE ENERGY PREDICTED BY IDOCK:   -2.31 KCAL/MOL
REMARK 922        TOTAL FREE ENERGY PREDICTED BY IDOCK:   -3.32 KCAL/MOL
REMARK 923 INTER-LIGAND FREE ENERGY PREDICTED BY IDOCK:   -2.93 KCAL/MOL
REMARK 924 INTRA-LIGAND FREE ENERGY PREDICTED BY IDOCK:   -0.39 KCAL/MOL
REMARK 927      BINDING AFFINITY PREDICTED BY RF-SCORE:    0.00 PKD
ROOT
HETATM    1  O   UNL     1     -11.347  10.480  68.650  1.00  0.00    -0.290 OA 
HETATM    2  C   UNL     1      -9.996  10.177  69.011  1.00  0.00    -0.208 C  
HETATM    3  H   UNL     1     -11.661  11.164  69.229  1.00  0.00     0.000 HD 
ENDROOT
BRANCH   2   4
HETATM    4  C   UNL     1      -9.489   9.073  68.076  1.00  0.00    -0.142 C  
HETATM    5  H   UNL     1     -10.310   7.650  67.025  1.00  0.00     0.000 HD 
HETATM    6  O   UNL     1     -10.624   8.334  67.604  1.00  0.00    -0.241 OA 
BRANCH   4   7
HETATM    7  C   UNL     1      -8.693   9.629  66.883  1.00  0.00    -0.131 C  
HETATM    8  H   UNL     1      -6.877   9.439  66.137  1.00  0.00     0.000 HD 
HETATM    9  O   UNL     1      -7.369   9.096  66.875  1.00  0.00    -0.088 OA 
BRANCH   7  10
HETATM   10  C   UNL     1      -9.392   9.310  65.537  1.00  0.00    -0.238 C  
HETATM   11  H   UNL     1      -9.156   8.048  64.001  1.00  0.00     0.000 HD 
HETATM   12  O   UNL     1      -8.728   8.244  64.827  1.00  0.00    -0.080 OA 
BRANCH  10  13
HETATM   13  C   UNL     1      -9.489  10.523  64.603  1.00  0.00    -0.263 C  
HETATM   14  C   UNL     1     -10.746  11.388  64.810  1.00  0.00    -0.298 C  
HETATM   15  O   UNL     1      -9.328  10.096  63.249  1.00  0.00    -0.275 OA 
HETATM   16  O   UNL     1     -11.099  11.600  66.098  1.00  0.00    -0.301 OA 
HETATM   17  O   UNL     1     -11.350  11.901  63.872  1.00  0.00    -0.372 OA 
HETATM   18  H   UNL     1      -9.388  10.847  62.670  1.00  0.00     0.000 HD 
ENDBRANCH  10  13
ENDBRANCH   7  10
ENDBRANCH   4   7
ENDBRANCH   2   4
TORSDOF 4
ENDMDL
MODEL      269
REMARK 921   NORMALIZED FREE ENERGY PREDICTED BY IDOCK:   -2.30 KCAL/MOL
REMARK 922        TOTAL FREE ENERGY PREDICTED BY IDOCK:   -3.31 KCAL/MOL
REMARK 923 INTER-LIGAND FREE ENERGY PREDICTED BY IDOCK:   -3.05 KCAL/MOL
REMARK 924 INTRA-LIGAND FREE ENERGY PREDICTED BY IDOCK:   -0.26 KCAL/MOL
REMARK 927      BINDING AFFINITY PREDICTED BY RF-SCORE:    0.00 PKD
ROOT
HETATM    1  O   UNL     1     -10.634   6.091  66.040  1.00  0.00    -0.440 OA 
HETATM    2  C   UNL     1     -11.144   6.677  67.241  1.00  0.00    -0.345 C  
HETATM    3  H   UNL     1     -11.336   5.603  65.628  1.00  0.00     0.000 HD 
ENDROOT
BRANCH   2   4
HETATM    4  C   UNL     1     -10.010   7.465  67.906  1.00  0.00    -0.165 C  
HETATM    5  H   UNL     1      -8.061   7.378  67.901  1.00  0.00     0.000 HD 
HETATM    6  O   UNL     1      -8.763   6.889  67.489  1.00  0.00    -0.120 OA 
BRANCH   4   7
HETATM    7  C   UNL     1     -10.041   8.961  67.548  1.00  0.00    -0.227 C  
HETATM    8  H   UNL     1     -10.310  10.672  68.492  1.00  0.00     0.000 HD 
HETATM    9  O   UNL     1     -10.291   9.747  68.713  1.00  0.00    -0.192 OA 
BRANCH   7  10
HETATM   10  C   UNL     1      -8.714   9.413  66.888  1.00  0.00    -0.127 C  
HETATM   11  H   UNL     1      -7.371  10.882  67.104  1.00  0.00     0.000 HD 
HETATM   12  O   UNL     1      -8.185  10.604  67.508  1.00  0.00    -0.111 OA 
BRANCH  10  13
HETATM   13  C   UNL     1      -8.845   9.674  65.382  1.00  0.00    -0.171 C  
HETATM   14  C   UNL     1      -9.885  10.747  65.009  1.00  0.00    -0.288 C  
HETATM   15  O   UNL     1      -9.058   8.436  64.700  1.00  0.00    -0.376 OA 
HETATM   16  O   UNL     1      -9.903  11.840  65.805  1.00  0.00    -0.228 OA 
HETATM   17  O   UNL     1     -10.606  10.645  64.020  1.00  0.00    -0.258 OA 
HETATM   18  H   UNL     1      -9.139   8.598  63.767  1.00  0.00     0.000 HD 
ENDBRANCH  10  13
ENDBRANCH   7  10
ENDBRANCH   4   7
ENDBRANCH   2   4
TORSDOF 4
ENDMDL
MODEL      270
REMARK 921   NORMALIZED FREE ENERGY PREDICTED BY IDOCK:   -2.30 KCAL/MOL
REMARK 922        TOTAL FREE ENERGY PREDICTED BY IDOCK:   -3.31 KCAL/MOL
REMARK 923 INTER-LIGAND FREE ENERGY PREDICTED BY IDOCK:   -3.04 KCAL/MOL
REMARK 924 INTRA-LIGAND FREE ENERGY PREDICTED BY IDOCK:   -0.26 KCAL/MOL
REMARK 927      BINDING AFFINITY PREDICTED BY RF-SCORE:    0.00 PKD
ROOT
HETATM    1  O   UNL     1     -10.705   5.141  66.680  1.00  0.00    -0.368 OA 
HETATM    2  C   UNL     1      -9.615   4.936  67.584  1.00  0.00    -0.151 C  
HETATM    3  H   UNL     1     -10.407   4.927  65.804  1.00  0.00     0.000 HD 
ENDROOT
BRANCH   2   4
HETATM    4  C   UNL     1     -10.096   5.283  68.997  1.00  0.00    -0.202 C  
HETATM    5  H   UNL     1     -10.119   4.376  70.724  1.00  0.00     0.000 HD 
HETATM    6  O   UNL     1      -9.821   4.161  69.849  1.00  0.00    -0.215 OA 
BRANCH   4   7
HETATM    7  C   UNL     1      -9.419   6.545  69.559  1.00  0.00    -0.146 C  
HETATM    8  H   UNL     1      -7.716   7.509  69.310  1.00  0.00     0.000 HD 
HETATM    9  O   UNL     1      -8.134   6.729  68.963  1.00  0.00    -0.114 OA 
BRANCH   7  10
HETATM   10  C   UNL     1     -10.288   7.806  69.324  1.00  0.00    -0.219 C  
HETATM   11  H   UNL     1     -10.321   9.381  68.088  1.00  0.00     0.000 HD 
HETATM   12  O   UNL     1      -9.788   8.607  68.232  1.00  0.00    -0.156 OA 
BRANCH  10  13
HETATM   13  C   UNL     1     -10.403   8.702  70.564  1.00  0.00    -0.202 C  
HETATM   14  C   UNL     1     -11.839   8.882  71.090  1.00  0.00    -0.298 C  
HETATM   15  O   UNL     1      -9.744   9.946  70.317  1.00  0.00    -0.320 OA 
HETATM   16  O   UNL     1     -12.601   7.765  71.091  1.00  0.00    -0.284 OA 
HETATM   17  O   UNL     1     -12.244   9.952  71.535  1.00  0.00    -0.369 OA 
HETATM   18  H   UNL     1      -9.814  10.500  71.085  1.00  0.00     0.000 HD 
ENDBRANCH  10  13
ENDBRANCH   7  10
ENDBRANCH   4   7
ENDBRANCH   2   4
TORSDOF 4
ENDMDL
MODEL      271
REMARK 921   NORMALIZED FREE ENERGY PREDICTED BY IDOCK:   -2.28 KCAL/MOL
REMARK 922        TOTAL FREE ENERGY PREDICTED BY IDOCK:   -3.28 KCAL/MOL
REMARK 923 INTER-LIGAND FREE ENERGY PREDICTED BY IDOCK:   -2.83 KCAL/MOL
REMARK 924 INTRA-LIGAND FREE ENERGY PREDICTED BY IDOCK:   -0.46 KCAL/MOL
REMARK 927      BINDING AFFINITY PREDICTED BY RF-SCORE:    0.00 PKD
ROOT
HETATM    1  O   UNL     1      -7.758   8.996  72.227  1.00  0.00    -0.346 OA 
HETATM    2  C   UNL     1      -8.450   9.012  70.976  1.00  0.00    -0.203 C  
HETATM    3  H   UNL     1      -7.290   9.817  72.317  1.00  0.00     0.000 HD 
ENDROOT
BRANCH   2   4
HETATM    4  C   UNL     1      -9.206   7.687  70.831  1.00  0.00    -0.149 C  
HETATM    5  H   UNL     1     -10.818   6.907  71.606  1.00  0.00     0.000 HD 
HETATM    6  O   UNL     1     -10.350   7.729  71.696  1.00  0.00    -0.194 OA 
BRANCH   4   7
HETATM    7  C   UNL     1      -9.653   7.417  69.384  1.00  0.00    -0.155 C  
HETATM    8  H   UNL     1     -11.162   6.531  68.475  1.00  0.00     0.000 HD 
HETATM    9  O   UNL     1     -10.886   6.697  69.369  1.00  0.00    -0.244 OA 
BRANCH   7  10
HETATM   10  C   UNL     1      -9.808   8.735  68.584  1.00  0.00    -0.168 C  
HETATM   11  H   UNL     1     -11.225  10.106  68.236  1.00  0.00     0.000 HD 
HETATM   12  O   UNL     1     -11.129   9.297  68.727  1.00  0.00    -0.066 OA 
BRANCH  10  13
HETATM   13  C   UNL     1      -9.515   8.572  67.087  1.00  0.00    -0.162 C  
HETATM   14  C   UNL     1      -9.514   9.890  66.291  1.00  0.00    -0.193 C  
HETATM   15  O   UNL     1     -10.395   7.592  66.532  1.00  0.00    -0.474 OA 
HETATM   16  O   UNL     1      -8.917  10.937  66.903  1.00  0.00    -0.148 OA 
HETATM   17  O   UNL     1      -9.969   9.969  65.153  1.00  0.00    -0.323 OA 
HETATM   18  H   UNL     1     -10.213   7.490  65.605  1.00  0.00     0.000 HD 
ENDBRANCH  10  13
ENDBRANCH   7  10
ENDBRANCH   4   7
ENDBRANCH   2   4
TORSDOF 4
ENDMDL
MODEL      272
REMARK 921   NORMALIZED FREE ENERGY PREDICTED BY IDOCK:   -2.26 KCAL/MOL
REMARK 922        TOTAL FREE ENERGY PREDICTED BY IDOCK:   -3.26 KCAL/MOL
REMARK 923 INTER-LIGAND FREE ENERGY PREDICTED BY IDOCK:   -2.88 KCAL/MOL
REMARK 924 INTRA-LIGAND FREE ENERGY PREDICTED BY IDOCK:   -0.38 KCAL/MOL
REMARK 927      BINDING AFFINITY PREDICTED BY RF-SCORE:    0.00 PKD
ROOT
HETATM    1  O   UNL     1      -6.140  10.160  66.362  1.00  0.00    -0.062 OA 
HETATM    2  C   UNL     1      -7.312  10.577  67.068  1.00  0.00    -0.099 C  
HETATM    3  H   UNL     1      -5.423  10.107  66.983  1.00  0.00     0.000 HD 
ENDROOT
BRANCH   2   4
HETATM    4  C   UNL     1      -8.468  10.661  66.066  1.00  0.00    -0.165 C  
HETATM    5  H   UNL     1      -9.147   9.538  64.622  1.00  0.00     0.000 HD 
HETATM    6  O   UNL     1      -8.431   9.486  65.243  1.00  0.00    -0.133 OA 
BRANCH   4   7
HETATM    7  C   UNL     1      -9.839  10.773  66.755  1.00  0.00    -0.193 C  
HETATM    8  H   UNL     1     -11.733  10.849  66.209  1.00  0.00     0.000 HD 
HETATM    9  O   UNL     1     -10.886  10.779  65.784  1.00  0.00    -0.140 OA 
BRANCH   7  10
HETATM   10  C   UNL     1     -10.066   9.615  67.759  1.00  0.00    -0.187 C  
HETATM   11  H   UNL     1     -10.929   7.809  67.777  1.00  0.00     0.000 HD 
HETATM   12  O   UNL     1     -10.790   8.519  67.161  1.00  0.00    -0.216 OA 
BRANCH  10  13
HETATM   13  C   UNL     1     -10.814  10.050  69.026  1.00  0.00    -0.222 C  
HETATM   14  C   UNL     1     -10.839   8.994  70.146  1.00  0.00    -0.237 C  
HETATM   15  O   UNL     1     -12.119  10.514  68.674  1.00  0.00    -0.775 OA 
HETATM   16  O   UNL     1      -9.679   8.326  70.340  1.00  0.00    -0.167 OA 
HETATM   17  O   UNL     1     -11.825   8.813  70.854  1.00  0.00    -0.282 OA 
HETATM   18  H   UNL     1     -12.582  10.784  69.458  1.00  0.00     0.000 HD 
ENDBRANCH  10  13
ENDBRANCH   7  10
ENDBRANCH   4   7
ENDBRANCH   2   4
TORSDOF 4
ENDMDL
MODEL      273
REMARK 921   NORMALIZED FREE ENERGY PREDICTED BY IDOCK:   -2.25 KCAL/MOL
REMARK 922        TOTAL FREE ENERGY PREDICTED BY IDOCK:   -3.24 KCAL/MOL
REMARK 923 INTER-LIGAND FREE ENERGY PREDICTED BY IDOCK:   -3.02 KCAL/MOL
REMARK 924 INTRA-LIGAND FREE ENERGY PREDICTED BY IDOCK:   -0.22 KCAL/MOL
REMARK 927      BINDING AFFINITY PREDICTED BY RF-SCORE:    0.00 PKD
ROOT
HETATM    1  O   UNL     1      -6.178  12.502  66.751  1.00  0.00    -0.491 OA 
HETATM    2  C   UNL     1      -6.440  11.208  67.301  1.00  0.00    -0.079 C  
HETATM    3  H   UNL     1      -5.237  12.633  66.739  1.00  0.00     0.000 HD 
ENDROOT
BRANCH   2   4
HETATM    4  C   UNL     1      -7.957  10.996  67.320  1.00  0.00    -0.126 C  
HETATM    5  H   UNL     1      -9.411  11.199  66.034  1.00  0.00     0.000 HD 
HETATM    6  O   UNL     1      -8.470  11.331  66.022  1.00  0.00    -0.167 OA 
BRANCH   4   7
HETATM    7  C   UNL     1      -8.347   9.552  67.680  1.00  0.00    -0.125 C  
HETATM    8  H   UNL     1      -7.948   8.256  69.113  1.00  0.00     0.000 HD 
HETATM    9  O   UNL     1      -7.707   9.148  68.890  1.00  0.00    -0.081 OA 
BRANCH   7  10
HETATM   10  C   UNL     1      -9.883   9.399  67.827  1.00  0.00    -0.170 C  
HETATM   11  H   UNL     1     -11.440   8.858  66.690  1.00  0.00     0.000 HD 
HETATM   12  O   UNL     1     -10.498   8.952  66.600  1.00  0.00    -0.249 OA 
BRANCH  10  13
HETATM   13  C   UNL     1     -10.580  10.692  68.270  1.00  0.00    -0.194 C  
HETATM   14  C   UNL     1     -11.229  10.620  69.664  1.00  0.00    -0.289 C  
HETATM   15  O   UNL     1     -11.493  11.114  67.255  1.00  0.00    -0.473 OA 
HETATM   16  O   UNL     1     -10.505   9.981  70.610  1.00  0.00    -0.276 OA 
HETATM   17  O   UNL     1     -12.303  11.159  69.915  1.00  0.00    -0.303 OA 
HETATM   18  H   UNL     1     -11.924  11.915  67.530  1.00  0.00     0.000 HD 
ENDBRANCH  10  13
ENDBRANCH   7  10
ENDBRANCH   4   7
ENDBRANCH   2   4
TORSDOF 4
ENDMDL
MODEL      274
REMARK 921   NORMALIZED FREE ENERGY PREDICTED BY IDOCK:   -2.25 KCAL/MOL
REMARK 922        TOTAL FREE ENERGY PREDICTED BY IDOCK:   -3.24 KCAL/MOL
REMARK 923 INTER-LIGAND FREE ENERGY PREDICTED BY IDOCK:   -2.94 KCAL/MOL
REMARK 924 INTRA-LIGAND FREE ENERGY PREDICTED BY IDOCK:   -0.30 KCAL/MOL
REMARK 927      BINDING AFFINITY PREDICTED BY RF-SCORE:    0.00 PKD
ROOT
HETATM    1  O   UNL     1      -9.432  18.460  68.815  1.00  0.00    -0.329 OA 
HETATM    2  C   UNL     1      -8.193  17.790  68.564  1.00  0.00    -0.296 C  
HETATM    3  H   UNL     1      -9.281  19.395  68.747  1.00  0.00     0.000 HD 
ENDROOT
BRANCH   2   4
HETATM    4  C   UNL     1      -8.437  16.281  68.672  1.00  0.00    -0.221 C  
HETATM    5  H   UNL     1      -9.697  15.135  69.624  1.00  0.00     0.000 HD 
HETATM    6  O   UNL     1      -9.547  16.070  69.557  1.00  0.00    -0.254 OA 
BRANCH   4   7
HETATM    7  C   UNL     1      -8.724  15.629  67.308  1.00  0.00    -0.194 C  
HETATM    8  H   UNL     1      -8.371  16.028  65.409  1.00  0.00     0.000 HD 
HETATM    9  O   UNL     1      -8.194  16.430  66.251  1.00  0.00    -0.308 OA 
BRANCH   7  10
HETATM   10  C   UNL     1      -8.131  14.200  67.227  1.00  0.00    -0.168 C  
HETATM   11  H   UNL     1      -8.787  12.332  66.924  1.00  0.00     0.000 HD 
HETATM   12  O   UNL     1      -9.150  13.210  66.974  1.00  0.00    -0.217 OA 
BRANCH  10  13
HETATM   13  C   UNL     1      -7.365  13.789  68.491  1.00  0.00    -0.117 C  
HETATM   14  C   UNL     1      -5.843  13.655  68.299  1.00  0.00    -0.103 C  
HETATM   15  O   UNL     1      -7.958  12.614  69.047  1.00  0.00    -0.328 OA 
HETATM   16  O   UNL     1      -5.267  14.614  67.539  1.00  0.00    -0.335 OA 
HETATM   17  O   UNL     1      -5.189  12.773  68.847  1.00  0.00    -0.066 OA 
HETATM   18  H   UNL     1      -7.484  12.360  69.831  1.00  0.00     0.000 HD 
ENDBRANCH  10  13
ENDBRANCH   7  10
ENDBRANCH   4   7
ENDBRANCH   2   4
TORSDOF 4
ENDMDL
MODEL      275
REMARK 921   NORMALIZED FREE ENERGY PREDICTED BY IDOCK:   -2.24 KCAL/MOL
REMARK 922        TOTAL FREE ENERGY PREDICTED BY IDOCK:   -3.23 KCAL/MOL
REMARK 923 INTER-LIGAND FREE ENERGY PREDICTED BY IDOCK:   -2.53 KCAL/MOL
REMARK 924 INTRA-LIGAND FREE ENERGY PREDICTED BY IDOCK:   -0.70 KCAL/MOL
REMARK 927      BINDING AFFINITY PREDICTED BY RF-SCORE:    0.00 PKD
ROOT
HETATM    1  O   UNL     1      -9.158   2.690  68.032  1.00  0.00    -0.143 OA 
HETATM    2  C   UNL     1      -8.796   2.768  66.650  1.00  0.00    -0.144 C  
HETATM    3  H   UNL     1      -9.615   1.870  68.172  1.00  0.00     0.000 HD 
ENDROOT
BRANCH   2   4
HETATM    4  C   UNL     1      -8.059   4.092  66.424  1.00  0.00    -0.098 C  
HETATM    5  H   UNL     1      -6.657   4.721  65.221  1.00  0.00     0.000 HD 
HETATM    6  O   UNL     1      -7.114   3.900  65.361  1.00  0.00    -0.060 OA 
BRANCH   4   7
HETATM    7  C   UNL     1      -9.013   5.247  66.074  1.00  0.00    -0.144 C  
HETATM    8  H   UNL     1     -10.874   5.452  65.455  1.00  0.00     0.000 HD 
HETATM    9  O   UNL     1     -10.285   4.739  65.671  1.00  0.00    -0.215 OA 
BRANCH   7  10
HETATM   10  C   UNL     1      -9.194   6.215  67.270  1.00  0.00    -0.117 C  
HETATM   11  H   UNL     1      -9.639   6.105  69.219  1.00  0.00     0.000 HD 
HETATM   12  O   UNL     1      -9.528   5.511  68.485  1.00  0.00    -0.115 OA 
BRANCH  10  13
HETATM   13  C   UNL     1     -10.264   7.286  67.026  1.00  0.00    -0.278 C  
HETATM   14  C   UNL     1      -9.998   8.627  67.733  1.00  0.00    -0.190 C  
HETATM   15  O   UNL     1     -11.554   6.749  67.326  1.00  0.00    -0.726 OA 
HETATM   16  O   UNL     1      -8.715   9.053  67.707  1.00  0.00    -0.124 OA 
HETATM   17  O   UNL     1     -10.899   9.295  68.234  1.00  0.00    -0.179 OA 
HETATM   18  H   UNL     1     -12.217   7.412  67.174  1.00  0.00     0.000 HD 
ENDBRANCH  10  13
ENDBRANCH   7  10
ENDBRANCH   4   7
ENDBRANCH   2   4
TORSDOF 4
ENDMDL
MODEL      276
REMARK 921   NORMALIZED FREE ENERGY PREDICTED BY IDOCK:   -2.20 KCAL/MOL
REMARK 922        TOTAL FREE ENERGY PREDICTED BY IDOCK:   -3.19 KCAL/MOL
REMARK 923 INTER-LIGAND FREE ENERGY PREDICTED BY IDOCK:   -3.15 KCAL/MOL
REMARK 924 INTRA-LIGAND FREE ENERGY PREDICTED BY IDOCK:   -0.04 KCAL/MOL
REMARK 927      BINDING AFFINITY PREDICTED BY RF-SCORE:    0.00 PKD
ROOT
HETATM    1  O   UNL     1     -11.677  12.014  70.395  1.00  0.00    -0.506 OA 
HETATM    2  C   UNL     1     -11.937  11.169  69.270  1.00  0.00    -0.351 C  
HETATM    3  H   UNL     1     -11.788  11.498  71.184  1.00  0.00     0.000 HD 
ENDROOT
BRANCH   2   4
HETATM    4  C   UNL     1     -11.757  12.002  67.996  1.00  0.00    -0.331 C  
HETATM    5  H   UNL     1     -11.880  13.895  67.538  1.00  0.00     0.000 HD 
HETATM    6  O   UNL     1     -11.991  13.379  68.327  1.00  0.00    -0.345 OA 
BRANCH   4   7
HETATM    7  C   UNL     1     -10.356  11.844  67.380  1.00  0.00    -0.207 C  
HETATM    8  H   UNL     1      -8.704  12.913  67.240  1.00  0.00     0.000 HD 
HETATM    9  O   UNL     1      -9.570  13.011  67.621  1.00  0.00    -0.195 OA 
BRANCH   7  10
HETATM   10  C   UNL     1      -9.626  10.598  67.945  1.00  0.00    -0.162 C  
HETATM   11  H   UNL     1      -7.895  10.175  68.857  1.00  0.00     0.000 HD 
HETATM   12  O   UNL     1      -8.343  10.939  68.511  1.00  0.00    -0.127 OA 
BRANCH  10  13
HETATM   13  C   UNL     1      -9.413   9.496  66.900  1.00  0.00    -0.158 C  
HETATM   14  C   UNL     1      -8.792   9.983  65.577  1.00  0.00    -0.165 C  
HETATM   15  O   UNL     1     -10.634   8.779  66.707  1.00  0.00    -0.258 OA 
HETATM   16  O   UNL     1      -7.793  10.885  65.703  1.00  0.00    -0.118 OA 
HETATM   17  O   UNL     1      -9.139   9.537  64.487  1.00  0.00    -0.230 OA 
HETATM   18  H   UNL     1     -10.501   8.095  66.060  1.00  0.00     0.000 HD 
ENDBRANCH  10  13
ENDBRANCH   7  10
ENDBRANCH   4   7
ENDBRANCH   2   4
TORSDOF 4
ENDMDL
MODEL      277
REMARK 921   NORMALIZED FREE ENERGY PREDICTED BY IDOCK:   -2.20 KCAL/MOL
REMARK 922        TOTAL FREE ENERGY PREDICTED BY IDOCK:   -3.18 KCAL/MOL
REMARK 923 INTER-LIGAND FREE ENERGY PREDICTED BY IDOCK:   -2.80 KCAL/MOL
REMARK 924 INTRA-LIGAND FREE ENERGY PREDICTED BY IDOCK:   -0.38 KCAL/MOL
REMARK 927      BINDING AFFINITY PREDICTED BY RF-SCORE:    0.00 PKD
ROOT
HETATM    1  O   UNL     1     -12.425   6.179  72.524  1.00  0.00    -0.552 OA 
HETATM    2  C   UNL     1     -11.150   6.815  72.397  1.00  0.00    -0.257 C  
HETATM    3  H   UNL     1     -12.396   5.607  73.281  1.00  0.00     0.000 HD 
ENDROOT
BRANCH   2   4
HETATM    4  C   UNL     1     -11.197   7.739  71.176  1.00  0.00    -0.264 C  
HETATM    5  H   UNL     1     -12.181   9.350  70.681  1.00  0.00     0.000 HD 
HETATM    6  O   UNL     1     -12.152   8.778  71.438  1.00  0.00    -0.288 OA 
BRANCH   4   7
HETATM    7  C   UNL     1      -9.827   8.358  70.850  1.00  0.00    -0.184 C  
HETATM    8  H   UNL     1      -8.018   7.718  70.397  1.00  0.00     0.000 HD 
HETATM    9  O   UNL     1      -8.864   7.335  70.598  1.00  0.00    -0.146 OA 
BRANCH   7  10
HETATM   10  C   UNL     1      -9.910   9.309  69.629  1.00  0.00    -0.186 C  
HETATM   11  H   UNL     1     -10.532   9.237  67.728  1.00  0.00     0.000 HD 
HETATM   12  O   UNL     1     -10.481   8.654  68.477  1.00  0.00    -0.209 OA 
BRANCH  10  13
HETATM   13  C   UNL     1      -8.552   9.895  69.224  1.00  0.00    -0.167 C  
HETATM   14  C   UNL     1      -8.637  11.155  68.343  1.00  0.00    -0.152 C  
HETATM   15  O   UNL     1      -7.743   8.869  68.646  1.00  0.00    -0.094 OA 
HETATM   16  O   UNL     1      -9.588  12.048  68.698  1.00  0.00    -0.175 OA 
HETATM   17  O   UNL     1      -7.856  11.362  67.419  1.00  0.00    -0.123 OA 
HETATM   18  H   UNL     1      -6.901   9.232  68.396  1.00  0.00     0.000 HD 
ENDBRANCH  10  13
ENDBRANCH   7  10
ENDBRANCH   4   7
ENDBRANCH   2   4
TORSDOF 4
ENDMDL
MODEL      278
REMARK 921   NORMALIZED FREE ENERGY PREDICTED BY IDOCK:   -2.19 KCAL/MOL
REMARK 922        TOTAL FREE ENERGY PREDICTED BY IDOCK:   -3.17 KCAL/MOL
REMARK 923 INTER-LIGAND FREE ENERGY PREDICTED BY IDOCK:   -2.90 KCAL/MOL
REMARK 924 INTRA-LIGAND FREE ENERGY PREDICTED BY IDOCK:   -0.28 KCAL/MOL
REMARK 927      BINDING AFFINITY PREDICTED BY RF-SCORE:    0.00 PKD
ROOT
HETATM    1  O   UNL     1      -9.639   3.563  69.931  1.00  0.00    -0.188 OA 
HETATM    2  C   UNL     1      -9.824   4.981  69.879  1.00  0.00    -0.226 C  
HETATM    3  H   UNL     1      -9.051   3.316  69.227  1.00  0.00     0.000 HD 
ENDROOT
BRANCH   2   4
HETATM    4  C   UNL     1     -10.771   5.380  71.015  1.00  0.00    -0.169 C  
HETATM    5  H   UNL     1     -10.697   5.363  72.964  1.00  0.00     0.000 HD 
HETATM    6  O   UNL     1     -10.110   5.116  72.260  1.00  0.00    -0.179 OA 
BRANCH   4   7
HETATM    7  C   UNL     1     -11.185   6.860  70.946  1.00  0.00    -0.289 C  
HETATM    8  H   UNL     1     -12.807   7.930  71.290  1.00  0.00     0.000 HD 
HETATM    9  O   UNL     1     -12.551   7.015  71.332  1.00  0.00    -0.366 OA 
BRANCH   7  10
HETATM   10  C   UNL     1     -10.285   7.743  71.848  1.00  0.00    -0.202 C  
HETATM   11  H   UNL     1     -10.471   9.374  72.994  1.00  0.00     0.000 HD 
HETATM   12  O   UNL     1     -11.023   8.832  72.441  1.00  0.00    -0.321 OA 
BRANCH  10  13
HETATM   13  C   UNL     1      -9.076   8.329  71.107  1.00  0.00    -0.162 C  
HETATM   14  C   UNL     1      -7.749   8.239  71.883  1.00  0.00    -0.114 C  
HETATM   15  O   UNL     1      -9.377   9.658  70.679  1.00  0.00    -0.288 OA 
HETATM   16  O   UNL     1      -7.538   7.075  72.539  1.00  0.00    -0.088 OA 
HETATM   17  O   UNL     1      -6.913   9.137  71.857  1.00  0.00    -0.303 OA 
HETATM   18  H   UNL     1      -8.628  10.021  70.220  1.00  0.00     0.000 HD 
ENDBRANCH  10  13
ENDBRANCH   7  10
ENDBRANCH   4   7
ENDBRANCH   2   4
TORSDOF 4
ENDMDL
MODEL      279
REMARK 921   NORMALIZED FREE ENERGY PREDICTED BY IDOCK:   -2.19 KCAL/MOL
REMARK 922        TOTAL FREE ENERGY PREDICTED BY IDOCK:   -3.17 KCAL/MOL
REMARK 923 INTER-LIGAND FREE ENERGY PREDICTED BY IDOCK:   -3.33 KCAL/MOL
REMARK 924 INTRA-LIGAND FREE ENERGY PREDICTED BY IDOCK:    0.16 KCAL/MOL
REMARK 927      BINDING AFFINITY PREDICTED BY RF-SCORE:    0.00 PKD
ROOT
HETATM    1  O   UNL     1     -11.682  13.326  67.933  1.00  0.00    -0.317 OA 
HETATM    2  C   UNL     1     -11.975  14.404  67.039  1.00  0.00    -0.395 C  
HETATM    3  H   UNL     1     -12.449  13.172  68.472  1.00  0.00     0.000 HD 
ENDROOT
BRANCH   2   4
HETATM    4  C   UNL     1     -10.737  14.653  66.170  1.00  0.00    -0.314 C  
HETATM    5  H   UNL     1     -10.413  15.078  64.294  1.00  0.00     0.000 HD 
HETATM    6  O   UNL     1     -11.179  14.924  64.833  1.00  0.00    -0.378 OA 
BRANCH   4   7
HETATM    7  C   UNL     1      -9.880  15.821  66.685  1.00  0.00    -0.252 C  
HETATM    8  H   UNL     1     -10.124  17.742  67.063  1.00  0.00     0.000 HD 
HETATM    9  O   UNL     1     -10.653  17.020  66.745  1.00  0.00    -0.284 OA 
BRANCH   7  10
HETATM   10  C   UNL     1      -9.284  15.515  68.083  1.00  0.00    -0.189 C  
HETATM   11  H   UNL     1      -9.341  16.293  69.927  1.00  0.00     0.000 HD 
HETATM   12  O   UNL     1      -9.706  16.480  69.069  1.00  0.00    -0.247 OA 
BRANCH  10  13
HETATM   13  C   UNL     1      -7.751  15.460  68.089  1.00  0.00    -0.124 C  
HETATM   14  C   UNL     1      -7.067  16.684  67.452  1.00  0.00    -0.160 C  
HETATM   15  O   UNL     1      -7.316  14.224  67.520  1.00  0.00    -0.170 OA 
HETATM   16  O   UNL     1      -7.621  17.881  67.752  1.00  0.00    -0.208 OA 
HETATM   17  O   UNL     1      -6.053  16.585  66.768  1.00  0.00    -0.292 OA 
HETATM   18  H   UNL     1      -6.366  14.190  67.524  1.00  0.00     0.000 HD 
ENDBRANCH  10  13
ENDBRANCH   7  10
ENDBRANCH   4   7
ENDBRANCH   2   4
TORSDOF 4
ENDMDL
MODEL      280
REMARK 921   NORMALIZED FREE ENERGY PREDICTED BY IDOCK:   -2.16 KCAL/MOL
REMARK 922        TOTAL FREE ENERGY PREDICTED BY IDOCK:   -3.14 KCAL/MOL
REMARK 923 INTER-LIGAND FREE ENERGY PREDICTED BY IDOCK:   -3.32 KCAL/MOL
REMARK 924 INTRA-LIGAND FREE ENERGY PREDICTED BY IDOCK:    0.18 KCAL/MOL
REMARK 927      BINDING AFFINITY PREDICTED BY RF-SCORE:    0.00 PKD
ROOT
HETATM    1  O   UNL     1      -7.143  10.639  64.461  1.00  0.00    -0.351 OA 
HETATM    2  C   UNL     1      -8.424  10.429  63.860  1.00  0.00    -0.161 C  
HETATM    3  H   UNL     1      -6.641  11.213  63.895  1.00  0.00     0.000 HD 
ENDROOT
BRANCH   2   4
HETATM    4  C   UNL     1      -9.233   9.502  64.773  1.00  0.00    -0.205 C  
HETATM    5  H   UNL     1      -8.918   7.790  65.655  1.00  0.00     0.000 HD 
HETATM    6  O   UNL     1      -8.417   8.364  65.089  1.00  0.00    -0.168 OA 
BRANCH   4   7
HETATM    7  C   UNL     1      -9.685  10.197  66.069  1.00  0.00    -0.226 C  
HETATM    8  H   UNL     1      -8.832  11.024  67.644  1.00  0.00     0.000 HD 
HETATM    9  O   UNL     1      -8.553  10.594  66.844  1.00  0.00    -0.125 OA 
BRANCH   7  10
HETATM   10  C   UNL     1     -10.571  11.433  65.770  1.00  0.00    -0.260 C  
HETATM   11  H   UNL     1     -11.055  12.569  64.194  1.00  0.00     0.000 HD 
HETATM   12  O   UNL     1     -10.512  11.811  64.378  1.00  0.00    -0.271 OA 
BRANCH  10  13
HETATM   13  C   UNL     1     -10.207  12.658  66.617  1.00  0.00    -0.236 C  
HETATM   14  C   UNL     1     -11.405  13.545  67.003  1.00  0.00    -0.324 C  
HETATM   15  O   UNL     1      -9.161  13.390  65.974  1.00  0.00    -0.475 OA 
HETATM   16  O   UNL     1     -12.525  12.881  67.368  1.00  0.00    -0.180 OA 
HETATM   17  O   UNL     1     -11.330  14.770  67.036  1.00  0.00    -0.338 OA 
HETATM   18  H   UNL     1      -8.935  14.149  66.499  1.00  0.00     0.000 HD 
ENDBRANCH  10  13
ENDBRANCH   7  10
ENDBRANCH   4   7
ENDBRANCH   2   4
TORSDOF 4
ENDMDL
MODEL      281
REMARK 921   NORMALIZED FREE ENERGY PREDICTED BY IDOCK:   -2.14 KCAL/MOL
REMARK 922        TOTAL FREE ENERGY PREDICTED BY IDOCK:   -3.11 KCAL/MOL
REMARK 923 INTER-LIGAND FREE ENERGY PREDICTED BY IDOCK:   -2.66 KCAL/MOL
REMARK 924 INTRA-LIGAND FREE ENERGY PREDICTED BY IDOCK:   -0.45 KCAL/MOL
REMARK 927      BINDING AFFINITY PREDICTED BY RF-SCORE:    0.00 PKD
ROOT
HETATM    1  O   UNL     1      -9.281   7.381  74.422  1.00  0.00    -0.401 OA 
HETATM    2  C   UNL     1     -10.417   6.803  73.774  1.00  0.00    -0.354 C  
HETATM    3  H   UNL     1      -9.431   7.357  75.359  1.00  0.00     0.000 HD 
ENDROOT
BRANCH   2   4
HETATM    4  C   UNL     1     -10.175   6.842  72.261  1.00  0.00    -0.189 C  
HETATM    5  H   UNL     1      -9.426   8.129  71.000  1.00  0.00     0.000 HD 
HETATM    6  O   UNL     1      -9.576   8.105  71.938  1.00  0.00    -0.167 OA 
BRANCH   4   7
HETATM    7  C   UNL     1      -9.269   5.695  71.779  1.00  0.00    -0.145 C  
HETATM    8  H   UNL     1      -8.329   4.156  72.579  1.00  0.00     0.000 HD 
HETATM    9  O   UNL     1      -8.889   4.864  72.876  1.00  0.00    -0.117 OA 
BRANCH   7  10
HETATM   10  C   UNL     1      -9.969   4.838  70.694  1.00  0.00    -0.230 C  
HETATM   11  H   UNL     1     -10.108   2.906  70.185  1.00  0.00     0.000 HD 
HETATM   12  O   UNL     1      -9.679   3.433  70.851  1.00  0.00    -0.171 OA 
BRANCH  10  13
HETATM   13  C   UNL     1      -9.596   5.249  69.264  1.00  0.00    -0.155 C  
HETATM   14  C   UNL     1     -10.768   5.806  68.435  1.00  0.00    -0.209 C  
HETATM   15  O   UNL     1      -8.925   4.166  68.616  1.00  0.00    -0.099 OA 
HETATM   16  O   UNL     1     -11.601   6.641  69.096  1.00  0.00    -0.203 OA 
HETATM   17  O   UNL     1     -10.902   5.557  67.240  1.00  0.00    -0.216 OA 
HETATM   18  H   UNL     1      -8.694   4.421  67.730  1.00  0.00     0.000 HD 
ENDBRANCH  10  13
ENDBRANCH   7  10
ENDBRANCH   4   7
ENDBRANCH   2   4
TORSDOF 4
ENDMDL
MODEL      282
REMARK 921   NORMALIZED FREE ENERGY PREDICTED BY IDOCK:   -2.14 KCAL/MOL
REMARK 922        TOTAL FREE ENERGY PREDICTED BY IDOCK:   -3.11 KCAL/MOL
REMARK 923 INTER-LIGAND FREE ENERGY PREDICTED BY IDOCK:   -2.66 KCAL/MOL
REMARK 924 INTRA-LIGAND FREE ENERGY PREDICTED BY IDOCK:   -0.44 KCAL/MOL
REMARK 927      BINDING AFFINITY PREDICTED BY RF-SCORE:    0.00 PKD
ROOT
HETATM    1  O   UNL     1     -10.397   5.132  73.850  1.00  0.00    -0.205 OA 
HETATM    2  C   UNL     1      -9.490   6.172  74.226  1.00  0.00    -0.181 C  
HETATM    3  H   UNL     1     -10.126   4.332  74.284  1.00  0.00     0.000 HD 
ENDROOT
BRANCH   2   4
HETATM    4  C   UNL     1      -9.927   7.463  73.525  1.00  0.00    -0.326 C  
HETATM    5  H   UNL     1      -9.019   8.966  72.677  1.00  0.00     0.000 HD 
HETATM    6  O   UNL     1      -8.748   8.167  73.111  1.00  0.00    -0.202 OA 
BRANCH   4   7
HETATM    7  C   UNL     1     -10.832   7.197  72.309  1.00  0.00    -0.232 C  
HETATM    8  H   UNL     1     -12.403   8.035  71.460  1.00  0.00     0.000 HD 
HETATM    9  O   UNL     1     -11.844   8.199  72.211  1.00  0.00    -0.335 OA 
BRANCH   7  10
HETATM   10  C   UNL     1     -10.014   7.152  70.993  1.00  0.00    -0.188 C  
HETATM   11  H   UNL     1      -9.698   8.320  69.398  1.00  0.00     0.000 HD 
HETATM   12  O   UNL     1     -10.199   8.347  70.205  1.00  0.00    -0.189 OA 
BRANCH  10  13
HETATM   13  C   UNL     1     -10.347   5.940  70.114  1.00  0.00    -0.241 C  
HETATM   14  C   UNL     1      -9.350   4.772  70.234  1.00  0.00    -0.151 C  
HETATM   15  O   UNL     1     -10.538   6.368  68.764  1.00  0.00    -0.199 OA 
HETATM   16  O   UNL     1      -8.925   4.499  71.488  1.00  0.00    -0.122 OA 
HETATM   17  O   UNL     1      -9.012   4.098  69.266  1.00  0.00    -0.092 OA 
HETATM   18  H   UNL     1     -10.745   5.617  68.219  1.00  0.00     0.000 HD 
ENDBRANCH  10  13
ENDBRANCH   7  10
ENDBRANCH   4   7
ENDBRANCH   2   4
TORSDOF 4
ENDMDL
MODEL      283
REMARK 921   NORMALIZED FREE ENERGY PREDICTED BY IDOCK:   -2.13 KCAL/MOL
REMARK 922        TOTAL FREE ENERGY PREDICTED BY IDOCK:   -3.09 KCAL/MOL
REMARK 923 INTER-LIGAND FREE ENERGY PREDICTED BY IDOCK:   -2.67 KCAL/MOL
REMARK 924 INTRA-LIGAND FREE ENERGY PREDICTED BY IDOCK:   -0.43 KCAL/MOL
REMARK 927      BINDING AFFINITY PREDICTED BY RF-SCORE:    0.00 PKD
ROOT
HETATM    1  O   UNL     1     -11.228   7.175  66.906  1.00  0.00    -0.576 OA 
HETATM    2  C   UNL     1     -10.651   8.152  67.777  1.00  0.00    -0.165 C  
HETATM    3  H   UNL     1     -11.830   7.619  66.321  1.00  0.00     0.000 HD 
ENDROOT
BRANCH   2   4
HETATM    4  C   UNL     1      -9.678   7.435  68.720  1.00  0.00    -0.149 C  
HETATM    5  H   UNL     1      -7.752   7.472  69.029  1.00  0.00     0.000 HD 
HETATM    6  O   UNL     1      -8.355   7.916  68.445  1.00  0.00    -0.123 OA 
BRANCH   4   7
HETATM    7  C   UNL     1     -10.019   7.661  70.203  1.00  0.00    -0.186 C  
HETATM    8  H   UNL     1     -11.556   8.311  71.254  1.00  0.00     0.000 HD 
HETATM    9  O   UNL     1     -11.346   8.172  70.338  1.00  0.00    -0.259 OA 
BRANCH   7  10
HETATM   10  C   UNL     1      -9.879   6.353  71.022  1.00  0.00    -0.180 C  
HETATM   11  H   UNL     1     -10.919   4.669  71.327  1.00  0.00     0.000 HD 
HETATM   12  O   UNL     1     -11.005   5.472  70.824  1.00  0.00    -0.230 OA 
BRANCH  10  13
HETATM   13  C   UNL     1      -9.719   6.596  72.528  1.00  0.00    -0.157 C  
HETATM   14  C   UNL     1      -9.166   5.392  73.313  1.00  0.00    -0.132 C  
HETATM   15  O   UNL     1     -10.947   7.090  73.065  1.00  0.00    -0.283 OA 
HETATM   16  O   UNL     1      -8.162   4.717  72.710  1.00  0.00    -0.099 OA 
HETATM   17  O   UNL     1      -9.568   5.102  74.437  1.00  0.00    -0.128 OA 
HETATM   18  H   UNL     1     -10.848   7.241  73.998  1.00  0.00     0.000 HD 
ENDBRANCH  10  13
ENDBRANCH   7  10
ENDBRANCH   4   7
ENDBRANCH   2   4
TORSDOF 4
ENDMDL
MODEL      284
REMARK 921   NORMALIZED FREE ENERGY PREDICTED BY IDOCK:   -2.12 KCAL/MOL
REMARK 922        TOTAL FREE ENERGY PREDICTED BY IDOCK:   -3.09 KCAL/MOL
REMARK 923 INTER-LIGAND FREE ENERGY PREDICTED BY IDOCK:   -3.07 KCAL/MOL
REMARK 924 INTRA-LIGAND FREE ENERGY PREDICTED BY IDOCK:   -0.02 KCAL/MOL
REMARK 927      BINDING AFFINITY PREDICTED BY RF-SCORE:    0.00 PKD
ROOT
HETATM    1  O   UNL     1     -11.953  13.428  68.523  1.00  0.00    -0.348 OA 
HETATM    2  C   UNL     1     -11.551  13.459  67.151  1.00  0.00    -0.358 C  
HETATM    3  H   UNL     1     -12.689  14.018  68.629  1.00  0.00     0.000 HD 
ENDROOT
BRANCH   2   4
HETATM    4  C   UNL     1     -10.363  12.506  66.980  1.00  0.00    -0.224 C  
HETATM    5  H   UNL     1      -8.450  12.579  67.360  1.00  0.00     0.000 HD 
HETATM    6  O   UNL     1      -9.187  13.169  67.466  1.00  0.00    -0.189 OA 
BRANCH   4   7
HETATM    7  C   UNL     1     -10.560  11.176  67.728  1.00  0.00    -0.209 C  
HETATM    8  H   UNL     1     -12.069  10.023  68.261  1.00  0.00     0.000 HD 
HETATM    9  O   UNL     1     -11.947  10.845  67.800  1.00  0.00    -0.553 OA 
BRANCH   7  10
HETATM   10  C   UNL     1      -9.783  10.022  67.046  1.00  0.00    -0.181 C  
HETATM   11  H   UNL     1     -10.121   8.131  66.481  1.00  0.00     0.000 HD 
HETATM   12  O   UNL     1     -10.598   8.839  66.899  1.00  0.00    -0.276 OA 
BRANCH  10  13
HETATM   13  C   UNL     1      -8.500   9.632  67.791  1.00  0.00    -0.125 C  
HETATM   14  C   UNL     1      -8.530   9.918  69.304  1.00  0.00    -0.158 C  
HETATM   15  O   UNL     1      -7.372  10.219  67.139  1.00  0.00    -0.089 OA 
HETATM   16  O   UNL     1      -9.693   9.624  69.927  1.00  0.00    -0.202 OA 
HETATM   17  O   UNL     1      -7.546  10.328  69.912  1.00  0.00    -0.160 OA 
HETATM   18  H   UNL     1      -6.578   9.977  67.600  1.00  0.00     0.000 HD 
ENDBRANCH  10  13
ENDBRANCH   7  10
ENDBRANCH   4   7
ENDBRANCH   2   4
TORSDOF 4
ENDMDL
MODEL      285
REMARK 921   NORMALIZED FREE ENERGY PREDICTED BY IDOCK:   -2.09 KCAL/MOL
REMARK 922        TOTAL FREE ENERGY PREDICTED BY IDOCK:   -3.05 KCAL/MOL
REMARK 923 INTER-LIGAND FREE ENERGY PREDICTED BY IDOCK:   -2.93 KCAL/MOL
REMARK 924 INTRA-LIGAND FREE ENERGY PREDICTED BY IDOCK:   -0.12 KCAL/MOL
REMARK 927      BINDING AFFINITY PREDICTED BY RF-SCORE:    0.00 PKD
ROOT
HETATM    1  O   UNL     1     -11.156  15.412  67.484  1.00  0.00    -0.314 OA 
HETATM    2  C   UNL     1     -11.343  14.070  67.027  1.00  0.00    -0.330 C  
HETATM    3  H   UNL     1     -11.805  15.961  67.061  1.00  0.00     0.000 HD 
ENDROOT
BRANCH   2   4
HETATM    4  C   UNL     1     -10.297  13.183  67.710  1.00  0.00    -0.230 C  
HETATM    5  H   UNL     1      -8.886  13.454  69.031  1.00  0.00     0.000 HD 
HETATM    6  O   UNL     1      -9.535  14.003  68.607  1.00  0.00    -0.203 OA 
BRANCH   4   7
HETATM    7  C   UNL     1     -10.928  12.011  68.481  1.00  0.00    -0.240 C  
HETATM    8  H   UNL     1     -12.643  11.036  68.487  1.00  0.00     0.000 HD 
HETATM    9  O   UNL     1     -12.253  11.760  68.011  1.00  0.00    -0.518 OA 
BRANCH   7  10
HETATM   10  C   UNL     1     -10.076  10.723  68.353  1.00  0.00    -0.169 C  
HETATM   11  H   UNL     1     -10.039   8.880  69.134  1.00  0.00     0.000 HD 
HETATM   12  O   UNL     1     -10.562   9.670  69.212  1.00  0.00    -0.206 OA 
BRANCH  10  13
HETATM   13  C   UNL     1      -8.590  10.947  68.661  1.00  0.00    -0.153 C  
HETATM   14  C   UNL     1      -7.625  10.195  67.726  1.00  0.00    -0.090 C  
HETATM   15  O   UNL     1      -8.343  10.679  70.042  1.00  0.00    -0.305 OA 
HETATM   16  O   UNL     1      -7.968  10.193  66.417  1.00  0.00    -0.114 OA 
HETATM   17  O   UNL     1      -6.585   9.685  68.131  1.00  0.00    -0.060 OA 
HETATM   18  H   UNL     1      -7.423  10.818  70.233  1.00  0.00     0.000 HD 
ENDBRANCH  10  13
ENDBRANCH   7  10
ENDBRANCH   4   7
ENDBRANCH   2   4
TORSDOF 4
ENDMDL
MODEL      286
REMARK 921   NORMALIZED FREE ENERGY PREDICTED BY IDOCK:   -2.09 KCAL/MOL
REMARK 922        TOTAL FREE ENERGY PREDICTED BY IDOCK:   -3.05 KCAL/MOL
REMARK 923 INTER-LIGAND FREE ENERGY PREDICTED BY IDOCK:   -2.90 KCAL/MOL
REMARK 924 INTRA-LIGAND FREE ENERGY PREDICTED BY IDOCK:   -0.14 KCAL/MOL
REMARK 927      BINDING AFFINITY PREDICTED BY RF-SCORE:    0.00 PKD
ROOT
HETATM    1  O   UNL     1      -6.928   6.281  71.090  1.00  0.00    -0.065 OA 
HETATM    2  C   UNL     1      -6.867   6.653  69.710  1.00  0.00    -0.055 C  
HETATM    3  H   UNL     1      -6.048   6.316  71.445  1.00  0.00     0.000 HD 
ENDROOT
BRANCH   2   4
HETATM    4  C   UNL     1      -8.288   6.596  69.138  1.00  0.00    -0.124 C  
HETATM    5  H   UNL     1     -10.080   6.362  69.872  1.00  0.00     0.000 HD 
HETATM    6  O   UNL     1      -9.200   6.398  70.227  1.00  0.00    -0.153 OA 
BRANCH   4   7
HETATM    7  C   UNL     1      -8.665   7.872  68.366  1.00  0.00    -0.131 C  
HETATM    8  H   UNL     1      -8.477   8.564  66.528  1.00  0.00     0.000 HD 
HETATM    9  O   UNL     1      -8.244   7.775  67.005  1.00  0.00    -0.114 OA 
BRANCH   7  10
HETATM   10  C   UNL     1     -10.191   8.139  68.421  1.00  0.00    -0.209 C  
HETATM   11  H   UNL     1     -11.784   7.915  67.230  1.00  0.00     0.000 HD 
HETATM   12  O   UNL     1     -10.848   7.752  67.196  1.00  0.00    -0.313 OA 
BRANCH  10  13
HETATM   13  C   UNL     1     -10.539   9.604  68.712  1.00  0.00    -0.216 C  
HETATM   14  C   UNL     1     -10.768   9.922  70.201  1.00  0.00    -0.308 C  
HETATM   15  O   UNL     1     -11.633  10.007  67.886  1.00  0.00    -0.629 OA 
HETATM   16  O   UNL     1      -9.903   9.334  71.059  1.00  0.00    -0.273 OA 
HETATM   17  O   UNL     1     -11.637  10.702  70.579  1.00  0.00    -0.315 OA 
HETATM   18  H   UNL     1     -11.849  10.915  68.066  1.00  0.00     0.000 HD 
ENDBRANCH  10  13
ENDBRANCH   7  10
ENDBRANCH   4   7
ENDBRANCH   2   4
TORSDOF 4
ENDMDL
MODEL      287
REMARK 921   NORMALIZED FREE ENERGY PREDICTED BY IDOCK:   -2.08 KCAL/MOL
REMARK 922        TOTAL FREE ENERGY PREDICTED BY IDOCK:   -3.04 KCAL/MOL
REMARK 923 INTER-LIGAND FREE ENERGY PREDICTED BY IDOCK:   -2.48 KCAL/MOL
REMARK 924 INTRA-LIGAND FREE ENERGY PREDICTED BY IDOCK:   -0.56 KCAL/MOL
REMARK 927      BINDING AFFINITY PREDICTED BY RF-SCORE:    0.00 PKD
ROOT
HETATM    1  O   UNL     1     -11.586   6.621  67.039  1.00  0.00    -0.727 OA 
HETATM    2  C   UNL     1     -10.556   5.630  66.977  1.00  0.00    -0.285 C  
HETATM    3  H   UNL     1     -12.138   6.521  66.273  1.00  0.00     0.000 HD 
ENDROOT
BRANCH   2   4
HETATM    4  C   UNL     1      -9.664   5.790  68.213  1.00  0.00    -0.129 C  
HETATM    5  H   UNL     1      -9.204   4.686  69.754  1.00  0.00     0.000 HD 
HETATM    6  O   UNL     1      -9.756   4.586  68.988  1.00  0.00    -0.166 OA 
BRANCH   4   7
HETATM    7  C   UNL     1      -8.195   6.067  67.849  1.00  0.00    -0.112 C  
HETATM    8  H   UNL     1      -6.813   5.269  66.691  1.00  0.00     0.000 HD 
HETATM    9  O   UNL     1      -7.720   5.098  66.915  1.00  0.00    -0.091 OA 
BRANCH   7  10
HETATM   10  C   UNL     1      -8.016   7.490  67.261  1.00  0.00    -0.118 C  
HETATM   11  H   UNL     1      -6.513   8.701  66.729  1.00  0.00     0.000 HD 
HETATM   12  O   UNL     1      -6.623   7.828  67.089  1.00  0.00    -0.059 OA 
BRANCH  10  13
HETATM   13  C   UNL     1      -8.675   8.584  68.110  1.00  0.00    -0.142 C  
HETATM   14  C   UNL     1      -9.399   9.673  67.297  1.00  0.00    -0.138 C  
HETATM   15  O   UNL     1      -7.717   9.121  69.024  1.00  0.00    -0.076 OA 
HETATM   16  O   UNL     1     -10.115   9.228  66.239  1.00  0.00    -0.278 OA 
HETATM   17  O   UNL     1      -9.376  10.857  67.621  1.00  0.00    -0.153 OA 
HETATM   18  H   UNL     1      -8.126   9.798  69.550  1.00  0.00     0.000 HD 
ENDBRANCH  10  13
ENDBRANCH   7  10
ENDBRANCH   4   7
ENDBRANCH   2   4
TORSDOF 4
ENDMDL
MODEL      288
REMARK 921   NORMALIZED FREE ENERGY PREDICTED BY IDOCK:   -2.07 KCAL/MOL
REMARK 922        TOTAL FREE ENERGY PREDICTED BY IDOCK:   -3.02 KCAL/MOL
REMARK 923 INTER-LIGAND FREE ENERGY PREDICTED BY IDOCK:   -2.73 KCAL/MOL
REMARK 924 INTRA-LIGAND FREE ENERGY PREDICTED BY IDOCK:   -0.29 KCAL/MOL
REMARK 927      BINDING AFFINITY PREDICTED BY RF-SCORE:    0.00 PKD
ROOT
HETATM    1  O   UNL     1      -8.985   4.363  68.848  1.00  0.00    -0.097 OA 
HETATM    2  C   UNL     1     -10.152   5.020  68.343  1.00  0.00    -0.107 C  
HETATM    3  H   UNL     1      -8.704   3.725  68.204  1.00  0.00     0.000 HD 
ENDROOT
BRANCH   2   4
HETATM    4  C   UNL     1     -10.605   6.051  69.383  1.00  0.00    -0.298 C  
HETATM    5  H   UNL     1     -10.976   6.031  71.298  1.00  0.00     0.000 HD 
HETATM    6  O   UNL     1     -10.695   5.392  70.654  1.00  0.00    -0.254 OA 
BRANCH   4   7
HETATM    7  C   UNL     1      -9.647   7.251  69.481  1.00  0.00    -0.155 C  
HETATM    8  H   UNL     1      -8.307   8.134  68.334  1.00  0.00     0.000 HD 
HETATM    9  O   UNL     1      -8.899   7.393  68.274  1.00  0.00    -0.128 OA 
BRANCH   7  10
HETATM   10  C   UNL     1     -10.414   8.565  69.777  1.00  0.00    -0.220 C  
HETATM   11  H   UNL     1     -10.322  10.493  69.243  1.00  0.00     0.000 HD 
HETATM   12  O   UNL     1      -9.853   9.686  69.062  1.00  0.00    -0.169 OA 
BRANCH  10  13
HETATM   13  C   UNL     1     -10.456   8.919  71.269  1.00  0.00    -0.287 C  
HETATM   14  C   UNL     1      -9.100   8.806  71.989  1.00  0.00    -0.189 C  
HETATM   15  O   UNL     1     -11.487   8.165  71.909  1.00  0.00    -0.266 OA 
HETATM   16  O   UNL     1      -8.035   9.271  71.297  1.00  0.00    -0.322 OA 
HETATM   17  O   UNL     1      -9.001   8.380  73.136  1.00  0.00    -0.239 OA 
HETATM   18  H   UNL     1     -11.513   8.384  72.833  1.00  0.00     0.000 HD 
ENDBRANCH  10  13
ENDBRANCH   7  10
ENDBRANCH   4   7
ENDBRANCH   2   4
TORSDOF 4
ENDMDL
MODEL      289
REMARK 921   NORMALIZED FREE ENERGY PREDICTED BY IDOCK:   -2.06 KCAL/MOL
REMARK 922        TOTAL FREE ENERGY PREDICTED BY IDOCK:   -3.01 KCAL/MOL
REMARK 923 INTER-LIGAND FREE ENERGY PREDICTED BY IDOCK:   -2.62 KCAL/MOL
REMARK 924 INTRA-LIGAND FREE ENERGY PREDICTED BY IDOCK:   -0.39 KCAL/MOL
REMARK 927      BINDING AFFINITY PREDICTED BY RF-SCORE:    0.00 PKD
ROOT
HETATM    1  O   UNL     1      -9.536   7.619  65.684  1.00  0.00    -0.392 OA 
HETATM    2  C   UNL     1      -9.015   7.287  66.975  1.00  0.00    -0.130 C  
HETATM    3  H   UNL     1      -9.062   8.375  65.360  1.00  0.00     0.000 HD 
ENDROOT
BRANCH   2   4
HETATM    4  C   UNL     1      -9.780   6.066  67.498  1.00  0.00    -0.116 C  
HETATM    5  H   UNL     1     -10.093   4.244  66.876  1.00  0.00     0.000 HD 
HETATM    6  O   UNL     1      -9.619   5.000  66.552  1.00  0.00    -0.137 OA 
BRANCH   4   7
HETATM    7  C   UNL     1      -9.292   5.614  68.885  1.00  0.00    -0.120 C  
HETATM    8  H   UNL     1      -7.629   5.717  69.941  1.00  0.00     0.000 HD 
HETATM    9  O   UNL     1      -7.931   5.996  69.084  1.00  0.00    -0.100 OA 
BRANCH   7  10
HETATM   10  C   UNL     1     -10.171   6.205  70.016  1.00  0.00    -0.196 C  
HETATM   11  H   UNL     1     -10.203   7.837  71.176  1.00  0.00     0.000 HD 
HETATM   12  O   UNL     1      -9.664   7.474  70.482  1.00  0.00    -0.179 OA 
BRANCH  10  13
HETATM   13  C   UNL     1     -10.311   5.271  71.225  1.00  0.00    -0.222 C  
HETATM   14  C   UNL     1     -11.252   5.792  72.327  1.00  0.00    -0.278 C  
HETATM   15  O   UNL     1      -9.014   4.933  71.720  1.00  0.00    -0.132 OA 
HETATM   16  O   UNL     1     -12.392   6.374  71.890  1.00  0.00    -0.345 OA 
HETATM   17  O   UNL     1     -11.013   5.634  73.521  1.00  0.00    -0.276 OA 
HETATM   18  H   UNL     1      -9.100   4.354  72.468  1.00  0.00     0.000 HD 
ENDBRANCH  10  13
ENDBRANCH   7  10
ENDBRANCH   4   7
ENDBRANCH   2   4
TORSDOF 4
ENDMDL
MODEL      290
REMARK 921   NORMALIZED FREE ENERGY PREDICTED BY IDOCK:   -2.05 KCAL/MOL
REMARK 922        TOTAL FREE ENERGY PREDICTED BY IDOCK:   -3.00 KCAL/MOL
REMARK 923 INTER-LIGAND FREE ENERGY PREDICTED BY IDOCK:   -2.43 KCAL/MOL
REMARK 924 INTRA-LIGAND FREE ENERGY PREDICTED BY IDOCK:   -0.56 KCAL/MOL
REMARK 927      BINDING AFFINITY PREDICTED BY RF-SCORE:    0.00 PKD
ROOT
HETATM    1  O   UNL     1      -7.079  10.518  64.483  1.00  0.00    -0.331 OA 
HETATM    2  C   UNL     1      -8.490  10.374  64.669  1.00  0.00    -0.173 C  
HETATM    3  H   UNL     1      -6.920  11.354  64.063  1.00  0.00     0.000 HD 
ENDROOT
BRANCH   2   4
HETATM    4  C   UNL     1      -8.747   9.024  65.346  1.00  0.00    -0.189 C  
HETATM    5  H   UNL     1      -7.985   7.232  65.220  1.00  0.00     0.000 HD 
HETATM    6  O   UNL     1      -7.826   8.069  64.800  1.00  0.00    -0.116 OA 
BRANCH   4   7
HETATM    7  C   UNL     1      -8.587   9.090  66.875  1.00  0.00    -0.123 C  
HETATM    8  H   UNL     1      -8.362  10.486  68.249  1.00  0.00     0.000 HD 
HETATM    9  O   UNL     1      -8.460  10.445  67.305  1.00  0.00    -0.122 OA 
BRANCH   7  10
HETATM   10  C   UNL     1      -9.784   8.423  67.599  1.00  0.00    -0.160 C  
HETATM   11  H   UNL     1     -11.766   8.669  67.734  1.00  0.00     0.000 HD 
HETATM   12  O   UNL     1     -11.032   9.078  67.289  1.00  0.00    -0.137 OA 
BRANCH  10  13
HETATM   13  C   UNL     1      -9.625   8.388  69.124  1.00  0.00    -0.164 C  
HETATM   14  C   UNL     1     -10.568   7.403  69.841  1.00  0.00    -0.236 C  
HETATM   15  O   UNL     1      -9.714   9.716  69.644  1.00  0.00    -0.186 OA 
HETATM   16  O   UNL     1     -10.729   6.206  69.233  1.00  0.00    -0.247 OA 
HETATM   17  O   UNL     1     -11.089   7.664  70.922  1.00  0.00    -0.253 OA 
HETATM   18  H   UNL     1      -9.615   9.695  70.589  1.00  0.00     0.000 HD 
ENDBRANCH  10  13
ENDBRANCH   7  10
ENDBRANCH   4   7
ENDBRANCH   2   4
TORSDOF 4
ENDMDL
MODEL      291
REMARK 921   NORMALIZED FREE ENERGY PREDICTED BY IDOCK:   -2.04 KCAL/MOL
REMARK 922        TOTAL FREE ENERGY PREDICTED BY IDOCK:   -2.98 KCAL/MOL
REMARK 923 INTER-LIGAND FREE ENERGY PREDICTED BY IDOCK:   -2.83 KCAL/MOL
REMARK 924 INTRA-LIGAND FREE ENERGY PREDICTED BY IDOCK:   -0.15 KCAL/MOL
REMARK 927      BINDING AFFINITY PREDICTED BY RF-SCORE:    0.00 PKD
ROOT
HETATM    1  O   UNL     1      -7.772   8.910  72.002  1.00  0.00    -0.332 OA 
HETATM    2  C   UNL     1      -7.741   9.472  70.687  1.00  0.00    -0.124 C  
HETATM    3  H   UNL     1      -7.050   9.277  72.498  1.00  0.00     0.000 HD 
ENDROOT
BRANCH   2   4
HETATM    4  C   UNL     1      -8.907   8.880  69.888  1.00  0.00    -0.151 C  
HETATM    5  H   UNL     1      -9.894   9.381  68.282  1.00  0.00     0.000 HD 
HETATM    6  O   UNL     1      -9.172   9.748  68.777  1.00  0.00    -0.136 OA 
BRANCH   4   7
HETATM    7  C   UNL     1      -8.614   7.457  69.383  1.00  0.00    -0.134 C  
HETATM    8  H   UNL     1      -7.085   6.211  69.365  1.00  0.00     0.000 HD 
HETATM    9  O   UNL     1      -7.266   7.090  69.677  1.00  0.00    -0.075 OA 
BRANCH   7  10
HETATM   10  C   UNL     1      -9.584   6.422  70.009  1.00  0.00    -0.158 C  
HETATM   11  H   UNL     1      -9.529   4.522  70.637  1.00  0.00     0.000 HD 
HETATM   12  O   UNL     1      -8.934   5.157  70.253  1.00  0.00    -0.119 OA 
BRANCH  10  13
HETATM   13  C   UNL     1     -10.830   6.165  69.152  1.00  0.00    -0.351 C  
HETATM   14  C   UNL     1     -10.579   6.206  67.633  1.00  0.00    -0.270 C  
HETATM   15  O   UNL     1     -11.881   7.042  69.563  1.00  0.00    -0.537 OA 
HETATM   16  O   UNL     1      -9.438   5.611  67.217  1.00  0.00    -0.112 OA 
HETATM   17  O   UNL     1     -11.388   6.691  66.848  1.00  0.00    -0.333 OA 
HETATM   18  H   UNL     1     -12.653   6.882  69.032  1.00  0.00     0.000 HD 
ENDBRANCH  10  13
ENDBRANCH   7  10
ENDBRANCH   4   7
ENDBRANCH   2   4
TORSDOF 4
ENDMDL
MODEL      292
REMARK 921   NORMALIZED FREE ENERGY PREDICTED BY IDOCK:   -2.03 KCAL/MOL
REMARK 922        TOTAL FREE ENERGY PREDICTED BY IDOCK:   -2.98 KCAL/MOL
REMARK 923 INTER-LIGAND FREE ENERGY PREDICTED BY IDOCK:   -2.42 KCAL/MOL
REMARK 924 INTRA-LIGAND FREE ENERGY PREDICTED BY IDOCK:   -0.56 KCAL/MOL
REMARK 927      BINDING AFFINITY PREDICTED BY RF-SCORE:    0.00 PKD
ROOT
HETATM    1  O   UNL     1      -6.776   8.171  71.817  1.00  0.00    -0.053 OA 
HETATM    2  C   UNL     1      -6.880   8.583  70.451  1.00  0.00    -0.037 C  
HETATM    3  H   UNL     1      -5.913   7.797  71.948  1.00  0.00     0.000 HD 
ENDROOT
BRANCH   2   4
HETATM    4  C   UNL     1      -8.272   9.187  70.239  1.00  0.00    -0.159 C  
HETATM    5  H   UNL     1      -9.161  10.180  68.814  1.00  0.00     0.000 HD 
HETATM    6  O   UNL     1      -8.298   9.806  68.945  1.00  0.00    -0.110 OA 
BRANCH   4   7
HETATM    7  C   UNL     1      -9.393   8.138  70.340  1.00  0.00    -0.158 C  
HETATM    8  H   UNL     1      -9.535   6.172  70.420  1.00  0.00     0.000 HD 
HETATM    9  O   UNL     1      -8.843   6.821  70.357  1.00  0.00    -0.149 OA 
BRANCH   7  10
HETATM   10  C   UNL     1     -10.262   8.357  71.605  1.00  0.00    -0.241 C  
HETATM   11  H   UNL     1     -10.036   9.080  73.458  1.00  0.00     0.000 HD 
HETATM   12  O   UNL     1      -9.503   8.946  72.682  1.00  0.00    -0.236 OA 
BRANCH  10  13
HETATM   13  C   UNL     1     -10.911   7.067  72.124  1.00  0.00    -0.224 C  
HETATM   14  C   UNL     1     -12.280   6.745  71.496  1.00  0.00    -0.366 C  
HETATM   15  O   UNL     1     -10.949   7.093  73.552  1.00  0.00    -0.542 OA 
HETATM   16  O   UNL     1     -12.374   6.965  70.165  1.00  0.00    -0.119 OA 
HETATM   17  O   UNL     1     -13.202   6.265  72.148  1.00  0.00    -0.025 OA 
HETATM   18  H   UNL     1     -11.351   6.294  73.873  1.00  0.00     0.000 HD 
ENDBRANCH  10  13
ENDBRANCH   7  10
ENDBRANCH   4   7
ENDBRANCH   2   4
TORSDOF 4
ENDMDL
MODEL      293
REMARK 921   NORMALIZED FREE ENERGY PREDICTED BY IDOCK:   -2.03 KCAL/MOL
REMARK 922        TOTAL FREE ENERGY PREDICTED BY IDOCK:   -2.98 KCAL/MOL
REMARK 923 INTER-LIGAND FREE ENERGY PREDICTED BY IDOCK:   -2.50 KCAL/MOL
REMARK 924 INTRA-LIGAND FREE ENERGY PREDICTED BY IDOCK:   -0.48 KCAL/MOL
REMARK 927      BINDING AFFINITY PREDICTED BY RF-SCORE:    0.00 PKD
ROOT
HETATM    1  O   UNL     1      -8.831   9.369  68.569  1.00  0.00    -0.127 OA 
HETATM    2  C   UNL     1      -8.290   9.910  69.778  1.00  0.00    -0.183 C  
HETATM    3  H   UNL     1      -9.144  10.091  68.037  1.00  0.00     0.000 HD 
ENDROOT
BRANCH   2   4
HETATM    4  C   UNL     1      -7.784   8.745  70.637  1.00  0.00    -0.094 C  
HETATM    5  H   UNL     1      -7.890   8.253  72.521  1.00  0.00     0.000 HD 
HETATM    6  O   UNL     1      -8.204   8.974  71.990  1.00  0.00    -0.360 OA 
BRANCH   4   7
HETATM    7  C   UNL     1      -8.308   7.383  70.150  1.00  0.00    -0.136 C  
HETATM    8  H   UNL     1      -7.684   5.926  68.976  1.00  0.00     0.000 HD 
HETATM    9  O   UNL     1      -7.361   6.767  69.276  1.00  0.00    -0.087 OA 
BRANCH   7  10
HETATM   10  C   UNL     1      -8.612   6.435  71.339  1.00  0.00    -0.130 C  
HETATM   11  H   UNL     1      -7.969   4.673  72.038  1.00  0.00     0.000 HD 
HETATM   12  O   UNL     1      -7.783   5.254  71.309  1.00  0.00    -0.096 OA 
BRANCH  10  13
HETATM   13  C   UNL     1     -10.079   5.992  71.399  1.00  0.00    -0.193 C  
HETATM   14  C   UNL     1     -10.668   5.929  72.820  1.00  0.00    -0.239 C  
HETATM   15  O   UNL     1     -10.237   4.767  70.680  1.00  0.00    -0.230 OA 
HETATM   16  O   UNL     1     -10.321   6.949  73.638  1.00  0.00    -0.297 OA 
HETATM   17  O   UNL     1     -11.448   5.047  73.169  1.00  0.00    -0.327 OA 
HETATM   18  H   UNL     1     -11.146   4.492  70.718  1.00  0.00     0.000 HD 
ENDBRANCH  10  13
ENDBRANCH   7  10
ENDBRANCH   4   7
ENDBRANCH   2   4
TORSDOF 4
ENDMDL
MODEL      294
REMARK 921   NORMALIZED FREE ENERGY PREDICTED BY IDOCK:   -2.03 KCAL/MOL
REMARK 922        TOTAL FREE ENERGY PREDICTED BY IDOCK:   -2.98 KCAL/MOL
REMARK 923 INTER-LIGAND FREE ENERGY PREDICTED BY IDOCK:   -2.56 KCAL/MOL
REMARK 924 INTRA-LIGAND FREE ENERGY PREDICTED BY IDOCK:   -0.41 KCAL/MOL
REMARK 927      BINDING AFFINITY PREDICTED BY RF-SCORE:    0.00 PKD
ROOT
HETATM    1  O   UNL     1     -10.336   4.223  72.179  1.00  0.00    -0.181 OA 
HETATM    2  C   UNL     1      -9.014   4.766  72.136  1.00  0.00    -0.127 C  
HETATM    3  H   UNL     1     -10.452   3.791  73.017  1.00  0.00     0.000 HD 
ENDROOT
BRANCH   2   4
HETATM    4  C   UNL     1      -8.827   5.462  70.784  1.00  0.00    -0.133 C  
HETATM    5  H   UNL     1      -7.562   5.323  69.305  1.00  0.00     0.000 HD 
HETATM    6  O   UNL     1      -7.677   4.891  70.143  1.00  0.00    -0.060 OA 
BRANCH   4   7
HETATM    7  C   UNL     1     -10.058   5.319  69.872  1.00  0.00    -0.263 C  
HETATM    8  H   UNL     1     -11.911   5.994  69.822  1.00  0.00     0.000 HD 
HETATM    9  O   UNL     1     -11.151   6.082  70.385  1.00  0.00    -0.319 OA 
BRANCH   7  10
HETATM   10  C   UNL     1      -9.744   5.768  68.422  1.00  0.00    -0.133 C  
HETATM   11  H   UNL     1      -9.860   7.439  67.324  1.00  0.00     0.000 HD 
HETATM   12  O   UNL     1     -10.052   7.163  68.213  1.00  0.00    -0.155 OA 
BRANCH  10  13
HETATM   13  C   UNL     1     -10.488   4.948  67.360  1.00  0.00     0.001 C  
HETATM   14  C   UNL     1      -9.627   3.878  66.663  1.00  0.00    -0.193 C  
HETATM   15  O   UNL     1     -11.127   5.832  66.437  1.00  0.00    -0.717 OA 
HETATM   16  O   UNL     1      -8.793   3.187  67.472  1.00  0.00    -0.111 OA 
HETATM   17  O   UNL     1      -9.735   3.628  65.466  1.00  0.00    -0.170 OA 
HETATM   18  H   UNL     1     -11.588   5.323  65.779  1.00  0.00     0.000 HD 
ENDBRANCH  10  13
ENDBRANCH   7  10
ENDBRANCH   4   7
ENDBRANCH   2   4
TORSDOF 4
ENDMDL
MODEL      295
REMARK 921   NORMALIZED FREE ENERGY PREDICTED BY IDOCK:   -2.03 KCAL/MOL
REMARK 922        TOTAL FREE ENERGY PREDICTED BY IDOCK:   -2.97 KCAL/MOL
REMARK 923 INTER-LIGAND FREE ENERGY PREDICTED BY IDOCK:   -2.52 KCAL/MOL
REMARK 924 INTRA-LIGAND FREE ENERGY PREDICTED BY IDOCK:   -0.45 KCAL/MOL
REMARK 927      BINDING AFFINITY PREDICTED BY RF-SCORE:    0.00 PKD
ROOT
HETATM    1  O   UNL     1     -11.095   5.425  66.104  1.00  0.00    -0.748 OA 
HETATM    2  C   UNL     1     -11.005   6.564  66.965  1.00  0.00    -0.396 C  
HETATM    3  H   UNL     1     -11.652   5.653  65.370  1.00  0.00     0.000 HD 
ENDROOT
BRANCH   2   4
HETATM    4  C   UNL     1     -10.105   6.197  68.149  1.00  0.00    -0.157 C  
HETATM    5  H   UNL     1      -9.694   4.565  69.137  1.00  0.00     0.000 HD 
HETATM    6  O   UNL     1     -10.252   4.793  68.403  1.00  0.00    -0.094 OA 
BRANCH   4   7
HETATM    7  C   UNL     1      -8.625   6.530  67.891  1.00  0.00    -0.117 C  
HETATM    8  H   UNL     1      -7.540   7.269  66.419  1.00  0.00     0.000 HD 
HETATM    9  O   UNL     1      -8.454   7.063  66.578  1.00  0.00    -0.115 OA 
BRANCH   7  10
HETATM   10  C   UNL     1      -8.080   7.536  68.937  1.00  0.00    -0.127 C  
HETATM   11  H   UNL     1      -6.339   8.416  69.388  1.00  0.00     0.000 HD 
HETATM   12  O   UNL     1      -6.674   7.799  68.746  1.00  0.00    -0.051 OA 
BRANCH  10  13
HETATM   13  C   UNL     1      -8.291   7.078  70.385  1.00  0.00    -0.129 C  
HETATM   14  C   UNL     1      -8.028   8.166  71.443  1.00  0.00    -0.106 C  
HETATM   15  O   UNL     1      -7.544   5.884  70.622  1.00  0.00    -0.087 OA 
HETATM   16  O   UNL     1      -8.490   9.399  71.135  1.00  0.00    -0.303 OA 
HETATM   17  O   UNL     1      -7.489   7.918  72.518  1.00  0.00    -0.089 OA 
HETATM   18  H   UNL     1      -7.675   5.600  71.519  1.00  0.00     0.000 HD 
ENDBRANCH  10  13
ENDBRANCH   7  10
ENDBRANCH   4   7
ENDBRANCH   2   4
TORSDOF 4
ENDMDL
MODEL      296
REMARK 921   NORMALIZED FREE ENERGY PREDICTED BY IDOCK:   -2.03 KCAL/MOL
REMARK 922        TOTAL FREE ENERGY PREDICTED BY IDOCK:   -2.97 KCAL/MOL
REMARK 923 INTER-LIGAND FREE ENERGY PREDICTED BY IDOCK:   -2.47 KCAL/MOL
REMARK 924 INTRA-LIGAND FREE ENERGY PREDICTED BY IDOCK:   -0.50 KCAL/MOL
REMARK 927      BINDING AFFINITY PREDICTED BY RF-SCORE:    0.00 PKD
ROOT
HETATM    1  O   UNL     1      -8.113   9.013  69.498  1.00  0.00    -0.098 OA 
HETATM    2  C   UNL     1      -7.441   8.435  68.375  1.00  0.00    -0.095 C  
HETATM    3  H   UNL     1      -8.114   9.956  69.388  1.00  0.00     0.000 HD 
ENDROOT
BRANCH   2   4
HETATM    4  C   UNL     1      -7.440   6.913  68.552  1.00  0.00    -0.096 C  
HETATM    5  H   UNL     1      -7.076   5.679  70.018  1.00  0.00     0.000 HD 
HETATM    6  O   UNL     1      -7.077   6.622  69.909  1.00  0.00    -0.064 OA 
BRANCH   4   7
HETATM    7  C   UNL     1      -8.804   6.280  68.228  1.00  0.00    -0.114 C  
HETATM    8  H   UNL     1     -10.703   6.811  68.301  1.00  0.00     0.000 HD 
HETATM    9  O   UNL     1      -9.860   7.201  68.501  1.00  0.00    -0.148 OA 
BRANCH   7  10
HETATM   10  C   UNL     1      -8.881   5.823  66.749  1.00  0.00    -0.117 C  
HETATM   11  H   UNL     1      -8.952   6.665  64.934  1.00  0.00     0.000 HD 
HETATM   12  O   UNL     1      -8.905   6.945  65.841  1.00  0.00    -0.155 OA 
BRANCH  10  13
HETATM   13  C   UNL     1     -10.097   4.938  66.451  1.00  0.00    -0.258 C  
HETATM   14  C   UNL     1      -9.954   4.060  65.194  1.00  0.00    -0.198 C  
HETATM   15  O   UNL     1     -11.279   5.741  66.433  1.00  0.00    -0.743 OA 
HETATM   16  O   UNL     1      -8.743   3.483  65.024  1.00  0.00    -0.111 OA 
HETATM   17  O   UNL     1     -10.893   3.848  64.432  1.00  0.00    -0.274 OA 
HETATM   18  H   UNL     1     -12.033   5.192  66.249  1.00  0.00     0.000 HD 
ENDBRANCH  10  13
ENDBRANCH   7  10
ENDBRANCH   4   7
ENDBRANCH   2   4
TORSDOF 4
ENDMDL
MODEL      297
REMARK 921   NORMALIZED FREE ENERGY PREDICTED BY IDOCK:   -2.01 KCAL/MOL
REMARK 922        TOTAL FREE ENERGY PREDICTED BY IDOCK:   -2.94 KCAL/MOL
REMARK 923 INTER-LIGAND FREE ENERGY PREDICTED BY IDOCK:   -2.42 KCAL/MOL
REMARK 924 INTRA-LIGAND FREE ENERGY PREDICTED BY IDOCK:   -0.53 KCAL/MOL
REMARK 927      BINDING AFFINITY PREDICTED BY RF-SCORE:    0.00 PKD
ROOT
HETATM    1  O   UNL     1      -6.986  10.857  70.404  1.00  0.00    -0.479 OA 
HETATM    2  C   UNL     1      -7.982  10.125  69.685  1.00  0.00    -0.173 C  
HETATM    3  H   UNL     1      -7.123  10.710  71.332  1.00  0.00     0.000 HD 
ENDROOT
BRANCH   2   4
HETATM    4  C   UNL     1      -7.760  10.362  68.187  1.00  0.00    -0.092 C  
HETATM    5  H   UNL     1      -7.006  11.794  67.098  1.00  0.00     0.000 HD 
HETATM    6  O   UNL     1      -7.143  11.647  68.026  1.00  0.00    -0.073 OA 
BRANCH   4   7
HETATM    7  C   UNL     1      -6.882   9.276  67.542  1.00  0.00    -0.077 C  
HETATM    8  H   UNL     1      -5.736   7.788  68.147  1.00  0.00     0.000 HD 
HETATM    9  O   UNL     1      -6.279   8.459  68.545  1.00  0.00    -0.050 OA 
BRANCH   7  10
HETATM   10  C   UNL     1      -7.701   8.388  66.570  1.00  0.00    -0.089 C  
HETATM   11  H   UNL     1      -7.835   8.075  64.597  1.00  0.00     0.000 HD 
HETATM   12  O   UNL     1      -7.333   8.619  65.193  1.00  0.00    -0.085 OA 
BRANCH  10  13
HETATM   13  C   UNL     1      -9.216   8.585  66.702  1.00  0.00    -0.177 C  
HETATM   14  C   UNL     1      -9.946   7.444  67.434  1.00  0.00    -0.183 C  
HETATM   15  O   UNL     1      -9.775   8.864  65.417  1.00  0.00    -0.455 OA 
HETATM   16  O   UNL     1      -9.312   6.955  68.525  1.00  0.00    -0.136 OA 
HETATM   17  O   UNL     1     -11.054   7.046  67.088  1.00  0.00    -0.350 OA 
HETATM   18  H   UNL     1     -10.714   8.986  65.499  1.00  0.00     0.000 HD 
ENDBRANCH  10  13
ENDBRANCH   7  10
ENDBRANCH   4   7
ENDBRANCH   2   4
TORSDOF 4
ENDMDL
MODEL      298
REMARK 921   NORMALIZED FREE ENERGY PREDICTED BY IDOCK:   -1.99 KCAL/MOL
REMARK 922        TOTAL FREE ENERGY PREDICTED BY IDOCK:   -2.93 KCAL/MOL
REMARK 923 INTER-LIGAND FREE ENERGY PREDICTED BY IDOCK:   -2.72 KCAL/MOL
REMARK 924 INTRA-LIGAND FREE ENERGY PREDICTED BY IDOCK:   -0.21 KCAL/MOL
REMARK 927      BINDING AFFINITY PREDICTED BY RF-SCORE:    0.00 PKD
ROOT
HETATM    1  O   UNL     1     -11.053  11.479  69.358  1.00  0.00    -0.274 OA 
HETATM    2  C   UNL     1     -11.358  10.844  68.114  1.00  0.00    -0.315 C  
HETATM    3  H   UNL     1     -11.839  11.911  69.671  1.00  0.00     0.000 HD 
ENDROOT
BRANCH   2   4
HETATM    4  C   UNL     1     -10.090  10.148  67.610  1.00  0.00    -0.190 C  
HETATM    5  H   UNL     1      -9.593   9.132  66.020  1.00  0.00     0.000 HD 
HETATM    6  O   UNL     1     -10.379   9.563  66.332  1.00  0.00    -0.240 OA 
BRANCH   4   7
HETATM    7  C   UNL     1      -8.897  11.111  67.486  1.00  0.00    -0.139 C  
HETATM    8  H   UNL     1      -7.221  11.218  66.451  1.00  0.00     0.000 HD 
HETATM    9  O   UNL     1      -7.958  10.623  66.528  1.00  0.00    -0.126 OA 
BRANCH   7  10
HETATM   10  C   UNL     1      -9.358  12.536  67.086  1.00  0.00    -0.201 C  
HETATM   11  H   UNL     1      -9.701  13.570  65.407  1.00  0.00     0.000 HD 
HETATM   12  O   UNL     1      -9.419  12.697  65.653  1.00  0.00    -0.129 OA 
BRANCH  10  13
HETATM   13  C   UNL     1      -8.465  13.644  67.656  1.00  0.00    -0.183 C  
HETATM   14  C   UNL     1      -9.106  15.044  67.655  1.00  0.00    -0.182 C  
HETATM   15  O   UNL     1      -7.194  13.617  67.003  1.00  0.00    -0.350 OA 
HETATM   16  O   UNL     1     -10.409  15.086  68.014  1.00  0.00    -0.233 OA 
HETATM   17  O   UNL     1      -8.462  16.059  67.403  1.00  0.00    -0.159 OA 
HETATM   18  H   UNL     1      -6.640  14.303  67.357  1.00  0.00     0.000 HD 
ENDBRANCH  10  13
ENDBRANCH   7  10
ENDBRANCH   4   7
ENDBRANCH   2   4
TORSDOF 4
ENDMDL
MODEL      299
REMARK 921   NORMALIZED FREE ENERGY PREDICTED BY IDOCK:   -1.97 KCAL/MOL
REMARK 922        TOTAL FREE ENERGY PREDICTED BY IDOCK:   -2.90 KCAL/MOL
REMARK 923 INTER-LIGAND FREE ENERGY PREDICTED BY IDOCK:   -2.26 KCAL/MOL
REMARK 924 INTRA-LIGAND FREE ENERGY PREDICTED BY IDOCK:   -0.64 KCAL/MOL
REMARK 927      BINDING AFFINITY PREDICTED BY RF-SCORE:    0.00 PKD
ROOT
HETATM    1  O   UNL     1      -9.443  12.223  68.902  1.00  0.00    -0.401 OA 
HETATM    2  C   UNL     1     -10.345  11.443  68.111  1.00  0.00    -0.188 C  
HETATM    3  H   UNL     1      -9.920  12.969  69.245  1.00  0.00     0.000 HD 
ENDROOT
BRANCH   2   4
HETATM    4  C   UNL     1      -9.576  10.239  67.559  1.00  0.00    -0.156 C  
HETATM    5  H   UNL     1     -10.021   8.672  66.485  1.00  0.00     0.000 HD 
HETATM    6  O   UNL     1     -10.498   9.418  66.827  1.00  0.00    -0.243 OA 
BRANCH   4   7
HETATM    7  C   UNL     1      -8.407  10.652  66.647  1.00  0.00    -0.136 C  
HETATM    8  H   UNL     1      -6.526  11.206  66.862  1.00  0.00     0.000 HD 
HETATM    9  O   UNL     1      -7.248  10.951  67.425  1.00  0.00    -0.088 OA 
BRANCH   7  10
HETATM   10  C   UNL     1      -8.072   9.544  65.617  1.00  0.00    -0.112 C  
HETATM   11  H   UNL     1      -6.978   7.869  65.538  1.00  0.00     0.000 HD 
HETATM   12  O   UNL     1      -7.184   8.549  66.169  1.00  0.00    -0.078 OA 
BRANCH  10  13
HETATM   13  C   UNL     1      -7.444  10.086  64.327  1.00  0.00    -0.137 C  
HETATM   14  C   UNL     1      -7.232   9.028  63.228  1.00  0.00    -0.092 C  
HETATM   15  O   UNL     1      -6.249  10.803  64.643  1.00  0.00    -0.371 OA 
HETATM   16  O   UNL     1      -8.242   8.143  63.071  1.00  0.00    -0.165 OA 
HETATM   17  O   UNL     1      -6.241   9.026  62.503  1.00  0.00    -0.095 OA 
HETATM   18  H   UNL     1      -5.861  11.140  63.843  1.00  0.00     0.000 HD 
ENDBRANCH  10  13
ENDBRANCH   7  10
ENDBRANCH   4   7
ENDBRANCH   2   4
TORSDOF 4
ENDMDL
MODEL      300
REMARK 921   NORMALIZED FREE ENERGY PREDICTED BY IDOCK:   -1.95 KCAL/MOL
REMARK 922        TOTAL FREE ENERGY PREDICTED BY IDOCK:   -2.88 KCAL/MOL
REMARK 923 INTER-LIGAND FREE ENERGY PREDICTED BY IDOCK:   -2.40 KCAL/MOL
REMARK 924 INTRA-LIGAND FREE ENERGY PREDICTED BY IDOCK:   -0.48 KCAL/MOL
REMARK 927      BINDING AFFINITY PREDICTED BY RF-SCORE:    0.00 PKD
ROOT
HETATM    1  O   UNL     1      -8.096   6.779  67.996  1.00  0.00    -0.112 OA 
HETATM    2  C   UNL     1      -9.362   6.123  67.880  1.00  0.00    -0.113 C  
HETATM    3  H   UNL     1      -7.430   6.200  67.645  1.00  0.00     0.000 HD 
ENDROOT
BRANCH   2   4
HETATM    4  C   UNL     1     -10.437   7.058  68.445  1.00  0.00    -0.201 C  
HETATM    5  H   UNL     1     -12.081   6.834  69.472  1.00  0.00     0.000 HD 
HETATM    6  O   UNL     1     -11.415   6.255  69.122  1.00  0.00    -0.394 OA 
BRANCH   4   7
HETATM    7  C   UNL     1      -9.859   8.105  69.413  1.00  0.00    -0.182 C  
HETATM    8  H   UNL     1     -10.243   9.970  69.929  1.00  0.00     0.000 HD 
HETATM    9  O   UNL     1     -10.599   9.323  69.331  1.00  0.00    -0.218 OA 
BRANCH   7  10
HETATM   10  C   UNL     1      -9.865   7.590  70.875  1.00  0.00    -0.177 C  
HETATM   11  H   UNL     1     -10.934   7.866  72.545  1.00  0.00     0.000 HD 
HETATM   12  O   UNL     1     -10.930   8.181  71.649  1.00  0.00    -0.233 OA 
BRANCH  10  13
HETATM   13  C   UNL     1      -8.542   7.839  71.610  1.00  0.00    -0.118 C  
HETATM   14  C   UNL     1      -7.743   6.563  71.935  1.00  0.00    -0.098 C  
HETATM   15  O   UNL     1      -8.782   8.650  72.762  1.00  0.00    -0.387 OA 
HETATM   16  O   UNL     1      -7.713   5.632  70.955  1.00  0.00    -0.091 OA 
HETATM   17  O   UNL     1      -7.126   6.427  72.987  1.00  0.00    -0.081 OA 
HETATM   18  H   UNL     1      -7.962   8.804  73.217  1.00  0.00     0.000 HD 
ENDBRANCH  10  13
ENDBRANCH   7  10
ENDBRANCH   4   7
ENDBRANCH   2   4
TORSDOF 4
ENDMDL
MODEL      301
REMARK 921   NORMALIZED FREE ENERGY PREDICTED BY IDOCK:   -1.95 KCAL/MOL
REMARK 922        TOTAL FREE ENERGY PREDICTED BY IDOCK:   -2.88 KCAL/MOL
REMARK 923 INTER-LIGAND FREE ENERGY PREDICTED BY IDOCK:   -2.64 KCAL/MOL
REMARK 924 INTRA-LIGAND FREE ENERGY PREDICTED BY IDOCK:   -0.24 KCAL/MOL
REMARK 927      BINDING AFFINITY PREDICTED BY RF-SCORE:    0.00 PKD
ROOT
HETATM    1  O   UNL     1      -6.148  10.193  66.339  1.00  0.00    -0.062 OA 
HETATM    2  C   UNL     1      -7.399  10.777  66.714  1.00  0.00    -0.129 C  
HETATM    3  H   UNL     1      -5.570  10.226  67.092  1.00  0.00     0.000 HD 
ENDROOT
BRANCH   2   4
HETATM    4  C   UNL     1      -8.333  10.724  65.500  1.00  0.00    -0.129 C  
HETATM    5  H   UNL     1      -9.492   9.380  64.689  1.00  0.00     0.000 HD 
HETATM    6  O   UNL     1      -8.914   9.413  65.441  1.00  0.00    -0.179 OA 
BRANCH   4   7
HETATM    7  C   UNL     1      -9.444  11.786  65.562  1.00  0.00    -0.168 C  
HETATM    8  H   UNL     1     -10.853  12.482  64.369  1.00  0.00     0.000 HD 
HETATM    9  O   UNL     1     -10.166  11.826  64.331  1.00  0.00    -0.260 OA 
BRANCH   7  10
HETATM   10  C   UNL     1     -10.423  11.515  66.732  1.00  0.00    -0.239 C  
HETATM   11  H   UNL     1     -12.384  11.204  66.990  1.00  0.00     0.000 HD 
HETATM   12  O   UNL     1     -11.783  11.370  66.272  1.00  0.00    -0.309 OA 
BRANCH  10  13
HETATM   13  C   UNL     1     -10.394  12.606  67.811  1.00  0.00    -0.220 C  
HETATM   14  C   UNL     1     -10.927  12.158  69.184  1.00  0.00    -0.161 C  
HETATM   15  O   UNL     1     -11.045  13.779  67.320  1.00  0.00    -0.292 OA 
HETATM   16  O   UNL     1     -10.549  10.921  69.579  1.00  0.00    -0.229 OA 
HETATM   17  O   UNL     1     -11.599  12.897  69.899  1.00  0.00    -0.262 OA 
HETATM   18  H   UNL     1     -11.027  14.455  67.988  1.00  0.00     0.000 HD 
ENDBRANCH  10  13
ENDBRANCH   7  10
ENDBRANCH   4   7
ENDBRANCH   2   4
TORSDOF 4
ENDMDL
MODEL      302
REMARK 921   NORMALIZED FREE ENERGY PREDICTED BY IDOCK:   -1.95 KCAL/MOL
REMARK 922        TOTAL FREE ENERGY PREDICTED BY IDOCK:   -2.87 KCAL/MOL
REMARK 923 INTER-LIGAND FREE ENERGY PREDICTED BY IDOCK:   -2.46 KCAL/MOL
REMARK 924 INTRA-LIGAND FREE ENERGY PREDICTED BY IDOCK:   -0.41 KCAL/MOL
REMARK 927      BINDING AFFINITY PREDICTED BY RF-SCORE:    0.00 PKD
ROOT
HETATM    1  O   UNL     1      -9.860   9.263  65.309  1.00  0.00    -0.453 OA 
HETATM    2  C   UNL     1     -10.108   8.803  66.641  1.00  0.00    -0.288 C  
HETATM    3  H   UNL     1     -10.678   9.586  64.951  1.00  0.00     0.000 HD 
ENDROOT
BRANCH   2   4
HETATM    4  C   UNL     1      -8.788   8.282  67.219  1.00  0.00    -0.130 C  
HETATM    5  H   UNL     1      -6.981   8.002  66.538  1.00  0.00     0.000 HD 
HETATM    6  O   UNL     1      -7.799   8.325  66.180  1.00  0.00    -0.094 OA 
BRANCH   4   7
HETATM    7  C   UNL     1      -8.309   9.101  68.430  1.00  0.00    -0.120 C  
HETATM    8  H   UNL     1      -8.846  10.752  69.366  1.00  0.00     0.000 HD 
HETATM    9  O   UNL     1      -9.141  10.246  68.618  1.00  0.00    -0.138 OA 
BRANCH   7  10
HETATM   10  C   UNL     1      -8.298   8.247  69.723  1.00  0.00    -0.123 C  
HETATM   11  H   UNL     1      -9.508   6.960  70.666  1.00  0.00     0.000 HD 
HETATM   12  O   UNL     1      -9.514   7.484  69.873  1.00  0.00    -0.161 OA 
BRANCH  10  13
HETATM   13  C   UNL     1      -8.093   9.078  70.996  1.00  0.00    -0.159 C  
HETATM   14  C   UNL     1      -7.518   8.289  72.187  1.00  0.00    -0.118 C  
HETATM   15  O   UNL     1      -9.305   9.762  71.319  1.00  0.00    -0.281 OA 
HETATM   16  O   UNL     1      -6.533   7.414  71.882  1.00  0.00    -0.043 OA 
HETATM   17  O   UNL     1      -7.887   8.484  73.341  1.00  0.00    -0.355 OA 
HETATM   18  H   UNL     1      -9.178  10.278  72.108  1.00  0.00     0.000 HD 
ENDBRANCH  10  13
ENDBRANCH   7  10
ENDBRANCH   4   7
ENDBRANCH   2   4
TORSDOF 4
ENDMDL
MODEL      303
REMARK 921   NORMALIZED FREE ENERGY PREDICTED BY IDOCK:   -1.91 KCAL/MOL
REMARK 922        TOTAL FREE ENERGY PREDICTED BY IDOCK:   -2.83 KCAL/MOL
REMARK 923 INTER-LIGAND FREE ENERGY PREDICTED BY IDOCK:   -2.46 KCAL/MOL
REMARK 924 INTRA-LIGAND FREE ENERGY PREDICTED BY IDOCK:   -0.38 KCAL/MOL
REMARK 927      BINDING AFFINITY PREDICTED BY RF-SCORE:    0.00 PKD
ROOT
HETATM    1  O   UNL     1      -7.243  10.609  70.113  1.00  0.00    -0.335 OA 
HETATM    2  C   UNL     1      -8.408  10.571  69.283  1.00  0.00    -0.137 C  
HETATM    3  H   UNL     1      -7.499  10.937  70.966  1.00  0.00     0.000 HD 
ENDROOT
BRANCH   2   4
HETATM    4  C   UNL     1      -7.995  10.042  67.906  1.00  0.00    -0.105 C  
HETATM    5  H   UNL     1      -6.483  10.312  66.703  1.00  0.00     0.000 HD 
HETATM    6  O   UNL     1      -6.739  10.640  67.557  1.00  0.00    -0.068 OA 
BRANCH   4   7
HETATM    7  C   UNL     1      -7.872   8.509  67.875  1.00  0.00    -0.103 C  
HETATM    8  H   UNL     1      -7.176   7.087  69.051  1.00  0.00     0.000 HD 
HETATM    9  O   UNL     1      -7.252   8.034  69.070  1.00  0.00    -0.074 OA 
BRANCH   7  10
HETATM   10  C   UNL     1      -9.255   7.832  67.700  1.00  0.00    -0.136 C  
HETATM   11  H   UNL     1     -10.963   8.172  66.711  1.00  0.00     0.000 HD 
HETATM   12  O   UNL     1     -10.114   8.586  66.819  1.00  0.00    -0.251 OA 
BRANCH  10  13
HETATM   13  C   UNL     1      -9.996   7.618  69.026  1.00  0.00    -0.181 C  
HETATM   14  C   UNL     1     -10.227   6.142  69.396  1.00  0.00    -0.197 C  
HETATM   15  O   UNL     1     -11.202   8.384  69.027  1.00  0.00    -0.412 OA 
HETATM   16  O   UNL     1      -9.185   5.313  69.157  1.00  0.00    -0.111 OA 
HETATM   17  O   UNL     1     -11.263   5.754  69.928  1.00  0.00    -0.346 OA 
HETATM   18  H   UNL     1     -11.661   8.252  69.849  1.00  0.00     0.000 HD 
ENDBRANCH  10  13
ENDBRANCH   7  10
ENDBRANCH   4   7
ENDBRANCH   2   4
TORSDOF 4
ENDMDL
MODEL      304
REMARK 921   NORMALIZED FREE ENERGY PREDICTED BY IDOCK:   -1.90 KCAL/MOL
REMARK 922        TOTAL FREE ENERGY PREDICTED BY IDOCK:   -2.82 KCAL/MOL
REMARK 923 INTER-LIGAND FREE ENERGY PREDICTED BY IDOCK:   -3.34 KCAL/MOL
REMARK 924 INTRA-LIGAND FREE ENERGY PREDICTED BY IDOCK:    0.52 KCAL/MOL
REMARK 927      BINDING AFFINITY PREDICTED BY RF-SCORE:    0.00 PKD
ROOT
HETATM    1  O   UNL     1     -12.121   6.575  70.019  1.00  0.00    -0.576 OA 
HETATM    2  C   UNL     1     -10.888   6.063  69.506  1.00  0.00    -0.369 C  
HETATM    3  H   UNL     1     -12.770   6.533  69.326  1.00  0.00     0.000 HD 
ENDROOT
BRANCH   2   4
HETATM    4  C   UNL     1      -9.842   6.130  70.623  1.00  0.00    -0.179 C  
HETATM    5  H   UNL     1      -8.022   5.472  70.873  1.00  0.00     0.000 HD 
HETATM    6  O   UNL     1      -8.670   5.430  70.180  1.00  0.00    -0.122 OA 
BRANCH   4   7
HETATM    7  C   UNL     1      -9.475   7.576  71.003  1.00  0.00    -0.160 C  
HETATM    8  H   UNL     1     -10.120   9.392  70.585  1.00  0.00     0.000 HD 
HETATM    9  O   UNL     1     -10.347   8.499  70.350  1.00  0.00    -0.194 OA 
BRANCH   7  10
HETATM   10  C   UNL     1      -9.539   7.793  72.536  1.00  0.00    -0.192 C  
HETATM   11  H   UNL     1      -8.483   7.277  74.157  1.00  0.00     0.000 HD 
HETATM   12  O   UNL     1      -8.444   7.144  73.216  1.00  0.00    -0.116 OA 
BRANCH  10  13
HETATM   13  C   UNL     1     -10.851   7.303  73.162  1.00  0.00    -0.357 C  
HETATM   14  C   UNL     1     -10.963   5.773  73.293  1.00  0.00    -0.253 C  
HETATM   15  O   UNL     1     -11.957   7.882  72.467  1.00  0.00    -0.462 OA 
HETATM   16  O   UNL     1      -9.838   5.141  73.699  1.00  0.00    -0.153 OA 
HETATM   17  O   UNL     1     -12.018   5.174  73.102  1.00  0.00    -0.206 OA 
HETATM   18  H   UNL     1     -12.770   7.579  72.855  1.00  0.00     0.000 HD 
ENDBRANCH  10  13
ENDBRANCH   7  10
ENDBRANCH   4   7
ENDBRANCH   2   4
TORSDOF 4
ENDMDL
MODEL      305
REMARK 921   NORMALIZED FREE ENERGY PREDICTED BY IDOCK:   -1.90 KCAL/MOL
REMARK 922        TOTAL FREE ENERGY PREDICTED BY IDOCK:   -2.81 KCAL/MOL
REMARK 923 INTER-LIGAND FREE ENERGY PREDICTED BY IDOCK:   -2.43 KCAL/MOL
REMARK 924 INTRA-LIGAND FREE ENERGY PREDICTED BY IDOCK:   -0.38 KCAL/MOL
REMARK 927      BINDING AFFINITY PREDICTED BY RF-SCORE:    0.00 PKD
ROOT
HETATM    1  O   UNL     1      -7.274   5.012  64.069  1.00  0.00    -0.049 OA 
HETATM    2  C   UNL     1      -7.586   6.195  64.810  1.00  0.00    -0.092 C  
HETATM    3  H   UNL     1      -6.713   5.257  63.343  1.00  0.00     0.000 HD 
ENDROOT
BRANCH   2   4
HETATM    4  C   UNL     1      -8.492   5.799  65.982  1.00  0.00    -0.135 C  
HETATM    5  H   UNL     1      -8.359   4.576  67.496  1.00  0.00     0.000 HD 
HETATM    6  O   UNL     1      -7.798   4.821  66.770  1.00  0.00    -0.097 OA 
BRANCH   4   7
HETATM    7  C   UNL     1      -8.879   7.000  66.861  1.00  0.00    -0.124 C  
HETATM    8  H   UNL     1      -9.565   8.831  66.594  1.00  0.00     0.000 HD 
HETATM    9  O   UNL     1      -9.325   8.088  66.051  1.00  0.00    -0.171 OA 
BRANCH   7  10
HETATM   10  C   UNL     1      -9.983   6.623  67.881  1.00  0.00    -0.132 C  
HETATM   11  H   UNL     1     -11.959   6.301  67.883  1.00  0.00     0.000 HD 
HETATM   12  O   UNL     1     -11.282   6.532  67.257  1.00  0.00    -0.376 OA 
BRANCH  10  13
HETATM   13  C   UNL     1     -10.083   7.604  69.056  1.00  0.00    -0.198 C  
HETATM   14  C   UNL     1     -11.063   7.176  70.163  1.00  0.00    -0.272 C  
HETATM   15  O   UNL     1     -10.348   8.918  68.560  1.00  0.00    -0.195 OA 
HETATM   16  O   UNL     1     -11.037   5.863  70.486  1.00  0.00    -0.311 OA 
HETATM   17  O   UNL     1     -11.776   7.982  70.755  1.00  0.00    -0.278 OA 
HETATM   18  H   UNL     1     -10.409   9.526  69.288  1.00  0.00     0.000 HD 
ENDBRANCH  10  13
ENDBRANCH   7  10
ENDBRANCH   4   7
ENDBRANCH   2   4
TORSDOF 4
ENDMDL
MODEL      306
REMARK 921   NORMALIZED FREE ENERGY PREDICTED BY IDOCK:   -1.87 KCAL/MOL
REMARK 922        TOTAL FREE ENERGY PREDICTED BY IDOCK:   -2.78 KCAL/MOL
REMARK 923 INTER-LIGAND FREE ENERGY PREDICTED BY IDOCK:   -2.04 KCAL/MOL
REMARK 924 INTRA-LIGAND FREE ENERGY PREDICTED BY IDOCK:   -0.74 KCAL/MOL
REMARK 927      BINDING AFFINITY PREDICTED BY RF-SCORE:    0.00 PKD
ROOT
HETATM    1  O   UNL     1      -7.511  10.245  70.659  1.00  0.00    -0.431 OA 
HETATM    2  C   UNL     1      -6.933   8.937  70.684  1.00  0.00    -0.064 C  
HETATM    3  H   UNL     1      -6.941  10.810  70.151  1.00  0.00     0.000 HD 
ENDROOT
BRANCH   2   4
HETATM    4  C   UNL     1      -7.852   8.026  71.504  1.00  0.00    -0.100 C  
HETATM    5  H   UNL     1      -8.988   8.239  73.077  1.00  0.00     0.000 HD 
HETATM    6  O   UNL     1      -8.418   8.804  72.569  1.00  0.00    -0.403 OA 
BRANCH   4   7
HETATM    7  C   UNL     1      -8.975   7.403  70.657  1.00  0.00    -0.155 C  
HETATM    8  H   UNL     1      -9.743   7.655  68.858  1.00  0.00     0.000 HD 
HETATM    9  O   UNL     1      -9.049   8.040  69.381  1.00  0.00    -0.148 OA 
BRANCH   7  10
HETATM   10  C   UNL     1      -8.765   5.880  70.468  1.00  0.00    -0.140 C  
HETATM   11  H   UNL     1      -7.582   4.439  71.199  1.00  0.00     0.000 HD 
HETATM   12  O   UNL     1      -7.711   5.374  71.315  1.00  0.00    -0.097 OA 
BRANCH  10  13
HETATM   13  C   UNL     1      -8.446   5.488  69.019  1.00  0.00    -0.101 C  
HETATM   14  C   UNL     1      -8.548   3.979  68.730  1.00  0.00    -0.089 C  
HETATM   15  O   UNL     1      -7.183   6.040  68.643  1.00  0.00    -0.079 OA 
HETATM   16  O   UNL     1      -9.600   3.348  69.299  1.00  0.00    -0.173 OA 
HETATM   17  O   UNL     1      -7.762   3.400  67.985  1.00  0.00    -0.064 OA 
HETATM   18  H   UNL     1      -6.986   5.797  67.745  1.00  0.00     0.000 HD 
ENDBRANCH  10  13
ENDBRANCH   7  10
ENDBRANCH   4   7
ENDBRANCH   2   4
TORSDOF 4
ENDMDL
MODEL      307
REMARK 921   NORMALIZED FREE ENERGY PREDICTED BY IDOCK:   -1.86 KCAL/MOL
REMARK 922        TOTAL FREE ENERGY PREDICTED BY IDOCK:   -2.76 KCAL/MOL
REMARK 923 INTER-LIGAND FREE ENERGY PREDICTED BY IDOCK:   -2.65 KCAL/MOL
REMARK 924 INTRA-LIGAND FREE ENERGY PREDICTED BY IDOCK:   -0.11 KCAL/MOL
REMARK 927      BINDING AFFINITY PREDICTED BY RF-SCORE:    0.00 PKD
ROOT
HETATM    1  O   UNL     1      -8.545   3.988  69.705  1.00  0.00    -0.066 OA 
HETATM    2  C   UNL     1      -9.197   3.801  70.964  1.00  0.00    -0.130 C  
HETATM    3  H   UNL     1      -8.799   3.274  69.132  1.00  0.00     0.000 HD 
ENDROOT
BRANCH   2   4
HETATM    4  C   UNL     1      -8.788   4.953  71.888  1.00  0.00    -0.128 C  
HETATM    5  H   UNL     1      -7.303   6.216  71.971  1.00  0.00     0.000 HD 
HETATM    6  O   UNL     1      -7.556   5.502  71.398  1.00  0.00    -0.097 OA 
BRANCH   4   7
HETATM    7  C   UNL     1      -9.858   6.056  71.966  1.00  0.00    -0.156 C  
HETATM    8  H   UNL     1     -11.816   6.163  72.177  1.00  0.00     0.000 HD 
HETATM    9  O   UNL     1     -11.155   5.482  72.129  1.00  0.00    -0.245 OA 
BRANCH   7  10
HETATM   10  C   UNL     1      -9.574   7.040  73.129  1.00  0.00    -0.166 C  
HETATM   11  H   UNL     1     -10.505   7.713  74.769  1.00  0.00     0.000 HD 
HETATM   12  O   UNL     1     -10.678   7.109  74.056  1.00  0.00    -0.283 OA 
BRANCH  10  13
HETATM   13  C   UNL     1      -9.257   8.463  72.653  1.00  0.00    -0.254 C  
HETATM   14  C   UNL     1     -10.237   9.018  71.603  1.00  0.00    -0.348 C  
HETATM   15  O   UNL     1      -7.894   8.532  72.228  1.00  0.00    -0.219 OA 
HETATM   16  O   UNL     1     -11.543   8.743  71.826  1.00  0.00    -0.299 OA 
HETATM   17  O   UNL     1      -9.866   9.715  70.663  1.00  0.00    -0.265 OA 
HETATM   18  H   UNL     1      -7.698   9.413  71.933  1.00  0.00     0.000 HD 
ENDBRANCH  10  13
ENDBRANCH   7  10
ENDBRANCH   4   7
ENDBRANCH   2   4
TORSDOF 4
ENDMDL
MODEL      308
REMARK 921   NORMALIZED FREE ENERGY PREDICTED BY IDOCK:   -1.84 KCAL/MOL
REMARK 922        TOTAL FREE ENERGY PREDICTED BY IDOCK:   -2.73 KCAL/MOL
REMARK 923 INTER-LIGAND FREE ENERGY PREDICTED BY IDOCK:   -2.50 KCAL/MOL
REMARK 924 INTRA-LIGAND FREE ENERGY PREDICTED BY IDOCK:   -0.24 KCAL/MOL
REMARK 927      BINDING AFFINITY PREDICTED BY RF-SCORE:    0.00 PKD
ROOT
HETATM    1  O   UNL     1     -12.549   6.807  70.188  1.00  0.00    -0.511 OA 
HETATM    2  C   UNL     1     -11.388   6.358  69.483  1.00  0.00    -0.393 C  
HETATM    3  H   UNL     1     -13.219   6.139  70.109  1.00  0.00     0.000 HD 
ENDROOT
BRANCH   2   4
HETATM    4  C   UNL     1     -10.306   7.437  69.610  1.00  0.00    -0.223 C  
HETATM    5  H   UNL     1      -8.393   7.455  69.990  1.00  0.00     0.000 HD 
HETATM    6  O   UNL     1      -9.063   6.787  69.911  1.00  0.00    -0.144 OA 
BRANCH   4   7
HETATM    7  C   UNL     1     -10.160   8.280  68.332  1.00  0.00    -0.201 C  
HETATM    8  H   UNL     1     -10.280  10.184  67.830  1.00  0.00     0.000 HD 
HETATM    9  O   UNL     1     -10.370   9.663  68.619  1.00  0.00    -0.189 OA 
BRANCH   7  10
HETATM   10  C   UNL     1      -8.765   8.089  67.684  1.00  0.00    -0.126 C  
HETATM   11  H   UNL     1      -7.190   9.219  67.184  1.00  0.00     0.000 HD 
HETATM   12  O   UNL     1      -8.045   9.336  67.582  1.00  0.00    -0.103 OA 
BRANCH  10  13
HETATM   13  C   UNL     1      -8.828   7.455  66.288  1.00  0.00    -0.159 C  
HETATM   14  C   UNL     1      -8.470   5.958  66.251  1.00  0.00    -0.128 C  
HETATM   15  O   UNL     1      -8.051   8.233  65.375  1.00  0.00    -0.118 OA 
HETATM   16  O   UNL     1      -8.971   5.216  67.264  1.00  0.00    -0.113 OA 
HETATM   17  O   UNL     1      -7.825   5.461  65.332  1.00  0.00    -0.089 OA 
HETATM   18  H   UNL     1      -8.091   7.841  64.511  1.00  0.00     0.000 HD 
ENDBRANCH  10  13
ENDBRANCH   7  10
ENDBRANCH   4   7
ENDBRANCH   2   4
TORSDOF 4
ENDMDL
MODEL      309
REMARK 921   NORMALIZED FREE ENERGY PREDICTED BY IDOCK:   -1.83 KCAL/MOL
REMARK 922        TOTAL FREE ENERGY PREDICTED BY IDOCK:   -2.73 KCAL/MOL
REMARK 923 INTER-LIGAND FREE ENERGY PREDICTED BY IDOCK:   -2.37 KCAL/MOL
REMARK 924 INTRA-LIGAND FREE ENERGY PREDICTED BY IDOCK:   -0.36 KCAL/MOL
REMARK 927      BINDING AFFINITY PREDICTED BY RF-SCORE:    0.00 PKD
ROOT
HETATM    1  O   UNL     1      -8.679   2.603  68.235  1.00  0.00    -0.082 OA 
HETATM    2  C   UNL     1      -8.762   3.924  68.776  1.00  0.00    -0.099 C  
HETATM    3  H   UNL     1      -8.064   2.617  67.511  1.00  0.00     0.000 HD 
ENDROOT
BRANCH   2   4
HETATM    4  C   UNL     1      -9.754   3.901  69.943  1.00  0.00    -0.164 C  
HETATM    5  H   UNL     1      -9.664   3.462  71.842  1.00  0.00     0.000 HD 
HETATM    6  O   UNL     1      -9.049   3.477  71.119  1.00  0.00    -0.090 OA 
BRANCH   4   7
HETATM    7  C   UNL     1     -10.407   5.272  70.191  1.00  0.00    -0.284 C  
HETATM    8  H   UNL     1     -10.592   6.540  71.690  1.00  0.00     0.000 HD 
HETATM    9  O   UNL     1     -10.188   5.693  71.537  1.00  0.00    -0.194 OA 
BRANCH   7  10
HETATM   10  C   UNL     1      -9.862   6.344  69.213  1.00  0.00    -0.147 C  
HETATM   11  H   UNL     1      -8.467   7.780  69.208  1.00  0.00     0.000 HD 
HETATM   12  O   UNL     1      -8.801   7.122  69.807  1.00  0.00    -0.141 OA 
BRANCH  10  13
HETATM   13  C   UNL     1     -10.942   7.310  68.711  1.00  0.00    -0.003 C  
HETATM   14  C   UNL     1     -10.478   8.257  67.589  1.00  0.00    -0.235 C  
HETATM   15  O   UNL     1     -11.515   8.005  69.820  1.00  0.00    -0.454 OA 
HETATM   16  O   UNL     1      -9.695   7.695  66.641  1.00  0.00    -0.202 OA 
HETATM   17  O   UNL     1     -10.844   9.428  67.527  1.00  0.00    -0.269 OA 
HETATM   18  H   UNL     1     -12.185   8.603  69.508  1.00  0.00     0.000 HD 
ENDBRANCH  10  13
ENDBRANCH   7  10
ENDBRANCH   4   7
ENDBRANCH   2   4
TORSDOF 4
ENDMDL
MODEL      310
REMARK 921   NORMALIZED FREE ENERGY PREDICTED BY IDOCK:   -1.82 KCAL/MOL
REMARK 922        TOTAL FREE ENERGY PREDICTED BY IDOCK:   -2.71 KCAL/MOL
REMARK 923 INTER-LIGAND FREE ENERGY PREDICTED BY IDOCK:   -2.75 KCAL/MOL
REMARK 924 INTRA-LIGAND FREE ENERGY PREDICTED BY IDOCK:    0.04 KCAL/MOL
REMARK 927      BINDING AFFINITY PREDICTED BY RF-SCORE:    0.00 PKD
ROOT
HETATM    1  O   UNL     1      -9.644  11.627  69.141  1.00  0.00    -0.410 OA 
HETATM    2  C   UNL     1     -10.501  10.848  68.302  1.00  0.00    -0.179 C  
HETATM    3  H   UNL     1     -10.075  12.455  69.315  1.00  0.00     0.000 HD 
ENDROOT
BRANCH   2   4
HETATM    4  C   UNL     1      -9.806   9.511  68.021  1.00  0.00    -0.155 C  
HETATM    5  H   UNL     1      -8.079   8.717  68.460  1.00  0.00     0.000 HD 
HETATM    6  O   UNL     1      -8.509   9.545  68.635  1.00  0.00    -0.115 OA 
BRANCH   4   7
HETATM    7  C   UNL     1     -10.604   8.308  68.552  1.00  0.00    -0.100 C  
HETATM    8  H   UNL     1     -11.581   6.769  67.797  1.00  0.00     0.000 HD 
HETATM    9  O   UNL     1     -11.088   7.513  67.469  1.00  0.00    -0.114 OA 
BRANCH   7  10
HETATM   10  C   UNL     1      -9.746   7.432  69.499  1.00  0.00    -0.159 C  
HETATM   11  H   UNL     1      -9.560   5.496  69.974  1.00  0.00     0.000 HD 
HETATM   12  O   UNL     1     -10.087   6.033  69.393  1.00  0.00    -0.168 OA 
BRANCH  10  13
HETATM   13  C   UNL     1      -9.858   7.843  70.973  1.00  0.00    -0.170 C  
HETATM   14  C   UNL     1     -11.302   8.038  71.472  1.00  0.00    -0.259 C  
HETATM   15  O   UNL     1      -9.031   8.984  71.214  1.00  0.00    -0.225 OA 
HETATM   16  O   UNL     1     -12.194   7.116  71.042  1.00  0.00    -0.342 OA 
HETATM   17  O   UNL     1     -11.610   8.932  72.255  1.00  0.00    -0.353 OA 
HETATM   18  H   UNL     1      -9.101   9.238  72.127  1.00  0.00     0.000 HD 
ENDBRANCH  10  13
ENDBRANCH   7  10
ENDBRANCH   4   7
ENDBRANCH   2   4
TORSDOF 4
ENDMDL
MODEL      311
REMARK 921   NORMALIZED FREE ENERGY PREDICTED BY IDOCK:   -1.80 KCAL/MOL
REMARK 922        TOTAL FREE ENERGY PREDICTED BY IDOCK:   -2.69 KCAL/MOL
REMARK 923 INTER-LIGAND FREE ENERGY PREDICTED BY IDOCK:   -2.09 KCAL/MOL
REMARK 924 INTRA-LIGAND FREE ENERGY PREDICTED BY IDOCK:   -0.60 KCAL/MOL
REMARK 927      BINDING AFFINITY PREDICTED BY RF-SCORE:    0.00 PKD
ROOT
HETATM    1  O   UNL     1     -10.712   4.043  72.703  1.00  0.00    -0.148 OA 
HETATM    2  C   UNL     1      -9.572   4.908  72.708  1.00  0.00    -0.139 C  
HETATM    3  H   UNL     1     -11.109   4.074  73.565  1.00  0.00     0.000 HD 
ENDROOT
BRANCH   2   4
HETATM    4  C   UNL     1      -8.931   4.859  71.316  1.00  0.00    -0.133 C  
HETATM    5  H   UNL     1      -7.962   3.525  70.273  1.00  0.00     0.000 HD 
HETATM    6  O   UNL     1      -8.359   3.556  71.135  1.00  0.00    -0.065 OA 
BRANCH   4   7
HETATM    7  C   UNL     1      -9.940   5.148  70.191  1.00  0.00    -0.253 C  
HETATM    8  H   UNL     1     -11.540   6.272  69.932  1.00  0.00     0.000 HD 
HETATM    9  O   UNL     1     -10.917   6.093  70.627  1.00  0.00    -0.273 OA 
BRANCH   7  10
HETATM   10  C   UNL     1      -9.232   5.680  68.919  1.00  0.00    -0.119 C  
HETATM   11  H   UNL     1      -7.494   6.549  68.437  1.00  0.00     0.000 HD 
HETATM   12  O   UNL     1      -7.928   6.223  69.217  1.00  0.00    -0.106 OA 
BRANCH  10  13
HETATM   13  C   UNL     1     -10.041   6.754  68.180  1.00  0.00    -0.164 C  
HETATM   14  C   UNL     1      -9.645   6.948  66.705  1.00  0.00    -0.168 C  
HETATM   15  O   UNL     1     -10.011   7.972  68.927  1.00  0.00    -0.183 OA 
HETATM   16  O   UNL     1      -9.396   5.811  66.016  1.00  0.00    -0.161 OA 
HETATM   17  O   UNL     1      -9.616   8.055  66.175  1.00  0.00    -0.179 OA 
HETATM   18  H   UNL     1     -10.513   8.637  68.469  1.00  0.00     0.000 HD 
ENDBRANCH  10  13
ENDBRANCH   7  10
ENDBRANCH   4   7
ENDBRANCH   2   4
TORSDOF 4
ENDMDL
MODEL      312
REMARK 921   NORMALIZED FREE ENERGY PREDICTED BY IDOCK:   -1.79 KCAL/MOL
REMARK 922        TOTAL FREE ENERGY PREDICTED BY IDOCK:   -2.68 KCAL/MOL
REMARK 923 INTER-LIGAND FREE ENERGY PREDICTED BY IDOCK:   -2.82 KCAL/MOL
REMARK 924 INTRA-LIGAND FREE ENERGY PREDICTED BY IDOCK:    0.14 KCAL/MOL
REMARK 927      BINDING AFFINITY PREDICTED BY RF-SCORE:    0.00 PKD
ROOT
HETATM    1  O   UNL     1      -8.099   9.081  71.919  1.00  0.00    -0.359 OA 
HETATM    2  C   UNL     1      -7.721   9.224  70.547  1.00  0.00    -0.148 C  
HETATM    3  H   UNL     1      -8.036   9.933  72.334  1.00  0.00     0.000 HD 
ENDROOT
BRANCH   2   4
HETATM    4  C   UNL     1      -7.823   7.849  69.878  1.00  0.00    -0.103 C  
HETATM    5  H   UNL     1      -7.766   5.995  70.483  1.00  0.00     0.000 HD 
HETATM    6  O   UNL     1      -7.703   6.847  70.898  1.00  0.00    -0.090 OA 
BRANCH   4   7
HETATM    7  C   UNL     1      -9.145   7.661  69.113  1.00  0.00    -0.141 C  
HETATM    8  H   UNL     1     -10.402   6.190  68.731  1.00  0.00     0.000 HD 
HETATM    9  O   UNL     1      -9.585   6.306  69.203  1.00  0.00    -0.135 OA 
BRANCH   7  10
HETATM   10  C   UNL     1     -10.250   8.606  69.652  1.00  0.00    -0.208 C  
HETATM   11  H   UNL     1     -12.189   8.500  70.141  1.00  0.00     0.000 HD 
HETATM   12  O   UNL     1     -11.511   7.921  69.810  1.00  0.00     0.015 OA 
BRANCH  10  13
HETATM   13  C   UNL     1     -10.480   9.836  68.765  1.00  0.00    -0.218 C  
HETATM   14  C   UNL     1     -11.633  10.747  69.226  1.00  0.00    -0.305 C  
HETATM   15  O   UNL     1     -10.610   9.425  67.403  1.00  0.00    -0.265 OA 
HETATM   16  O   UNL     1     -11.713  10.952  70.560  1.00  0.00    -0.318 OA 
HETATM   17  O   UNL     1     -12.389  11.299  68.432  1.00  0.00    -0.545 OA 
HETATM   18  H   UNL     1     -10.752  10.187  66.854  1.00  0.00     0.000 HD 
ENDBRANCH  10  13
ENDBRANCH   7  10
ENDBRANCH   4   7
ENDBRANCH   2   4
TORSDOF 4
ENDMDL
MODEL      313
REMARK 921   NORMALIZED FREE ENERGY PREDICTED BY IDOCK:   -1.78 KCAL/MOL
REMARK 922        TOTAL FREE ENERGY PREDICTED BY IDOCK:   -2.67 KCAL/MOL
REMARK 923 INTER-LIGAND FREE ENERGY PREDICTED BY IDOCK:   -2.45 KCAL/MOL
REMARK 924 INTRA-LIGAND FREE ENERGY PREDICTED BY IDOCK:   -0.22 KCAL/MOL
REMARK 927      BINDING AFFINITY PREDICTED BY RF-SCORE:    0.00 PKD
ROOT
HETATM    1  O   UNL     1      -8.035   6.975  68.106  1.00  0.00    -0.115 OA 
HETATM    2  C   UNL     1      -8.751   5.781  68.433  1.00  0.00    -0.111 C  
HETATM    3  H   UNL     1      -7.804   6.939  67.186  1.00  0.00     0.000 HD 
ENDROOT
BRANCH   2   4
HETATM    4  C   UNL     1      -9.124   5.840  69.918  1.00  0.00    -0.144 C  
HETATM    5  H   UNL     1      -8.178   5.581  71.605  1.00  0.00     0.000 HD 
HETATM    6  O   UNL     1      -7.947   5.544  70.685  1.00  0.00    -0.098 OA 
BRANCH   4   7
HETATM    7  C   UNL     1      -9.687   7.211  70.332  1.00  0.00    -0.176 C  
HETATM    8  H   UNL     1     -10.572   8.739  69.453  1.00  0.00     0.000 HD 
HETATM    9  O   UNL     1     -10.224   7.893  69.198  1.00  0.00    -0.206 OA 
BRANCH   7  10
HETATM   10  C   UNL     1     -10.780   7.069  71.421  1.00  0.00    -0.219 C  
HETATM   11  H   UNL     1     -12.185   8.211  72.276  1.00  0.00     0.000 HD 
HETATM   12  O   UNL     1     -11.515   8.297  71.608  1.00  0.00    -0.254 OA 
BRANCH  10  13
HETATM   13  C   UNL     1     -10.226   6.629  72.782  1.00  0.00    -0.187 C  
HETATM   14  C   UNL     1     -10.774   5.282  73.289  1.00  0.00    -0.277 C  
HETATM   15  O   UNL     1     -10.392   7.686  73.729  1.00  0.00    -0.349 OA 
HETATM   16  O   UNL     1     -10.890   4.314  72.353  1.00  0.00    -0.073 OA 
HETATM   17  O   UNL     1     -11.031   5.083  74.473  1.00  0.00    -0.244 OA 
HETATM   18  H   UNL     1     -10.048   7.414  74.572  1.00  0.00     0.000 HD 
ENDBRANCH  10  13
ENDBRANCH   7  10
ENDBRANCH   4   7
ENDBRANCH   2   4
TORSDOF 4
ENDMDL
MODEL      314
REMARK 921   NORMALIZED FREE ENERGY PREDICTED BY IDOCK:   -1.75 KCAL/MOL
REMARK 922        TOTAL FREE ENERGY PREDICTED BY IDOCK:   -2.63 KCAL/MOL
REMARK 923 INTER-LIGAND FREE ENERGY PREDICTED BY IDOCK:   -2.22 KCAL/MOL
REMARK 924 INTRA-LIGAND FREE ENERGY PREDICTED BY IDOCK:   -0.41 KCAL/MOL
REMARK 927      BINDING AFFINITY PREDICTED BY RF-SCORE:    0.00 PKD
ROOT
HETATM    1  O   UNL     1      -9.756   3.771  72.515  1.00  0.00    -0.131 OA 
HETATM    2  C   UNL     1      -8.673   4.644  72.182  1.00  0.00    -0.119 C  
HETATM    3  H   UNL     1      -9.481   3.222  73.240  1.00  0.00     0.000 HD 
ENDROOT
BRANCH   2   4
HETATM    4  C   UNL     1      -9.117   5.529  71.012  1.00  0.00    -0.144 C  
HETATM    5  H   UNL     1      -9.976   5.233  69.286  1.00  0.00     0.000 HD 
HETATM    6  O   UNL     1      -9.700   4.684  70.010  1.00  0.00    -0.169 OA 
BRANCH   4   7
HETATM    7  C   UNL     1     -10.127   6.608  71.439  1.00  0.00    -0.190 C  
HETATM    8  H   UNL     1     -11.059   7.149  73.092  1.00  0.00     0.000 HD 
HETATM    9  O   UNL     1     -10.435   6.482  72.828  1.00  0.00    -0.198 OA 
BRANCH   7  10
HETATM   10  C   UNL     1      -9.589   8.033  71.152  1.00  0.00    -0.160 C  
HETATM   11  H   UNL     1      -9.543   9.817  72.061  1.00  0.00     0.000 HD 
HETATM   12  O   UNL     1      -9.873   8.943  72.236  1.00  0.00    -0.284 OA 
BRANCH  10  13
HETATM   13  C   UNL     1     -10.145   8.641  69.858  1.00  0.00    -0.194 C  
HETATM   14  C   UNL     1      -9.076   9.238  68.924  1.00  0.00    -0.139 C  
HETATM   15  O   UNL     1     -11.184   9.568  70.174  1.00  0.00    -0.240 OA 
HETATM   16  O   UNL     1      -7.941   8.513  68.801  1.00  0.00    -0.114 OA 
HETATM   17  O   UNL     1      -9.265  10.270  68.287  1.00  0.00    -0.134 OA 
HETATM   18  H   UNL     1     -11.529   9.944  69.372  1.00  0.00     0.000 HD 
ENDBRANCH  10  13
ENDBRANCH   7  10
ENDBRANCH   4   7
ENDBRANCH   2   4
TORSDOF 4
ENDMDL
MODEL      315
REMARK 921   NORMALIZED FREE ENERGY PREDICTED BY IDOCK:   -1.72 KCAL/MOL
REMARK 922        TOTAL FREE ENERGY PREDICTED BY IDOCK:   -2.59 KCAL/MOL
REMARK 923 INTER-LIGAND FREE ENERGY PREDICTED BY IDOCK:   -2.15 KCAL/MOL
REMARK 924 INTRA-LIGAND FREE ENERGY PREDICTED BY IDOCK:   -0.44 KCAL/MOL
REMARK 927      BINDING AFFINITY PREDICTED BY RF-SCORE:    0.00 PKD
ROOT
HETATM    1  O   UNL     1     -12.062   6.435  71.502  1.00  0.00    -0.328 OA 
HETATM    2  C   UNL     1     -10.667   6.420  71.189  1.00  0.00    -0.244 C  
HETATM    3  H   UNL     1     -12.237   5.723  72.105  1.00  0.00     0.000 HD 
ENDROOT
BRANCH   2   4
HETATM    4  C   UNL     1     -10.384   7.569  70.215  1.00  0.00    -0.213 C  
HETATM    5  H   UNL     1     -10.432   9.518  70.305  1.00  0.00     0.000 HD 
HETATM    6  O   UNL     1     -10.607   8.806  70.908  1.00  0.00    -0.199 OA 
BRANCH   4   7
HETATM    7  C   UNL     1      -8.950   7.533  69.660  1.00  0.00    -0.141 C  
HETATM    8  H   UNL     1      -7.483   6.222  69.518  1.00  0.00     0.000 HD 
HETATM    9  O   UNL     1      -8.369   6.245  69.861  1.00  0.00    -0.125 OA 
BRANCH   7  10
HETATM   10  C   UNL     1      -8.917   7.889  68.152  1.00  0.00    -0.131 C  
HETATM   11  H   UNL     1     -10.195   8.515  66.743  1.00  0.00     0.000 HD 
HETATM   12  O   UNL     1     -10.215   8.296  67.668  1.00  0.00    -0.200 OA 
BRANCH  10  13
HETATM   13  C   UNL     1      -8.414   6.740  67.269  1.00  0.00    -0.120 C  
HETATM   14  C   UNL     1      -8.140   7.133  65.805  1.00  0.00    -0.130 C  
HETATM   15  O   UNL     1      -9.301   5.626  67.385  1.00  0.00    -0.112 OA 
HETATM   16  O   UNL     1      -7.532   8.328  65.630  1.00  0.00    -0.077 OA 
HETATM   17  O   UNL     1      -8.400   6.386  64.866  1.00  0.00    -0.132 OA 
HETATM   18  H   UNL     1      -8.989   4.914  66.839  1.00  0.00     0.000 HD 
ENDBRANCH  10  13
ENDBRANCH   7  10
ENDBRANCH   4   7
ENDBRANCH   2   4
TORSDOF 4
ENDMDL
MODEL      316
REMARK 921   NORMALIZED FREE ENERGY PREDICTED BY IDOCK:   -1.71 KCAL/MOL
REMARK 922        TOTAL FREE ENERGY PREDICTED BY IDOCK:   -2.58 KCAL/MOL
REMARK 923 INTER-LIGAND FREE ENERGY PREDICTED BY IDOCK:   -2.35 KCAL/MOL
REMARK 924 INTRA-LIGAND FREE ENERGY PREDICTED BY IDOCK:   -0.23 KCAL/MOL
REMARK 927      BINDING AFFINITY PREDICTED BY RF-SCORE:    0.00 PKD
ROOT
HETATM    1  O   UNL     1      -7.362   5.200  64.126  1.00  0.00    -0.053 OA 
HETATM    2  C   UNL     1      -7.554   6.539  64.589  1.00  0.00    -0.100 C  
HETATM    3  H   UNL     1      -6.700   5.214  63.446  1.00  0.00     0.000 HD 
ENDROOT
BRANCH   2   4
HETATM    4  C   UNL     1      -8.623   6.516  65.687  1.00  0.00    -0.126 C  
HETATM    5  H   UNL     1      -8.828   5.636  67.416  1.00  0.00     0.000 HD 
HETATM    6  O   UNL     1      -8.166   5.650  66.736  1.00  0.00    -0.105 OA 
BRANCH   4   7
HETATM    7  C   UNL     1      -8.917   7.915  66.255  1.00  0.00    -0.171 C  
HETATM    8  H   UNL     1      -8.332   9.010  67.788  1.00  0.00     0.000 HD 
HETATM    9  O   UNL     1      -8.151   8.145  67.438  1.00  0.00    -0.118 OA 
BRANCH   7  10
HETATM   10  C   UNL     1      -8.615   9.024  65.214  1.00  0.00    -0.174 C  
HETATM   11  H   UNL     1      -7.283  10.496  64.954  1.00  0.00     0.000 HD 
HETATM   12  O   UNL     1      -7.469   9.816  65.591  1.00  0.00    -0.101 OA 
BRANCH  10  13
HETATM   13  C   UNL     1      -9.797   9.972  64.979  1.00  0.00    -0.304 C  
HETATM   14  C   UNL     1      -9.658  10.869  63.735  1.00  0.00    -0.292 C  
HETATM   15  O   UNL     1     -10.057  10.715  66.171  1.00  0.00    -0.231 OA 
HETATM   16  O   UNL     1      -9.153  10.263  62.636  1.00  0.00    -0.228 OA 
HETATM   17  O   UNL     1     -10.035  12.037  63.724  1.00  0.00    -0.349 OA 
HETATM   18  H   UNL     1     -10.790  11.302  66.025  1.00  0.00     0.000 HD 
ENDBRANCH  10  13
ENDBRANCH   7  10
ENDBRANCH   4   7
ENDBRANCH   2   4
TORSDOF 4
ENDMDL
MODEL      317
REMARK 921   NORMALIZED FREE ENERGY PREDICTED BY IDOCK:   -1.70 KCAL/MOL
REMARK 922        TOTAL FREE ENERGY PREDICTED BY IDOCK:   -2.57 KCAL/MOL
REMARK 923 INTER-LIGAND FREE ENERGY PREDICTED BY IDOCK:   -3.02 KCAL/MOL
REMARK 924 INTRA-LIGAND FREE ENERGY PREDICTED BY IDOCK:    0.46 KCAL/MOL
REMARK 927      BINDING AFFINITY PREDICTED BY RF-SCORE:    0.00 PKD
ROOT
HETATM    1  O   UNL     1     -11.019  11.479  67.125  1.00  0.00    -0.255 OA 
HETATM    2  C   UNL     1     -11.382  11.606  65.747  1.00  0.00    -0.182 C  
HETATM    3  H   UNL     1     -11.675  10.942  67.555  1.00  0.00     0.000 HD 
ENDROOT
BRANCH   2   4
HETATM    4  C   UNL     1     -10.324  12.471  65.054  1.00  0.00    -0.299 C  
HETATM    5  H   UNL     1     -10.090  13.228  63.271  1.00  0.00     0.000 HD 
HETATM    6  O   UNL     1     -10.746  12.692  63.701  1.00  0.00    -0.425 OA 
BRANCH   4   7
HETATM    7  C   UNL     1     -10.108  13.820  65.762  1.00  0.00    -0.307 C  
HETATM    8  H   UNL     1     -11.078  14.950  67.056  1.00  0.00     0.000 HD 
HETATM    9  O   UNL     1     -11.211  14.117  66.618  1.00  0.00    -0.309 OA 
BRANCH   7  10
HETATM   10  C   UNL     1      -8.794  13.825  66.583  1.00  0.00    -0.067 C  
HETATM   11  H   UNL     1      -8.066  12.951  68.231  1.00  0.00     0.000 HD 
HETATM   12  O   UNL     1      -8.872  12.948  67.726  1.00  0.00    -0.167 OA 
BRANCH  10  13
HETATM   13  C   UNL     1      -8.393  15.222  67.076  1.00  0.00    -0.234 C  
HETATM   14  C   UNL     1      -8.986  15.610  68.443  1.00  0.00    -0.185 C  
HETATM   15  O   UNL     1      -8.672  16.185  66.058  1.00  0.00    -0.331 OA 
HETATM   16  O   UNL     1      -8.990  14.629  69.374  1.00  0.00    -0.025 OA 
HETATM   17  O   UNL     1      -9.373  16.748  68.690  1.00  0.00    -0.237 OA 
HETATM   18  H   UNL     1      -8.424  17.050  66.363  1.00  0.00     0.000 HD 
ENDBRANCH  10  13
ENDBRANCH   7  10
ENDBRANCH   4   7
ENDBRANCH   2   4
TORSDOF 4
ENDMDL
MODEL      318
REMARK 921   NORMALIZED FREE ENERGY PREDICTED BY IDOCK:   -1.65 KCAL/MOL
REMARK 922        TOTAL FREE ENERGY PREDICTED BY IDOCK:   -2.51 KCAL/MOL
REMARK 923 INTER-LIGAND FREE ENERGY PREDICTED BY IDOCK:   -2.30 KCAL/MOL
REMARK 924 INTRA-LIGAND FREE ENERGY PREDICTED BY IDOCK:   -0.21 KCAL/MOL
REMARK 927      BINDING AFFINITY PREDICTED BY RF-SCORE:    0.00 PKD
ROOT
HETATM    1  O   UNL     1     -12.711   6.777  71.094  1.00  0.00    -0.332 OA 
HETATM    2  C   UNL     1     -11.681   7.768  71.147  1.00  0.00    -0.284 C  
HETATM    3  H   UNL     1     -13.284   6.906  71.841  1.00  0.00     0.000 HD 
ENDROOT
BRANCH   2   4
HETATM    4  C   UNL     1     -10.757   7.559  69.942  1.00  0.00    -0.246 C  
HETATM    5  H   UNL     1     -10.516   6.171  68.593  1.00  0.00     0.000 HD 
HETATM    6  O   UNL     1     -11.088   6.300  69.339  1.00  0.00    -0.342 OA 
BRANCH   4   7
HETATM    7  C   UNL     1     -10.879   8.686  68.902  1.00  0.00     0.008 C  
HETATM    8  H   UNL     1     -11.772  10.440  68.762  1.00  0.00     0.000 HD 
HETATM    9  O   UNL     1     -11.697   9.743  69.405  1.00  0.00     0.026 OA 
BRANCH   7  10
HETATM   10  C   UNL     1      -9.489   9.246  68.506  1.00  0.00    -0.146 C  
HETATM   11  H   UNL     1      -7.639   8.547  68.195  1.00  0.00     0.000 HD 
HETATM   12  O   UNL     1      -8.491   8.205  68.437  1.00  0.00    -0.125 OA 
BRANCH  10  13
HETATM   13  C   UNL     1      -8.981  10.335  69.459  1.00  0.00    -0.157 C  
HETATM   14  C   UNL     1      -7.973  11.314  68.829  1.00  0.00    -0.137 C  
HETATM   15  O   UNL     1      -8.491   9.731  70.657  1.00  0.00    -0.326 OA 
HETATM   16  O   UNL     1      -8.260  11.712  67.569  1.00  0.00    -0.135 OA 
HETATM   17  O   UNL     1      -7.008  11.750  69.449  1.00  0.00    -0.099 OA 
HETATM   18  H   UNL     1      -8.177  10.406  71.248  1.00  0.00     0.000 HD 
ENDBRANCH  10  13
ENDBRANCH   7  10
ENDBRANCH   4   7
ENDBRANCH   2   4
TORSDOF 4
ENDMDL
MODEL      319
REMARK 921   NORMALIZED FREE ENERGY PREDICTED BY IDOCK:   -1.64 KCAL/MOL
REMARK 922        TOTAL FREE ENERGY PREDICTED BY IDOCK:   -2.49 KCAL/MOL
REMARK 923 INTER-LIGAND FREE ENERGY PREDICTED BY IDOCK:   -2.25 KCAL/MOL
REMARK 924 INTRA-LIGAND FREE ENERGY PREDICTED BY IDOCK:   -0.24 KCAL/MOL
REMARK 927      BINDING AFFINITY PREDICTED BY RF-SCORE:    0.00 PKD
ROOT
HETATM    1  O   UNL     1      -9.991   9.415  66.605  1.00  0.00    -0.219 OA 
HETATM    2  C   UNL     1     -10.404   8.054  66.762  1.00  0.00    -0.290 C  
HETATM    3  H   UNL     1     -10.710   9.899  66.217  1.00  0.00     0.000 HD 
ENDROOT
BRANCH   2   4
HETATM    4  C   UNL     1      -9.244   7.273  67.388  1.00  0.00    -0.128 C  
HETATM    5  H   UNL     1      -7.706   7.715  68.504  1.00  0.00     0.000 HD 
HETATM    6  O   UNL     1      -8.424   8.199  68.116  1.00  0.00    -0.125 OA 
BRANCH   4   7
HETATM    7  C   UNL     1      -9.725   6.152  68.326  1.00  0.00    -0.121 C  
HETATM    8  H   UNL     1     -11.252   5.826  69.531  1.00  0.00     0.000 HD 
HETATM    9  O   UNL     1     -10.954   6.519  68.953  1.00  0.00    -0.282 OA 
BRANCH   7  10
HETATM   10  C   UNL     1      -9.908   4.815  67.563  1.00  0.00    -0.162 C  
HETATM   11  H   UNL     1      -9.704   2.857  67.925  1.00  0.00     0.000 HD 
HETATM   12  O   UNL     1      -9.593   3.677  68.392  1.00  0.00    -0.163 OA 
BRANCH  10  13
HETATM   13  C   UNL     1      -9.064   4.727  66.285  1.00  0.00    -0.122 C  
HETATM   14  C   UNL     1      -9.758   4.012  65.111  1.00  0.00    -0.196 C  
HETATM   15  O   UNL     1      -7.785   4.169  66.595  1.00  0.00    -0.088 OA 
HETATM   16  O   UNL     1     -11.066   4.310  64.941  1.00  0.00    -0.238 OA 
HETATM   17  O   UNL     1      -9.150   3.269  64.346  1.00  0.00    -0.119 OA 
HETATM   18  H   UNL     1      -7.263   4.115  65.804  1.00  0.00     0.000 HD 
ENDBRANCH  10  13
ENDBRANCH   7  10
ENDBRANCH   4   7
ENDBRANCH   2   4
TORSDOF 4
ENDMDL
MODEL      320
REMARK 921   NORMALIZED FREE ENERGY PREDICTED BY IDOCK:   -1.64 KCAL/MOL
REMARK 922        TOTAL FREE ENERGY PREDICTED BY IDOCK:   -2.49 KCAL/MOL
REMARK 923 INTER-LIGAND FREE ENERGY PREDICTED BY IDOCK:   -2.03 KCAL/MOL
REMARK 924 INTRA-LIGAND FREE ENERGY PREDICTED BY IDOCK:   -0.46 KCAL/MOL
REMARK 927      BINDING AFFINITY PREDICTED BY RF-SCORE:    0.00 PKD
ROOT
HETATM    1  O   UNL     1     -10.952   4.496  64.754  1.00  0.00    -0.557 OA 
HETATM    2  C   UNL     1      -9.954   4.135  65.714  1.00  0.00    -0.190 C  
HETATM    3  H   UNL     1     -11.228   3.707  64.304  1.00  0.00     0.000 HD 
ENDROOT
BRANCH   2   4
HETATM    4  C   UNL     1      -9.509   5.409  66.441  1.00  0.00    -0.154 C  
HETATM    5  H   UNL     1      -8.748   5.825  68.189  1.00  0.00     0.000 HD 
HETATM    6  O   UNL     1      -9.024   5.036  67.739  1.00  0.00    -0.109 OA 
BRANCH   4   7
HETATM    7  C   UNL     1      -8.416   6.174  65.675  1.00  0.00    -0.151 C  
HETATM    8  H   UNL     1      -7.734   6.263  63.826  1.00  0.00     0.000 HD 
HETATM    9  O   UNL     1      -8.409   5.790  64.300  1.00  0.00    -0.126 OA 
BRANCH   7  10
HETATM   10  C   UNL     1      -8.613   7.707  65.787  1.00  0.00    -0.139 C  
HETATM   11  H   UNL     1      -8.727   9.286  64.561  1.00  0.00     0.000 HD 
HETATM   12  O   UNL     1      -8.606   8.346  64.492  1.00  0.00    -0.114 OA 
BRANCH  10  13
HETATM   13  C   UNL     1      -7.558   8.391  66.665  1.00  0.00    -0.089 C  
HETATM   14  C   UNL     1      -8.136   9.250  67.805  1.00  0.00    -0.104 C  
HETATM   15  O   UNL     1      -6.643   9.113  65.837  1.00  0.00    -0.069 OA 
HETATM   16  O   UNL     1      -9.195   8.716  68.454  1.00  0.00    -0.138 OA 
HETATM   17  O   UNL     1      -7.632  10.318  68.140  1.00  0.00    -0.086 OA 
HETATM   18  H   UNL     1      -5.989   9.536  66.382  1.00  0.00     0.000 HD 
ENDBRANCH  10  13
ENDBRANCH   7  10
ENDBRANCH   4   7
ENDBRANCH   2   4
TORSDOF 4
ENDMDL
MODEL      321
REMARK 921   NORMALIZED FREE ENERGY PREDICTED BY IDOCK:   -1.63 KCAL/MOL
REMARK 922        TOTAL FREE ENERGY PREDICTED BY IDOCK:   -2.48 KCAL/MOL
REMARK 923 INTER-LIGAND FREE ENERGY PREDICTED BY IDOCK:   -2.11 KCAL/MOL
REMARK 924 INTRA-LIGAND FREE ENERGY PREDICTED BY IDOCK:   -0.37 KCAL/MOL
REMARK 927      BINDING AFFINITY PREDICTED BY RF-SCORE:    0.00 PKD
ROOT
HETATM    1  O   UNL     1      -9.715   7.546  65.850  1.00  0.00    -0.417 OA 
HETATM    2  C   UNL     1      -8.892   7.059  66.914  1.00  0.00    -0.124 C  
HETATM    3  H   UNL     1      -9.226   8.208  65.377  1.00  0.00     0.000 HD 
ENDROOT
BRANCH   2   4
HETATM    4  C   UNL     1      -9.683   5.990  67.677  1.00  0.00    -0.115 C  
HETATM    5  H   UNL     1     -11.224   4.856  67.295  1.00  0.00     0.000 HD 
HETATM    6  O   UNL     1     -10.734   5.518  66.822  1.00  0.00    -0.289 OA 
BRANCH   4   7
HETATM    7  C   UNL     1      -8.802   4.810  68.123  1.00  0.00    -0.104 C  
HETATM    8  H   UNL     1      -6.891   4.323  68.061  1.00  0.00     0.000 HD 
HETATM    9  O   UNL     1      -7.436   5.052  67.785  1.00  0.00    -0.077 OA 
BRANCH   7  10
HETATM   10  C   UNL     1      -8.925   4.556  69.647  1.00  0.00    -0.096 C  
HETATM   11  H   UNL     1      -9.823   3.250  70.869  1.00  0.00     0.000 HD 
HETATM   12  O   UNL     1      -9.748   3.406  69.935  1.00  0.00    -0.161 OA 
BRANCH  10  13
HETATM   13  C   UNL     1      -9.490   5.756  70.417  1.00  0.00    -0.166 C  
HETATM   14  C   UNL     1      -8.465   6.483  71.308  1.00  0.00    -0.126 C  
HETATM   15  O   UNL     1     -10.660   5.355  71.134  1.00  0.00    -0.238 OA 
HETATM   16  O   UNL     1      -7.239   6.650  70.763  1.00  0.00    -0.067 OA 
HETATM   17  O   UNL     1      -8.759   6.933  72.411  1.00  0.00    -0.126 OA 
HETATM   18  H   UNL     1     -11.010   6.098  71.611  1.00  0.00     0.000 HD 
ENDBRANCH  10  13
ENDBRANCH   7  10
ENDBRANCH   4   7
ENDBRANCH   2   4
TORSDOF 4
ENDMDL
MODEL      322
REMARK 921   NORMALIZED FREE ENERGY PREDICTED BY IDOCK:   -1.62 KCAL/MOL
REMARK 922        TOTAL FREE ENERGY PREDICTED BY IDOCK:   -2.47 KCAL/MOL
REMARK 923 INTER-LIGAND FREE ENERGY PREDICTED BY IDOCK:   -2.26 KCAL/MOL
REMARK 924 INTRA-LIGAND FREE ENERGY PREDICTED BY IDOCK:   -0.21 KCAL/MOL
REMARK 927      BINDING AFFINITY PREDICTED BY RF-SCORE:    0.00 PKD
ROOT
HETATM    1  O   UNL     1      -7.800  11.211  69.588  1.00  0.00    -0.365 OA 
HETATM    2  C   UNL     1      -8.900  10.472  69.051  1.00  0.00    -0.169 C  
HETATM    3  H   UNL     1      -7.795  11.090  70.530  1.00  0.00     0.000 HD 
ENDROOT
BRANCH   2   4
HETATM    4  C   UNL     1      -8.909  10.668  67.531  1.00  0.00    -0.132 C  
HETATM    5  H   UNL     1      -8.424  12.107  66.307  1.00  0.00     0.000 HD 
HETATM    6  O   UNL     1      -8.418  11.986  67.248  1.00  0.00    -0.160 OA 
BRANCH   4   7
HETATM    7  C   UNL     1      -8.053   9.622  66.796  1.00  0.00    -0.113 C  
HETATM    8  H   UNL     1      -6.720   8.248  67.270  1.00  0.00     0.000 HD 
HETATM    9  O   UNL     1      -7.249   8.894  67.724  1.00  0.00    -0.082 OA 
BRANCH   7  10
HETATM   10  C   UNL     1      -8.934   8.637  65.985  1.00  0.00    -0.184 C  
HETATM   11  H   UNL     1      -9.676   6.789  66.192  1.00  0.00     0.000 HD 
HETATM   12  O   UNL     1      -9.136   7.394  66.689  1.00  0.00    -0.141 OA 
BRANCH  10  13
HETATM   13  C   UNL     1      -8.364   8.317  64.598  1.00  0.00    -0.105 C  
HETATM   14  C   UNL     1      -8.654   9.385  63.527  1.00  0.00    -0.206 C  
HETATM   15  O   UNL     1      -8.780   7.008  64.201  1.00  0.00    -0.240 OA 
HETATM   16  O   UNL     1      -8.533  10.667  63.938  1.00  0.00    -0.148 OA 
HETATM   17  O   UNL     1      -8.918   9.092  62.364  1.00  0.00    -0.216 OA 
HETATM   18  H   UNL     1      -8.426   6.810  63.342  1.00  0.00     0.000 HD 
ENDBRANCH  10  13
ENDBRANCH   7  10
ENDBRANCH   4   7
ENDBRANCH   2   4
TORSDOF 4
ENDMDL
MODEL      323
REMARK 921   NORMALIZED FREE ENERGY PREDICTED BY IDOCK:   -1.61 KCAL/MOL
REMARK 922        TOTAL FREE ENERGY PREDICTED BY IDOCK:   -2.45 KCAL/MOL
REMARK 923 INTER-LIGAND FREE ENERGY PREDICTED BY IDOCK:   -1.60 KCAL/MOL
REMARK 924 INTRA-LIGAND FREE ENERGY PREDICTED BY IDOCK:   -0.85 KCAL/MOL
REMARK 927      BINDING AFFINITY PREDICTED BY RF-SCORE:    0.00 PKD
ROOT
HETATM    1  O   UNL     1     -10.929   6.184  70.287  1.00  0.00    -0.291 OA 
HETATM    2  C   UNL     1     -10.468   5.630  69.052  1.00  0.00    -0.251 C  
HETATM    3  H   UNL     1     -11.722   6.676  70.112  1.00  0.00     0.000 HD 
ENDROOT
BRANCH   2   4
HETATM    4  C   UNL     1      -9.187   4.836  69.335  1.00  0.00    -0.114 C  
HETATM    5  H   UNL     1      -8.171   3.451  68.409  1.00  0.00     0.000 HD 
HETATM    6  O   UNL     1      -8.964   3.943  68.234  1.00  0.00    -0.104 OA 
BRANCH   4   7
HETATM    7  C   UNL     1      -7.961   5.744  69.529  1.00  0.00    -0.097 C  
HETATM    8  H   UNL     1      -7.496   7.637  69.228  1.00  0.00     0.000 HD 
HETATM    9  O   UNL     1      -8.254   7.076  69.108  1.00  0.00    -0.119 OA 
BRANCH   7  10
HETATM   10  C   UNL     1      -7.492   5.755  71.006  1.00  0.00    -0.090 C  
HETATM   11  H   UNL     1      -7.774   4.669  72.664  1.00  0.00     0.000 HD 
HETATM   12  O   UNL     1      -8.061   4.662  71.758  1.00  0.00    -0.099 OA 
BRANCH  10  13
HETATM   13  C   UNL     1      -7.822   7.063  71.736  1.00  0.00    -0.094 C  
HETATM   14  C   UNL     1      -6.673   7.620  72.597  1.00  0.00    -0.064 C  
HETATM   15  O   UNL     1      -9.038   6.907  72.470  1.00  0.00    -0.133 OA 
HETATM   16  O   UNL     1      -5.442   7.541  72.044  1.00  0.00    -0.036 OA 
HETATM   17  O   UNL     1      -6.869   8.153  73.686  1.00  0.00    -0.111 OA 
HETATM   18  H   UNL     1      -9.242   7.718  72.921  1.00  0.00     0.000 HD 
ENDBRANCH  10  13
ENDBRANCH   7  10
ENDBRANCH   4   7
ENDBRANCH   2   4
TORSDOF 4
ENDMDL
MODEL      324
REMARK 921   NORMALIZED FREE ENERGY PREDICTED BY IDOCK:   -1.57 KCAL/MOL
REMARK 922        TOTAL FREE ENERGY PREDICTED BY IDOCK:   -2.41 KCAL/MOL
REMARK 923 INTER-LIGAND FREE ENERGY PREDICTED BY IDOCK:   -2.23 KCAL/MOL
REMARK 924 INTRA-LIGAND FREE ENERGY PREDICTED BY IDOCK:   -0.18 KCAL/MOL
REMARK 927      BINDING AFFINITY PREDICTED BY RF-SCORE:    0.00 PKD
ROOT
HETATM    1  O   UNL     1     -12.021   6.798  69.985  1.00  0.00    -0.636 OA 
HETATM    2  C   UNL     1     -10.961   6.246  69.200  1.00  0.00    -0.377 C  
HETATM    3  H   UNL     1     -12.287   7.619  69.588  1.00  0.00     0.000 HD 
ENDROOT
BRANCH   2   4
HETATM    4  C   UNL     1     -10.533   4.921  69.841  1.00  0.00    -0.023 C  
HETATM    5  H   UNL     1      -9.588   3.323  69.243  1.00  0.00     0.000 HD 
HETATM    6  O   UNL     1      -9.853   4.143  68.846  1.00  0.00    -0.139 OA 
BRANCH   4   7
HETATM    7  C   UNL     1      -9.619   5.124  71.062  1.00  0.00    -0.171 C  
HETATM    8  H   UNL     1      -9.053   6.620  72.217  1.00  0.00     0.000 HD 
HETATM    9  O   UNL     1      -9.618   6.494  71.463  1.00  0.00    -0.162 OA 
BRANCH   7  10
HETATM   10  C   UNL     1     -10.056   4.233  72.252  1.00  0.00    -0.182 C  
HETATM   11  H   UNL     1     -10.165   4.364  74.247  1.00  0.00     0.000 HD 
HETATM   12  O   UNL     1      -9.897   4.910  73.516  1.00  0.00    -0.141 OA 
BRANCH  10  13
HETATM   13  C   UNL     1      -9.299   2.901  72.321  1.00  0.00    -0.107 C  
HETATM   14  C   UNL     1      -7.765   3.039  72.335  1.00  0.00    -0.057 C  
HETATM   15  O   UNL     1      -9.767   2.031  71.289  1.00  0.00    -0.140 OA 
HETATM   16  O   UNL     1      -7.279   4.041  73.103  1.00  0.00    -0.063 OA 
HETATM   17  O   UNL     1      -7.031   2.257  71.737  1.00  0.00    -0.029 OA 
HETATM   18  H   UNL     1      -9.298   1.206  71.332  1.00  0.00     0.000 HD 
ENDBRANCH  10  13
ENDBRANCH   7  10
ENDBRANCH   4   7
ENDBRANCH   2   4
TORSDOF 4
ENDMDL
MODEL      325
REMARK 921   NORMALIZED FREE ENERGY PREDICTED BY IDOCK:   -1.57 KCAL/MOL
REMARK 922        TOTAL FREE ENERGY PREDICTED BY IDOCK:   -2.41 KCAL/MOL
REMARK 923 INTER-LIGAND FREE ENERGY PREDICTED BY IDOCK:   -2.41 KCAL/MOL
REMARK 924 INTRA-LIGAND FREE ENERGY PREDICTED BY IDOCK:    0.01 KCAL/MOL
REMARK 927      BINDING AFFINITY PREDICTED BY RF-SCORE:    0.00 PKD
ROOT
HETATM    1  O   UNL     1      -8.146   3.495  67.064  1.00  0.00    -0.086 OA 
HETATM    2  C   UNL     1      -7.632   4.718  67.598  1.00  0.00    -0.079 C  
HETATM    3  H   UNL     1      -7.708   2.775  67.502  1.00  0.00     0.000 HD 
ENDROOT
BRANCH   2   4
HETATM    4  C   UNL     1      -8.339   5.881  66.893  1.00  0.00    -0.108 C  
HETATM    5  H   UNL     1      -9.136   6.169  65.135  1.00  0.00     0.000 HD 
HETATM    6  O   UNL     1      -8.698   5.449  65.572  1.00  0.00    -0.147 OA 
BRANCH   4   7
HETATM    7  C   UNL     1      -9.594   6.354  67.647  1.00  0.00    -0.122 C  
HETATM    8  H   UNL     1     -11.057   5.534  68.684  1.00  0.00     0.000 HD 
HETATM    9  O   UNL     1     -10.283   5.241  68.218  1.00  0.00    -0.168 OA 
BRANCH   7  10
HETATM   10  C   UNL     1      -9.236   7.372  68.760  1.00  0.00    -0.144 C  
HETATM   11  H   UNL     1      -9.381   7.510  70.752  1.00  0.00     0.000 HD 
HETATM   12  O   UNL     1      -9.600   6.886  70.069  1.00  0.00    -0.158 OA 
BRANCH  10  13
HETATM   13  C   UNL     1      -9.890   8.744  68.558  1.00  0.00    -0.168 C  
HETATM   14  C   UNL     1     -10.209   9.497  69.863  1.00  0.00    -0.231 C  
HETATM   15  O   UNL     1     -11.027   8.610  67.704  1.00  0.00    -0.495 OA 
HETATM   16  O   UNL     1      -9.258   9.427  70.821  1.00  0.00    -0.247 OA 
HETATM   17  O   UNL     1     -11.230  10.165  70.001  1.00  0.00    -0.259 OA 
HETATM   18  H   UNL     1     -11.432   9.460  67.578  1.00  0.00     0.000 HD 
ENDBRANCH  10  13
ENDBRANCH   7  10
ENDBRANCH   4   7
ENDBRANCH   2   4
TORSDOF 4
ENDMDL
MODEL      326
REMARK 921   NORMALIZED FREE ENERGY PREDICTED BY IDOCK:   -1.55 KCAL/MOL
REMARK 922        TOTAL FREE ENERGY PREDICTED BY IDOCK:   -2.38 KCAL/MOL
REMARK 923 INTER-LIGAND FREE ENERGY PREDICTED BY IDOCK:   -2.46 KCAL/MOL
REMARK 924 INTRA-LIGAND FREE ENERGY PREDICTED BY IDOCK:    0.09 KCAL/MOL
REMARK 927      BINDING AFFINITY PREDICTED BY RF-SCORE:    0.00 PKD
ROOT
HETATM    1  O   UNL     1     -10.942   8.282  67.663  1.00  0.00    -0.502 OA 
HETATM    2  C   UNL     1     -10.136   8.610  66.528  1.00  0.00    -0.269 C  
HETATM    3  H   UNL     1     -10.961   7.337  67.749  1.00  0.00     0.000 HD 
ENDROOT
BRANCH   2   4
HETATM    4  C   UNL     1     -10.105  10.136  66.390  1.00  0.00    -0.236 C  
HETATM    5  H   UNL     1     -10.648  11.649  67.496  1.00  0.00     0.000 HD 
HETATM    6  O   UNL     1     -10.667  10.703  67.582  1.00  0.00    -0.226 OA 
BRANCH   4   7
HETATM    7  C   UNL     1      -8.683  10.681  66.172  1.00  0.00    -0.170 C  
HETATM    8  H   UNL     1      -7.674  12.318  66.612  1.00  0.00     0.000 HD 
HETATM    9  O   UNL     1      -8.553  11.982  66.746  1.00  0.00    -0.189 OA 
BRANCH   7  10
HETATM   10  C   UNL     1      -7.615   9.735  66.778  1.00  0.00    -0.095 C  
HETATM   11  H   UNL     1      -6.334   9.729  68.316  1.00  0.00     0.000 HD 
HETATM   12  O   UNL     1      -6.989  10.309  67.945  1.00  0.00    -0.080 OA 
BRANCH  10  13
HETATM   13  C   UNL     1      -6.513   9.350  65.782  1.00  0.00    -0.069 C  
HETATM   14  C   UNL     1      -5.716  10.542  65.221  1.00  0.00    -0.141 C  
HETATM   15  O   UNL     1      -7.064   8.522  64.757  1.00  0.00    -0.078 OA 
HETATM   16  O   UNL     1      -5.398  11.502  66.119  1.00  0.00    -0.270 OA 
HETATM   17  O   UNL     1      -5.343  10.589  64.053  1.00  0.00    -0.140 OA 
HETATM   18  H   UNL     1      -6.382   8.283  64.141  1.00  0.00     0.000 HD 
ENDBRANCH  10  13
ENDBRANCH   7  10
ENDBRANCH   4   7
ENDBRANCH   2   4
TORSDOF 4
ENDMDL
MODEL      327
REMARK 921   NORMALIZED FREE ENERGY PREDICTED BY IDOCK:   -1.55 KCAL/MOL
REMARK 922        TOTAL FREE ENERGY PREDICTED BY IDOCK:   -2.38 KCAL/MOL
REMARK 923 INTER-LIGAND FREE ENERGY PREDICTED BY IDOCK:   -2.67 KCAL/MOL
REMARK 924 INTRA-LIGAND FREE ENERGY PREDICTED BY IDOCK:    0.30 KCAL/MOL
REMARK 927      BINDING AFFINITY PREDICTED BY RF-SCORE:    0.00 PKD
ROOT
HETATM    1  O   UNL     1      -9.216  13.265  66.485  1.00  0.00    -0.342 OA 
HETATM    2  C   UNL     1     -10.444  12.554  66.664  1.00  0.00    -0.233 C  
HETATM    3  H   UNL     1      -9.367  14.176  66.705  1.00  0.00     0.000 HD 
ENDROOT
BRANCH   2   4
HETATM    4  C   UNL     1     -10.199  11.083  66.309  1.00  0.00    -0.245 C  
HETATM    5  H   UNL     1      -8.636   9.984  65.916  1.00  0.00     0.000 HD 
HETATM    6  O   UNL     1      -8.788  10.895  66.136  1.00  0.00    -0.173 OA 
BRANCH   4   7
HETATM    7  C   UNL     1     -10.727  10.121  67.387  1.00  0.00    -0.277 C  
HETATM    8  H   UNL     1     -10.911   8.171  67.624  1.00  0.00     0.000 HD 
HETATM    9  O   UNL     1     -10.586   8.766  66.959  1.00  0.00    -0.282 OA 
BRANCH   7  10
HETATM   10  C   UNL     1      -9.990  10.321  68.735  1.00  0.00    -0.179 C  
HETATM   11  H   UNL     1      -8.747  11.651  69.568  1.00  0.00     0.000 HD 
HETATM   12  O   UNL     1      -9.199  11.528  68.741  1.00  0.00    -0.161 OA 
BRANCH  10  13
HETATM   13  C   UNL     1      -9.077   9.146  69.106  1.00  0.00    -0.144 C  
HETATM   14  C   UNL     1      -8.624   9.130  70.578  1.00  0.00    -0.219 C  
HETATM   15  O   UNL     1      -7.982   9.085  68.190  1.00  0.00    -0.100 OA 
HETATM   16  O   UNL     1      -9.577   9.451  71.482  1.00  0.00    -0.250 OA 
HETATM   17  O   UNL     1      -7.493   8.791  70.912  1.00  0.00    -0.069 OA 
HETATM   18  H   UNL     1      -7.416   8.357  68.420  1.00  0.00     0.000 HD 
ENDBRANCH  10  13
ENDBRANCH   7  10
ENDBRANCH   4   7
ENDBRANCH   2   4
TORSDOF 4
ENDMDL
MODEL      328
REMARK 921   NORMALIZED FREE ENERGY PREDICTED BY IDOCK:   -1.52 KCAL/MOL
REMARK 922        TOTAL FREE ENERGY PREDICTED BY IDOCK:   -2.34 KCAL/MOL
REMARK 923 INTER-LIGAND FREE ENERGY PREDICTED BY IDOCK:   -2.17 KCAL/MOL
REMARK 924 INTRA-LIGAND FREE ENERGY PREDICTED BY IDOCK:   -0.17 KCAL/MOL
REMARK 927      BINDING AFFINITY PREDICTED BY RF-SCORE:    0.00 PKD
ROOT
HETATM    1  O   UNL     1     -11.147   7.415  67.739  1.00  0.00    -0.497 OA 
HETATM    2  C   UNL     1     -10.433   8.254  66.827  1.00  0.00    -0.243 C  
HETATM    3  H   UNL     1     -11.331   6.592  67.302  1.00  0.00     0.000 HD 
ENDROOT
BRANCH   2   4
HETATM    4  C   UNL     1     -10.136   9.581  67.532  1.00  0.00    -0.204 C  
HETATM    5  H   UNL     1     -10.702  10.436  69.192  1.00  0.00     0.000 HD 
HETATM    6  O   UNL     1     -10.886   9.614  68.755  1.00  0.00    -0.219 OA 
BRANCH   4   7
HETATM    7  C   UNL     1      -8.638   9.768  67.833  1.00  0.00    -0.125 C  
HETATM    8  H   UNL     1      -7.205  11.025  67.328  1.00  0.00     0.000 HD 
HETATM    9  O   UNL     1      -8.129  10.909  67.142  1.00  0.00    -0.120 OA 
BRANCH   7  10
HETATM   10  C   UNL     1      -8.380   9.921  69.353  1.00  0.00    -0.156 C  
HETATM   11  H   UNL     1      -7.163  10.958  70.558  1.00  0.00     0.000 HD 
HETATM   12  O   UNL     1      -7.322  10.864  69.626  1.00  0.00    -0.134 OA 
BRANCH  10  13
HETATM   13  C   UNL     1      -8.033   8.597  70.045  1.00  0.00    -0.106 C  
HETATM   14  C   UNL     1      -7.220   7.618  69.177  1.00  0.00    -0.080 C  
HETATM   15  O   UNL     1      -9.223   8.009  70.575  1.00  0.00    -0.152 OA 
HETATM   16  O   UNL     1      -6.237   8.178  68.437  1.00  0.00    -0.047 OA 
HETATM   17  O   UNL     1      -7.412   6.406  69.202  1.00  0.00    -0.090 OA 
HETATM   18  H   UNL     1      -9.008   7.189  71.004  1.00  0.00     0.000 HD 
ENDBRANCH  10  13
ENDBRANCH   7  10
ENDBRANCH   4   7
ENDBRANCH   2   4
TORSDOF 4
ENDMDL
MODEL      329
REMARK 921   NORMALIZED FREE ENERGY PREDICTED BY IDOCK:   -1.51 KCAL/MOL
REMARK 922        TOTAL FREE ENERGY PREDICTED BY IDOCK:   -2.34 KCAL/MOL
REMARK 923 INTER-LIGAND FREE ENERGY PREDICTED BY IDOCK:   -1.85 KCAL/MOL
REMARK 924 INTRA-LIGAND FREE ENERGY PREDICTED BY IDOCK:   -0.49 KCAL/MOL
REMARK 927      BINDING AFFINITY PREDICTED BY RF-SCORE:    0.00 PKD
ROOT
HETATM    1  O   UNL     1      -7.405   1.580  66.843  1.00  0.00    -0.052 OA 
HETATM    2  C   UNL     1      -7.144   2.754  67.618  1.00  0.00    -0.049 C  
HETATM    3  H   UNL     1      -7.069   0.831  67.320  1.00  0.00     0.000 HD 
ENDROOT
BRANCH   2   4
HETATM    4  C   UNL     1      -7.687   3.963  66.849  1.00  0.00    -0.085 C  
HETATM    5  H   UNL     1      -7.829   4.473  64.971  1.00  0.00     0.000 HD 
HETATM    6  O   UNL     1      -7.493   3.724  65.448  1.00  0.00    -0.075 OA 
BRANCH   4   7
HETATM    7  C   UNL     1      -9.176   4.225  67.135  1.00  0.00    -0.150 C  
HETATM    8  H   UNL     1     -10.564   3.525  68.348  1.00  0.00     0.000 HD 
HETATM    9  O   UNL     1      -9.644   3.363  68.172  1.00  0.00    -0.177 OA 
BRANCH   7  10
HETATM   10  C   UNL     1      -9.425   5.702  67.532  1.00  0.00    -0.114 C  
HETATM   11  H   UNL     1      -8.850   7.523  66.929  1.00  0.00     0.000 HD 
HETATM   12  O   UNL     1      -8.697   6.617  66.686  1.00  0.00    -0.117 OA 
BRANCH  10  13
HETATM   13  C   UNL     1      -9.061   6.006  68.991  1.00  0.00    -0.122 C  
HETATM   14  C   UNL     1     -10.197   6.645  69.812  1.00  0.00    -0.187 C  
HETATM   15  O   UNL     1      -7.853   6.767  69.033  1.00  0.00    -0.107 OA 
HETATM   16  O   UNL     1     -11.428   6.126  69.601  1.00  0.00    -0.429 OA 
HETATM   17  O   UNL     1      -9.990   7.523  70.644  1.00  0.00    -0.184 OA 
HETATM   18  H   UNL     1      -7.627   6.955  69.937  1.00  0.00     0.000 HD 
ENDBRANCH  10  13
ENDBRANCH   7  10
ENDBRANCH   4   7
ENDBRANCH   2   4
TORSDOF 4
ENDMDL
MODEL      330
REMARK 921   NORMALIZED FREE ENERGY PREDICTED BY IDOCK:   -1.51 KCAL/MOL
REMARK 922        TOTAL FREE ENERGY PREDICTED BY IDOCK:   -2.34 KCAL/MOL
REMARK 923 INTER-LIGAND FREE ENERGY PREDICTED BY IDOCK:   -2.09 KCAL/MOL
REMARK 924 INTRA-LIGAND FREE ENERGY PREDICTED BY IDOCK:   -0.24 KCAL/MOL
REMARK 927      BINDING AFFINITY PREDICTED BY RF-SCORE:    0.00 PKD
ROOT
HETATM    1  O   UNL     1      -7.397   5.271  64.204  1.00  0.00    -0.053 OA 
HETATM    2  C   UNL     1      -7.651   6.392  65.055  1.00  0.00    -0.091 C  
HETATM    3  H   UNL     1      -6.637   5.471  63.670  1.00  0.00     0.000 HD 
ENDROOT
BRANCH   2   4
HETATM    4  C   UNL     1      -8.877   6.068  65.916  1.00  0.00    -0.149 C  
HETATM    5  H   UNL     1      -9.535   4.501  66.874  1.00  0.00     0.000 HD 
HETATM    6  O   UNL     1      -8.775   4.701  66.341  1.00  0.00    -0.112 OA 
BRANCH   4   7
HETATM    7  C   UNL     1      -8.996   6.989  67.143  1.00  0.00    -0.121 C  
HETATM    8  H   UNL     1      -7.848   7.566  68.640  1.00  0.00     0.000 HD 
HETATM    9  O   UNL     1      -7.775   6.997  67.882  1.00  0.00    -0.108 OA 
BRANCH   7  10
HETATM   10  C   UNL     1      -9.365   8.437  66.731  1.00  0.00    -0.184 C  
HETATM   11  H   UNL     1      -8.458  10.214  66.566  1.00  0.00     0.000 HD 
HETATM   12  O   UNL     1      -8.232   9.326  66.819  1.00  0.00    -0.114 OA 
BRANCH  10  13
HETATM   13  C   UNL     1     -10.508   9.031  67.564  1.00  0.00    -0.272 C  
HETATM   14  C   UNL     1     -10.815  10.510  67.263  1.00  0.00    -0.279 C  
HETATM   15  O   UNL     1     -10.263   8.787  68.951  1.00  0.00    -0.197 OA 
HETATM   16  O   UNL     1     -10.792  10.853  65.956  1.00  0.00    -0.195 OA 
HETATM   17  O   UNL     1     -11.118  11.308  68.145  1.00  0.00    -0.219 OA 
HETATM   18  H   UNL     1     -10.971   9.155  69.467  1.00  0.00     0.000 HD 
ENDBRANCH  10  13
ENDBRANCH   7  10
ENDBRANCH   4   7
ENDBRANCH   2   4
TORSDOF 4
ENDMDL
MODEL      331
REMARK 921   NORMALIZED FREE ENERGY PREDICTED BY IDOCK:   -1.49 KCAL/MOL
REMARK 922        TOTAL FREE ENERGY PREDICTED BY IDOCK:   -2.30 KCAL/MOL
REMARK 923 INTER-LIGAND FREE ENERGY PREDICTED BY IDOCK:   -1.92 KCAL/MOL
REMARK 924 INTRA-LIGAND FREE ENERGY PREDICTED BY IDOCK:   -0.39 KCAL/MOL
REMARK 927      BINDING AFFINITY PREDICTED BY RF-SCORE:    0.00 PKD
ROOT
HETATM    1  O   UNL     1     -10.745   4.439  65.754  1.00  0.00    -0.484 OA 
HETATM    2  C   UNL     1      -9.653   3.949  64.971  1.00  0.00    -0.181 C  
HETATM    3  H   UNL     1     -11.531   3.979  65.486  1.00  0.00     0.000 HD 
ENDROOT
BRANCH   2   4
HETATM    4  C   UNL     1      -8.384   4.691  65.404  1.00  0.00    -0.119 C  
HETATM    5  H   UNL     1      -7.653   6.480  65.133  1.00  0.00     0.000 HD 
HETATM    6  O   UNL     1      -8.439   6.020  64.865  1.00  0.00    -0.132 OA 
BRANCH   4   7
HETATM    7  C   UNL     1      -8.229   4.753  66.933  1.00  0.00    -0.107 C  
HETATM    8  H   UNL     1      -6.915   4.167  68.282  1.00  0.00     0.000 HD 
HETATM    9  O   UNL     1      -7.011   4.128  67.338  1.00  0.00    -0.057 OA 
BRANCH   7  10
HETATM   10  C   UNL     1      -8.260   6.215  67.447  1.00  0.00    -0.109 C  
HETATM   11  H   UNL     1      -6.951   7.629  67.991  1.00  0.00     0.000 HD 
HETATM   12  O   UNL     1      -6.932   6.732  67.676  1.00  0.00    -0.077 OA 
BRANCH  10  13
HETATM   13  C   UNL     1      -9.071   6.386  68.738  1.00  0.00    -0.125 C  
HETATM   14  C   UNL     1      -9.143   7.834  69.259  1.00  0.00    -0.145 C  
HETATM   15  O   UNL     1      -8.599   5.466  69.724  1.00  0.00    -0.098 OA 
HETATM   16  O   UNL     1      -9.324   8.783  68.312  1.00  0.00    -0.137 OA 
HETATM   17  O   UNL     1      -9.100   8.102  70.456  1.00  0.00    -0.146 OA 
HETATM   18  H   UNL     1      -9.101   5.572  70.523  1.00  0.00     0.000 HD 
ENDBRANCH  10  13
ENDBRANCH   7  10
ENDBRANCH   4   7
ENDBRANCH   2   4
TORSDOF 4
ENDMDL
MODEL      332
REMARK 921   NORMALIZED FREE ENERGY PREDICTED BY IDOCK:   -1.48 KCAL/MOL
REMARK 922        TOTAL FREE ENERGY PREDICTED BY IDOCK:   -2.29 KCAL/MOL
REMARK 923 INTER-LIGAND FREE ENERGY PREDICTED BY IDOCK:   -1.85 KCAL/MOL
REMARK 924 INTRA-LIGAND FREE ENERGY PREDICTED BY IDOCK:   -0.44 KCAL/MOL
REMARK 927      BINDING AFFINITY PREDICTED BY RF-SCORE:    0.00 PKD
ROOT
HETATM    1  O   UNL     1      -7.250   2.123  67.671  1.00  0.00    -0.050 OA 
HETATM    2  C   UNL     1      -7.193   3.040  68.768  1.00  0.00    -0.049 C  
HETATM    3  H   UNL     1      -6.614   1.436  67.828  1.00  0.00     0.000 HD 
ENDROOT
BRANCH   2   4
HETATM    4  C   UNL     1      -8.219   4.150  68.514  1.00  0.00    -0.083 C  
HETATM    5  H   UNL     1      -9.058   4.943  66.941  1.00  0.00     0.000 HD 
HETATM    6  O   UNL     1      -8.422   4.255  67.098  1.00  0.00    -0.100 OA 
BRANCH   4   7
HETATM    7  C   UNL     1      -9.562   3.884  69.217  1.00  0.00    -0.162 C  
HETATM    8  H   UNL     1     -10.278   2.608  70.539  1.00  0.00     0.000 HD 
HETATM    9  O   UNL     1      -9.449   2.772  70.105  1.00  0.00    -0.147 OA 
BRANCH   7  10
HETATM   10  C   UNL     1     -10.048   5.130  70.001  1.00  0.00    -0.275 C  
HETATM   11  H   UNL     1     -11.452   6.546  69.821  1.00  0.00     0.000 HD 
HETATM   12  O   UNL     1     -11.154   5.782  69.341  1.00  0.00    -0.346 OA 
BRANCH  10  13
HETATM   13  C   UNL     1      -8.944   6.170  70.229  1.00  0.00    -0.153 C  
HETATM   14  C   UNL     1      -8.393   6.211  71.666  1.00  0.00    -0.126 C  
HETATM   15  O   UNL     1      -9.390   7.448  69.770  1.00  0.00    -0.148 OA 
HETATM   16  O   UNL     1      -8.205   5.006  72.250  1.00  0.00    -0.116 OA 
HETATM   17  O   UNL     1      -8.089   7.263  72.222  1.00  0.00    -0.099 OA 
HETATM   18  H   UNL     1      -8.706   8.092  69.911  1.00  0.00     0.000 HD 
ENDBRANCH  10  13
ENDBRANCH   7  10
ENDBRANCH   4   7
ENDBRANCH   2   4
TORSDOF 4
ENDMDL
MODEL      333
REMARK 921   NORMALIZED FREE ENERGY PREDICTED BY IDOCK:   -1.47 KCAL/MOL
REMARK 922        TOTAL FREE ENERGY PREDICTED BY IDOCK:   -2.29 KCAL/MOL
REMARK 923 INTER-LIGAND FREE ENERGY PREDICTED BY IDOCK:   -1.60 KCAL/MOL
REMARK 924 INTRA-LIGAND FREE ENERGY PREDICTED BY IDOCK:   -0.69 KCAL/MOL
REMARK 927      BINDING AFFINITY PREDICTED BY RF-SCORE:    0.00 PKD
ROOT
HETATM    1  O   UNL     1      -7.454   1.524  66.932  1.00  0.00    -0.054 OA 
HETATM    2  C   UNL     1      -7.035   2.152  68.147  1.00  0.00    -0.040 C  
HETATM    3  H   UNL     1      -7.329   0.587  67.025  1.00  0.00     0.000 HD 
ENDROOT
BRANCH   2   4
HETATM    4  C   UNL     1      -7.237   3.664  67.996  1.00  0.00    -0.051 C  
HETATM    5  H   UNL     1      -6.986   4.969  66.569  1.00  0.00     0.000 HD 
HETATM    6  O   UNL     1      -6.861   4.033  66.662  1.00  0.00    -0.055 OA 
BRANCH   4   7
HETATM    7  C   UNL     1      -8.688   4.095  68.270  1.00  0.00    -0.099 C  
HETATM    8  H   UNL     1     -10.445   3.223  68.480  1.00  0.00     0.000 HD 
HETATM    9  O   UNL     1      -9.548   2.957  68.311  1.00  0.00    -0.184 OA 
BRANCH   7  10
HETATM   10  C   UNL     1      -8.803   4.884  69.599  1.00  0.00    -0.086 C  
HETATM   11  H   UNL     1      -7.637   5.352  71.157  1.00  0.00     0.000 HD 
HETATM   12  O   UNL     1      -7.566   4.869  70.342  1.00  0.00    -0.057 OA 
BRANCH  10  13
HETATM   13  C   UNL     1      -9.920   4.367  70.515  1.00  0.00    -0.185 C  
HETATM   14  C   UNL     1     -10.462   5.409  71.511  1.00  0.00    -0.223 C  
HETATM   15  O   UNL     1      -9.494   3.161  71.152  1.00  0.00    -0.130 OA 
HETATM   16  O   UNL     1     -10.630   6.655  71.013  1.00  0.00    -0.218 OA 
HETATM   17  O   UNL     1     -10.777   5.115  72.660  1.00  0.00    -0.216 OA 
HETATM   18  H   UNL     1     -10.186   2.841  71.719  1.00  0.00     0.000 HD 
ENDBRANCH  10  13
ENDBRANCH   7  10
ENDBRANCH   4   7
ENDBRANCH   2   4
TORSDOF 4
ENDMDL
MODEL      334
REMARK 921   NORMALIZED FREE ENERGY PREDICTED BY IDOCK:   -1.46 KCAL/MOL
REMARK 922        TOTAL FREE ENERGY PREDICTED BY IDOCK:   -2.27 KCAL/MOL
REMARK 923 INTER-LIGAND FREE ENERGY PREDICTED BY IDOCK:   -2.16 KCAL/MOL
REMARK 924 INTRA-LIGAND FREE ENERGY PREDICTED BY IDOCK:   -0.12 KCAL/MOL
REMARK 927      BINDING AFFINITY PREDICTED BY RF-SCORE:    0.00 PKD
ROOT
HETATM    1  O   UNL     1      -7.161  10.511  64.615  1.00  0.00    -0.325 OA 
HETATM    2  C   UNL     1      -8.480  10.336  65.140  1.00  0.00    -0.168 C  
HETATM    3  H   UNL     1      -7.093  11.395  64.274  1.00  0.00     0.000 HD 
ENDROOT
BRANCH   2   4
HETATM    4  C   UNL     1      -8.589   8.911  65.691  1.00  0.00    -0.166 C  
HETATM    5  H   UNL     1      -7.342   7.452  66.044  1.00  0.00     0.000 HD 
HETATM    6  O   UNL     1      -7.274   8.335  65.702  1.00  0.00    -0.069 OA 
BRANCH   4   7
HETATM    7  C   UNL     1      -9.189   8.869  67.107  1.00  0.00    -0.139 C  
HETATM    8  H   UNL     1     -10.986   8.809  67.918  1.00  0.00     0.000 HD 
HETATM    9  O   UNL     1     -10.615   8.835  67.044  1.00  0.00    -0.282 OA 
BRANCH   7  10
HETATM   10  C   UNL     1      -8.673   7.646  67.906  1.00  0.00    -0.124 C  
HETATM   11  H   UNL     1      -9.442   6.078  68.887  1.00  0.00     0.000 HD 
HETATM   12  O   UNL     1      -9.758   6.829  68.396  1.00  0.00    -0.128 OA 
BRANCH  10  13
HETATM   13  C   UNL     1      -7.786   8.031  69.097  1.00  0.00    -0.099 C  
HETATM   14  C   UNL     1      -8.351   9.164  69.973  1.00  0.00    -0.150 C  
HETATM   15  O   UNL     1      -6.459   8.296  68.637  1.00  0.00    -0.051 OA 
HETATM   16  O   UNL     1      -9.679   9.101  70.217  1.00  0.00    -0.182 OA 
HETATM   17  O   UNL     1      -7.634  10.030  70.466  1.00  0.00    -0.276 OA 
HETATM   18  H   UNL     1      -5.909   8.534  69.374  1.00  0.00     0.000 HD 
ENDBRANCH  10  13
ENDBRANCH   7  10
ENDBRANCH   4   7
ENDBRANCH   2   4
TORSDOF 4
ENDMDL
MODEL      335
REMARK 921   NORMALIZED FREE ENERGY PREDICTED BY IDOCK:   -1.45 KCAL/MOL
REMARK 922        TOTAL FREE ENERGY PREDICTED BY IDOCK:   -2.26 KCAL/MOL
REMARK 923 INTER-LIGAND FREE ENERGY PREDICTED BY IDOCK:   -1.84 KCAL/MOL
REMARK 924 INTRA-LIGAND FREE ENERGY PREDICTED BY IDOCK:   -0.42 KCAL/MOL
REMARK 927      BINDING AFFINITY PREDICTED BY RF-SCORE:    0.00 PKD
ROOT
HETATM    1  O   UNL     1      -7.735   8.282  72.514  1.00  0.00    -0.120 OA 
HETATM    2  C   UNL     1      -8.048   8.118  71.128  1.00  0.00    -0.103 C  
HETATM    3  H   UNL     1      -7.511   9.194  72.659  1.00  0.00     0.000 HD 
ENDROOT
BRANCH   2   4
HETATM    4  C   UNL     1      -8.411   6.647  70.892  1.00  0.00    -0.125 C  
HETATM    5  H   UNL     1      -9.189   5.214  71.963  1.00  0.00     0.000 HD 
HETATM    6  O   UNL     1      -8.965   6.125  72.108  1.00  0.00    -0.142 OA 
BRANCH   4   7
HETATM    7  C   UNL     1      -9.413   6.463  69.740  1.00  0.00    -0.152 C  
HETATM    8  H   UNL     1     -10.426   7.617  68.501  1.00  0.00     0.000 HD 
HETATM    9  O   UNL     1      -9.807   7.731  69.214  1.00  0.00    -0.168 OA 
BRANCH   7  10
HETATM   10  C   UNL     1      -8.818   5.591  68.605  1.00  0.00    -0.107 C  
HETATM   11  H   UNL     1      -7.530   5.800  67.087  1.00  0.00     0.000 HD 
HETATM   12  O   UNL     1      -7.895   6.335  67.783  1.00  0.00    -0.103 OA 
BRANCH  10  13
HETATM   13  C   UNL     1      -9.885   4.975  67.692  1.00  0.00    -0.161 C  
HETATM   14  C   UNL     1      -9.377   3.826  66.801  1.00  0.00    -0.190 C  
HETATM   15  O   UNL     1     -10.530   6.010  66.946  1.00  0.00    -0.219 OA 
HETATM   16  O   UNL     1      -8.534   2.956  67.401  1.00  0.00    -0.085 OA 
HETATM   17  O   UNL     1      -9.758   3.676  65.644  1.00  0.00    -0.168 OA 
HETATM   18  H   UNL     1     -11.192   5.628  66.381  1.00  0.00     0.000 HD 
ENDBRANCH  10  13
ENDBRANCH   7  10
ENDBRANCH   4   7
ENDBRANCH   2   4
TORSDOF 4
ENDMDL
MODEL      336
REMARK 921   NORMALIZED FREE ENERGY PREDICTED BY IDOCK:   -1.41 KCAL/MOL
REMARK 922        TOTAL FREE ENERGY PREDICTED BY IDOCK:   -2.22 KCAL/MOL
REMARK 923 INTER-LIGAND FREE ENERGY PREDICTED BY IDOCK:   -1.76 KCAL/MOL
REMARK 924 INTRA-LIGAND FREE ENERGY PREDICTED BY IDOCK:   -0.46 KCAL/MOL
REMARK 927      BINDING AFFINITY PREDICTED BY RF-SCORE:    0.00 PKD
ROOT
HETATM    1  O   UNL     1      -7.932   7.444  65.746  1.00  0.00    -0.104 OA 
HETATM    2  C   UNL     1      -7.533   6.877  66.997  1.00  0.00    -0.087 C  
HETATM    3  H   UNL     1      -7.152   7.581  65.221  1.00  0.00     0.000 HD 
ENDROOT
BRANCH   2   4
HETATM    4  C   UNL     1      -8.792   6.656  67.843  1.00  0.00    -0.115 C  
HETATM    5  H   UNL     1      -9.465   5.235  68.998  1.00  0.00     0.000 HD 
HETATM    6  O   UNL     1      -8.685   5.371  68.474  1.00  0.00    -0.096 OA 
BRANCH   4   7
HETATM    7  C   UNL     1      -8.985   7.748  68.909  1.00  0.00    -0.141 C  
HETATM    8  H   UNL     1      -9.701   7.872  70.743  1.00  0.00     0.000 HD 
HETATM    9  O   UNL     1      -9.582   7.198  70.084  1.00  0.00    -0.168 OA 
BRANCH   7  10
HETATM   10  C   UNL     1      -7.641   8.427  69.276  1.00  0.00    -0.089 C  
HETATM   11  H   UNL     1      -6.205   8.233  70.657  1.00  0.00     0.000 HD 
HETATM   12  O   UNL     1      -7.029   7.816  70.432  1.00  0.00    -0.046 OA 
BRANCH  10  13
HETATM   13  C   UNL     1      -7.776   9.931  69.541  1.00  0.00    -0.135 C  
HETATM   14  C   UNL     1      -6.445  10.648  69.834  1.00  0.00    -0.124 C  
HETATM   15  O   UNL     1      -8.757  10.151  70.556  1.00  0.00    -0.325 OA 
HETATM   16  O   UNL     1      -5.400  10.272  69.062  1.00  0.00    -0.039 OA 
HETATM   17  O   UNL     1      -6.353  11.544  70.669  1.00  0.00    -0.287 OA 
HETATM   18  H   UNL     1      -8.841  11.083  70.720  1.00  0.00     0.000 HD 
ENDBRANCH  10  13
ENDBRANCH   7  10
ENDBRANCH   4   7
ENDBRANCH   2   4
TORSDOF 4
ENDMDL
MODEL      337
REMARK 921   NORMALIZED FREE ENERGY PREDICTED BY IDOCK:   -1.38 KCAL/MOL
REMARK 922        TOTAL FREE ENERGY PREDICTED BY IDOCK:   -2.17 KCAL/MOL
REMARK 923 INTER-LIGAND FREE ENERGY PREDICTED BY IDOCK:   -2.20 KCAL/MOL
REMARK 924 INTRA-LIGAND FREE ENERGY PREDICTED BY IDOCK:    0.03 KCAL/MOL
REMARK 927      BINDING AFFINITY PREDICTED BY RF-SCORE:    0.00 PKD
ROOT
HETATM    1  O   UNL     1     -11.252   5.520  66.074  1.00  0.00    -0.771 OA 
HETATM    2  C   UNL     1     -10.043   4.849  65.707  1.00  0.00    -0.170 C  
HETATM    3  H   UNL     1     -11.915   5.309  65.427  1.00  0.00     0.000 HD 
ENDROOT
BRANCH   2   4
HETATM    4  C   UNL     1      -8.974   5.188  66.751  1.00  0.00    -0.113 C  
HETATM    5  H   UNL     1      -7.355   6.276  66.787  1.00  0.00     0.000 HD 
HETATM    6  O   UNL     1      -8.017   6.066  66.140  1.00  0.00    -0.102 OA 
BRANCH   4   7
HETATM    7  C   UNL     1      -9.565   5.851  68.007  1.00  0.00    -0.116 C  
HETATM    8  H   UNL     1     -11.100   5.564  69.212  1.00  0.00     0.000 HD 
HETATM    9  O   UNL     1     -10.735   5.155  68.436  1.00  0.00    -0.018 OA 
BRANCH   7  10
HETATM   10  C   UNL     1      -8.533   5.897  69.163  1.00  0.00    -0.112 C  
HETATM   11  H   UNL     1      -8.454   5.423  71.106  1.00  0.00     0.000 HD 
HETATM   12  O   UNL     1      -9.087   5.395  70.397  1.00  0.00    -0.135 OA 
BRANCH  10  13
HETATM   13  C   UNL     1      -7.976   7.302  69.422  1.00  0.00    -0.125 C  
HETATM   14  C   UNL     1      -9.037   8.418  69.424  1.00  0.00    -0.154 C  
HETATM   15  O   UNL     1      -6.900   7.563  68.519  1.00  0.00    -0.062 OA 
HETATM   16  O   UNL     1     -10.198   8.114  70.047  1.00  0.00    -0.194 OA 
HETATM   17  O   UNL     1      -8.821   9.528  68.946  1.00  0.00    -0.131 OA 
HETATM   18  H   UNL     1      -6.554   8.434  68.680  1.00  0.00     0.000 HD 
ENDBRANCH  10  13
ENDBRANCH   7  10
ENDBRANCH   4   7
ENDBRANCH   2   4
TORSDOF 4
ENDMDL
MODEL      338
REMARK 921   NORMALIZED FREE ENERGY PREDICTED BY IDOCK:   -1.36 KCAL/MOL
REMARK 922        TOTAL FREE ENERGY PREDICTED BY IDOCK:   -2.15 KCAL/MOL
REMARK 923 INTER-LIGAND FREE ENERGY PREDICTED BY IDOCK:   -2.23 KCAL/MOL
REMARK 924 INTRA-LIGAND FREE ENERGY PREDICTED BY IDOCK:    0.08 KCAL/MOL
REMARK 927      BINDING AFFINITY PREDICTED BY RF-SCORE:    0.00 PKD
ROOT
HETATM    1  O   UNL     1      -8.298   6.293  63.370  1.00  0.00    -0.302 OA 
HETATM    2  C   UNL     1      -7.660   7.347  64.097  1.00  0.00    -0.109 C  
HETATM    3  H   UNL     1      -7.862   6.206  62.531  1.00  0.00     0.000 HD 
ENDROOT
BRANCH   2   4
HETATM    4  C   UNL     1      -8.364   7.487  65.451  1.00  0.00    -0.124 C  
HETATM    5  H   UNL     1      -8.711   6.314  66.971  1.00  0.00     0.000 HD 
HETATM    6  O   UNL     1      -8.274   6.227  66.132  1.00  0.00    -0.111 OA 
BRANCH   4   7
HETATM    7  C   UNL     1      -7.752   8.597  66.322  1.00  0.00    -0.098 C  
HETATM    8  H   UNL     1      -5.970   9.077  67.018  1.00  0.00     0.000 HD 
HETATM    9  O   UNL     1      -6.348   8.391  66.480  1.00  0.00    -0.053 OA 
BRANCH   7  10
HETATM   10  C   UNL     1      -8.008  10.000  65.715  1.00  0.00    -0.126 C  
HETATM   11  H   UNL     1      -6.940  11.488  64.905  1.00  0.00     0.000 HD 
HETATM   12  O   UNL     1      -6.784  10.627  65.277  1.00  0.00    -0.087 OA 
BRANCH  10  13
HETATM   13  C   UNL     1      -8.719  10.957  66.680  1.00  0.00    -0.155 C  
HETATM   14  C   UNL     1     -10.245  10.765  66.758  1.00  0.00    -0.230 C  
HETATM   15  O   UNL     1      -8.345  12.303  66.379  1.00  0.00    -0.396 OA 
HETATM   16  O   UNL     1     -10.669   9.481  66.773  1.00  0.00    -0.174 OA 
HETATM   17  O   UNL     1     -11.020  11.712  66.860  1.00  0.00    -0.263 OA 
HETATM   18  H   UNL     1      -8.786  12.895  66.978  1.00  0.00     0.000 HD 
ENDBRANCH  10  13
ENDBRANCH   7  10
ENDBRANCH   4   7
ENDBRANCH   2   4
TORSDOF 4
ENDMDL
MODEL      339
REMARK 921   NORMALIZED FREE ENERGY PREDICTED BY IDOCK:   -1.33 KCAL/MOL
REMARK 922        TOTAL FREE ENERGY PREDICTED BY IDOCK:   -2.11 KCAL/MOL
REMARK 923 INTER-LIGAND FREE ENERGY PREDICTED BY IDOCK:   -1.99 KCAL/MOL
REMARK 924 INTRA-LIGAND FREE ENERGY PREDICTED BY IDOCK:   -0.13 KCAL/MOL
REMARK 927      BINDING AFFINITY PREDICTED BY RF-SCORE:    0.00 PKD
ROOT
HETATM    1  O   UNL     1      -9.884   9.713  67.494  1.00  0.00    -0.156 OA 
HETATM    2  C   UNL     1      -8.759   8.999  68.013  1.00  0.00    -0.129 C  
HETATM    3  H   UNL     1      -9.787   9.775  66.552  1.00  0.00     0.000 HD 
ENDROOT
BRANCH   2   4
HETATM    4  C   UNL     1      -8.917   8.899  69.534  1.00  0.00    -0.145 C  
HETATM    5  H   UNL     1     -10.090   9.701  70.870  1.00  0.00     0.000 HD 
HETATM    6  O   UNL     1      -9.993   9.763  69.928  1.00  0.00    -0.217 OA 
BRANCH   4   7
HETATM    7  C   UNL     1      -9.200   7.462  70.005  1.00  0.00    -0.148 C  
HETATM    8  H   UNL     1      -8.349   5.690  69.846  1.00  0.00     0.000 HD 
HETATM    9  O   UNL     1      -8.174   6.577  69.555  1.00  0.00    -0.122 OA 
BRANCH   7  10
HETATM   10  C   UNL     1      -9.315   7.384  71.549  1.00  0.00    -0.144 C  
HETATM   11  H   UNL     1      -8.703   8.433  73.141  1.00  0.00     0.000 HD 
HETATM   12  O   UNL     1      -8.633   8.480  72.194  1.00  0.00    -0.184 OA 
BRANCH  10  13
HETATM   13  C   UNL     1      -8.774   6.072  72.131  1.00  0.00    -0.132 C  
HETATM   14  C   UNL     1      -9.754   5.336  73.063  1.00  0.00    -0.146 C  
HETATM   15  O   UNL     1      -7.503   6.308  72.739  1.00  0.00    -0.094 OA 
HETATM   16  O   UNL     1     -11.042   5.318  72.654  1.00  0.00    -0.251 OA 
HETATM   17  O   UNL     1      -9.381   4.753  74.077  1.00  0.00    -0.117 OA 
HETATM   18  H   UNL     1      -7.167   5.495  73.099  1.00  0.00     0.000 HD 
ENDBRANCH  10  13
ENDBRANCH   7  10
ENDBRANCH   4   7
ENDBRANCH   2   4
TORSDOF 4
ENDMDL
MODEL      340
REMARK 921   NORMALIZED FREE ENERGY PREDICTED BY IDOCK:   -1.27 KCAL/MOL
REMARK 922        TOTAL FREE ENERGY PREDICTED BY IDOCK:   -2.03 KCAL/MOL
REMARK 923 INTER-LIGAND FREE ENERGY PREDICTED BY IDOCK:   -2.85 KCAL/MOL
REMARK 924 INTRA-LIGAND FREE ENERGY PREDICTED BY IDOCK:    0.82 KCAL/MOL
REMARK 927      BINDING AFFINITY PREDICTED BY RF-SCORE:    0.00 PKD
ROOT
HETATM    1  O   UNL     1     -11.552  11.920  67.573  1.00  0.00    -0.387 OA 
HETATM    2  C   UNL     1     -11.766  12.872  66.527  1.00  0.00    -0.393 C  
HETATM    3  H   UNL     1     -12.366  11.454  67.719  1.00  0.00     0.000 HD 
ENDROOT
BRANCH   2   4
HETATM    4  C   UNL     1     -10.451  13.624  66.291  1.00  0.00    -0.291 C  
HETATM    5  H   UNL     1      -9.631  14.563  64.790  1.00  0.00     0.000 HD 
HETATM    6  O   UNL     1     -10.445  14.097  64.936  1.00  0.00    -0.404 OA 
BRANCH   4   7
HETATM    7  C   UNL     1     -10.266  14.806  67.258  1.00  0.00    -0.241 C  
HETATM    8  H   UNL     1      -9.199  15.208  68.868  1.00  0.00     0.000 HD 
HETATM    9  O   UNL     1      -9.314  14.478  68.271  1.00  0.00    -0.190 OA 
BRANCH   7  10
HETATM   10  C   UNL     1      -9.811  16.085  66.510  1.00  0.00    -0.267 C  
HETATM   11  H   UNL     1      -8.145  16.796  65.657  1.00  0.00     0.000 HD 
HETATM   12  O   UNL     1      -8.424  16.012  66.116  1.00  0.00    -0.323 OA 
BRANCH  10  13
HETATM   13  C   UNL     1     -10.011  17.368  67.327  1.00  0.00    -0.302 C  
HETATM   14  C   UNL     1      -9.122  17.472  68.580  1.00  0.00    -0.277 C  
HETATM   15  O   UNL     1     -11.400  17.536  67.618  1.00  0.00     0.062 OA 
HETATM   16  O   UNL     1      -7.843  17.062  68.419  1.00  0.00    -0.212 OA 
HETATM   17  O   UNL     1      -9.529  17.950  69.634  1.00  0.00     0.377 OA 
HETATM   18  H   UNL     1     -11.524  18.331  68.124  1.00  0.00     0.000 HD 
ENDBRANCH  10  13
ENDBRANCH   7  10
ENDBRANCH   4   7
ENDBRANCH   2   4
TORSDOF 4
ENDMDL
MODEL      341
REMARK 921   NORMALIZED FREE ENERGY PREDICTED BY IDOCK:   -1.20 KCAL/MOL
REMARK 922        TOTAL FREE ENERGY PREDICTED BY IDOCK:   -1.96 KCAL/MOL
REMARK 923 INTER-LIGAND FREE ENERGY PREDICTED BY IDOCK:   -1.86 KCAL/MOL
REMARK 924 INTRA-LIGAND FREE ENERGY PREDICTED BY IDOCK:   -0.09 KCAL/MOL
REMARK 927      BINDING AFFINITY PREDICTED BY RF-SCORE:    0.00 PKD
ROOT
HETATM    1  O   UNL     1      -8.048   8.877  72.363  1.00  0.00    -0.381 OA 
HETATM    2  C   UNL     1      -7.594   8.759  71.011  1.00  0.00    -0.111 C  
HETATM    3  H   UNL     1      -8.645   9.614  72.410  1.00  0.00     0.000 HD 
ENDROOT
BRANCH   2   4
HETATM    4  C   UNL     1      -6.629   7.571  70.934  1.00  0.00    -0.042 C  
HETATM    5  H   UNL     1      -6.315   5.958  71.986  1.00  0.00     0.000 HD 
HETATM    6  O   UNL     1      -6.913   6.694  72.034  1.00  0.00    -0.069 OA 
BRANCH   4   7
HETATM    7  C   UNL     1      -6.747   6.800  69.608  1.00  0.00    -0.050 C  
HETATM    8  H   UNL     1      -5.630   5.574  68.540  1.00  0.00     0.000 HD 
HETATM    9  O   UNL     1      -5.558   6.050  69.359  1.00  0.00    -0.011 OA 
BRANCH   7  10
HETATM   10  C   UNL     1      -7.971   5.850  69.610  1.00  0.00    -0.101 C  
HETATM   11  H   UNL     1      -8.582   4.209  68.641  1.00  0.00     0.000 HD 
HETATM   12  O   UNL     1      -7.831   4.791  68.640  1.00  0.00    -0.076 OA 
BRANCH  10  13
HETATM   13  C   UNL     1      -9.298   6.573  69.345  1.00  0.00    -0.143 C  
HETATM   14  C   UNL     1     -10.476   6.080  70.207  1.00  0.00    -0.242 C  
HETATM   15  O   UNL     1      -9.586   6.543  67.946  1.00  0.00    -0.120 OA 
HETATM   16  O   UNL     1     -10.182   5.832  71.504  1.00  0.00    -0.190 OA 
HETATM   17  O   UNL     1     -11.615   5.978  69.762  1.00  0.00    -0.325 OA 
HETATM   18  H   UNL     1     -10.408   6.991  67.782  1.00  0.00     0.000 HD 
ENDBRANCH  10  13
ENDBRANCH   7  10
ENDBRANCH   4   7
ENDBRANCH   2   4
TORSDOF 4
ENDMDL
MODEL      342
REMARK 921   NORMALIZED FREE ENERGY PREDICTED BY IDOCK:   -1.16 KCAL/MOL
REMARK 922        TOTAL FREE ENERGY PREDICTED BY IDOCK:   -1.90 KCAL/MOL
REMARK 923 INTER-LIGAND FREE ENERGY PREDICTED BY IDOCK:   -1.62 KCAL/MOL
REMARK 924 INTRA-LIGAND FREE ENERGY PREDICTED BY IDOCK:   -0.29 KCAL/MOL
REMARK 927      BINDING AFFINITY PREDICTED BY RF-SCORE:    0.00 PKD
ROOT
HETATM    1  O   UNL     1      -9.599   6.588  66.462  1.00  0.00    -0.163 OA 
HETATM    2  C   UNL     1      -8.577   7.449  66.974  1.00  0.00    -0.119 C  
HETATM    3  H   UNL     1     -10.097   7.072  65.815  1.00  0.00     0.000 HD 
ENDROOT
BRANCH   2   4
HETATM    4  C   UNL     1      -7.773   6.667  68.018  1.00  0.00    -0.108 C  
HETATM    5  H   UNL     1      -5.984   5.894  68.109  1.00  0.00     0.000 HD 
HETATM    6  O   UNL     1      -6.482   6.378  67.462  1.00  0.00    -0.045 OA 
BRANCH   4   7
HETATM    7  C   UNL     1      -7.612   7.439  69.339  1.00  0.00    -0.096 C  
HETATM    8  H   UNL     1      -7.863   9.289  69.976  1.00  0.00     0.000 HD 
HETATM    9  O   UNL     1      -7.962   8.812  69.160  1.00  0.00    -0.105 OA 
BRANCH   7  10
HETATM   10  C   UNL     1      -8.480   6.823  70.465  1.00  0.00    -0.138 C  
HETATM   11  H   UNL     1      -9.935   5.459  70.644  1.00  0.00     0.000 HD 
HETATM   12  O   UNL     1      -9.403   5.837  69.954  1.00  0.00    -0.144 OA 
BRANCH  10  13
HETATM   13  C   UNL     1      -9.281   7.867  71.253  1.00  0.00    -0.146 C  
HETATM   14  C   UNL     1      -8.661   8.257  72.607  1.00  0.00    -0.224 C  
HETATM   15  O   UNL     1     -10.640   7.439  71.369  1.00  0.00    -0.215 OA 
HETATM   16  O   UNL     1      -7.318   8.414  72.607  1.00  0.00    -0.155 OA 
HETATM   17  O   UNL     1      -9.345   8.471  73.604  1.00  0.00     0.041 OA 
HETATM   18  H   UNL     1     -11.136   8.086  71.857  1.00  0.00     0.000 HD 
ENDBRANCH  10  13
ENDBRANCH   7  10
ENDBRANCH   4   7
ENDBRANCH   2   4
TORSDOF 4
ENDMDL
MODEL      343
REMARK 921   NORMALIZED FREE ENERGY PREDICTED BY IDOCK:   -1.13 KCAL/MOL
REMARK 922        TOTAL FREE ENERGY PREDICTED BY IDOCK:   -1.87 KCAL/MOL
REMARK 923 INTER-LIGAND FREE ENERGY PREDICTED BY IDOCK:   -2.41 KCAL/MOL
REMARK 924 INTRA-LIGAND FREE ENERGY PREDICTED BY IDOCK:    0.54 KCAL/MOL
REMARK 927      BINDING AFFINITY PREDICTED BY RF-SCORE:    0.00 PKD
ROOT
HETATM    1  O   UNL     1     -11.395   9.622  68.236  1.00  0.00    -0.515 OA 
HETATM    2  C   UNL     1     -10.172   9.681  68.975  1.00  0.00    -0.199 C  
HETATM    3  H   UNL     1     -12.080  10.010  68.767  1.00  0.00     0.000 HD 
ENDROOT
BRANCH   2   4
HETATM    4  C   UNL     1      -9.066   9.056  68.117  1.00  0.00    -0.132 C  
HETATM    5  H   UNL     1      -8.556   7.245  67.602  1.00  0.00     0.000 HD 
HETATM    6  O   UNL     1      -9.241   7.632  68.133  1.00  0.00    -0.138 OA 
BRANCH   4   7
HETATM    7  C   UNL     1      -9.083   9.569  66.667  1.00  0.00    -0.148 C  
HETATM    8  H   UNL     1      -8.674  11.250  65.719  1.00  0.00     0.000 HD 
HETATM    9  O   UNL     1      -8.665  10.933  66.615  1.00  0.00    -0.146 OA 
BRANCH   7  10
HETATM   10  C   UNL     1      -8.174   8.709  65.752  1.00  0.00    -0.126 C  
HETATM   11  H   UNL     1      -6.217   8.390  65.476  1.00  0.00     0.000 HD 
HETATM   12  O   UNL     1      -6.775   8.917  66.037  1.00  0.00    -0.067 OA 
BRANCH  10  13
HETATM   13  C   UNL     1      -8.403   8.968  64.257  1.00  0.00    -0.173 C  
HETATM   14  C   UNL     1      -7.251   9.711  63.555  1.00  0.00    -0.111 C  
HETATM   15  O   UNL     1      -9.668   9.606  64.071  1.00  0.00    -0.433 OA 
HETATM   16  O   UNL     1      -6.006   9.317  63.907  1.00  0.00    -0.077 OA 
HETATM   17  O   UNL     1      -7.450  10.560  62.691  1.00  0.00    -0.142 OA 
HETATM   18  H   UNL     1      -9.809   9.766  63.145  1.00  0.00     0.000 HD 
ENDBRANCH  10  13
ENDBRANCH   7  10
ENDBRANCH   4   7
ENDBRANCH   2   4
TORSDOF 4
ENDMDL
MODEL      344
REMARK 921   NORMALIZED FREE ENERGY PREDICTED BY IDOCK:   -1.08 KCAL/MOL
REMARK 922        TOTAL FREE ENERGY PREDICTED BY IDOCK:   -1.80 KCAL/MOL
REMARK 923 INTER-LIGAND FREE ENERGY PREDICTED BY IDOCK:   -1.56 KCAL/MOL
REMARK 924 INTRA-LIGAND FREE ENERGY PREDICTED BY IDOCK:   -0.24 KCAL/MOL
REMARK 927      BINDING AFFINITY PREDICTED BY RF-SCORE:    0.00 PKD
ROOT
HETATM    1  O   UNL     1      -8.560   9.545  70.305  1.00  0.00    -0.198 OA 
HETATM    2  C   UNL     1      -8.143   9.710  68.947  1.00  0.00    -0.098 C  
HETATM    3  H   UNL     1      -9.097  10.291  70.542  1.00  0.00     0.000 HD 
ENDROOT
BRANCH   2   4
HETATM    4  C   UNL     1      -7.277   8.505  68.564  1.00  0.00    -0.081 C  
HETATM    5  H   UNL     1      -7.099   6.663  69.180  1.00  0.00     0.000 HD 
HETATM    6  O   UNL     1      -7.636   7.409  69.417  1.00  0.00    -0.092 OA 
BRANCH   4   7
HETATM    7  C   UNL     1      -7.449   8.099  67.090  1.00  0.00    -0.089 C  
HETATM    8  H   UNL     1      -6.557   8.470  65.370  1.00  0.00     0.000 HD 
HETATM    9  O   UNL     1      -6.451   8.721  66.280  1.00  0.00    -0.063 OA 
BRANCH   7  10
HETATM   10  C   UNL     1      -7.378   6.560  66.914  1.00  0.00    -0.079 C  
HETATM   11  H   UNL     1      -6.205   5.220  66.000  1.00  0.00     0.000 HD 
HETATM   12  O   UNL     1      -6.249   6.164  66.108  1.00  0.00    -0.035 OA 
BRANCH  10  13
HETATM   13  C   UNL     1      -8.646   5.963  66.292  1.00  0.00    -0.132 C  
HETATM   14  C   UNL     1      -8.662   4.425  66.229  1.00  0.00    -0.113 C  
HETATM   15  O   UNL     1      -8.886   6.571  65.021  1.00  0.00    -0.360 OA 
HETATM   16  O   UNL     1      -8.184   3.794  67.325  1.00  0.00    -0.090 OA 
HETATM   17  O   UNL     1      -9.132   3.813  65.274  1.00  0.00    -0.130 OA 
HETATM   18  H   UNL     1      -9.672   6.202  64.635  1.00  0.00     0.000 HD 
ENDBRANCH  10  13
ENDBRANCH   7  10
ENDBRANCH   4   7
ENDBRANCH   2   4
TORSDOF 4
ENDMDL
MODEL      345
REMARK 921   NORMALIZED FREE ENERGY PREDICTED BY IDOCK:   -1.03 KCAL/MOL
REMARK 922        TOTAL FREE ENERGY PREDICTED BY IDOCK:   -1.73 KCAL/MOL
REMARK 923 INTER-LIGAND FREE ENERGY PREDICTED BY IDOCK:   -1.71 KCAL/MOL
REMARK 924 INTRA-LIGAND FREE ENERGY PREDICTED BY IDOCK:   -0.03 KCAL/MOL
REMARK 927      BINDING AFFINITY PREDICTED BY RF-SCORE:    0.00 PKD
ROOT
HETATM    1  O   UNL     1      -7.941   9.024  69.456  1.00  0.00    -0.093 OA 
HETATM    2  C   UNL     1      -8.313   7.954  68.582  1.00  0.00    -0.128 C  
HETATM    3  H   UNL     1      -8.080   9.843  68.997  1.00  0.00     0.000 HD 
ENDROOT
BRANCH   2   4
HETATM    4  C   UNL     1      -8.088   6.632  69.324  1.00  0.00    -0.116 C  
HETATM    5  H   UNL     1      -6.652   5.860  70.394  1.00  0.00     0.000 HD 
HETATM    6  O   UNL     1      -6.791   6.679  69.935  1.00  0.00    -0.051 OA 
BRANCH   4   7
HETATM    7  C   UNL     1      -9.161   6.365  70.394  1.00  0.00    -0.155 C  
HETATM    8  H   UNL     1     -10.462   7.420  71.437  1.00  0.00     0.000 HD 
HETATM    9  O   UNL     1      -9.799   7.584  70.776  1.00  0.00    -0.179 OA 
BRANCH   7  10
HETATM   10  C   UNL     1     -10.225   5.356  69.891  1.00  0.00    -0.281 C  
HETATM   11  H   UNL     1     -12.177   5.351  69.446  1.00  0.00     0.000 HD 
HETATM   12  O   UNL     1     -11.524   5.969  69.755  1.00  0.00    -0.395 OA 
BRANCH  10  13
HETATM   13  C   UNL     1     -10.366   4.125  70.794  1.00  0.00     0.284 C  
HETATM   14  C   UNL     1     -10.596   4.449  72.282  1.00  0.00    -0.071 C  
HETATM   15  O   UNL     1      -9.257   3.249  70.584  1.00  0.00    -0.109 OA 
HETATM   16  O   UNL     1     -11.449   5.470  72.529  1.00  0.00    -0.283 OA 
HETATM   17  O   UNL     1     -10.088   3.788  73.183  1.00  0.00    -0.130 OA 
HETATM   18  H   UNL     1      -9.345   2.486  71.144  1.00  0.00     0.000 HD 
ENDBRANCH  10  13
ENDBRANCH   7  10
ENDBRANCH   4   7
ENDBRANCH   2   4
TORSDOF 4
ENDMDL
MODEL      346
REMARK 921   NORMALIZED FREE ENERGY PREDICTED BY IDOCK:   -1.00 KCAL/MOL
REMARK 922        TOTAL FREE ENERGY PREDICTED BY IDOCK:   -1.71 KCAL/MOL
REMARK 923 INTER-LIGAND FREE ENERGY PREDICTED BY IDOCK:   -2.28 KCAL/MOL
REMARK 924 INTRA-LIGAND FREE ENERGY PREDICTED BY IDOCK:    0.57 KCAL/MOL
REMARK 927      BINDING AFFINITY PREDICTED BY RF-SCORE:    0.00 PKD
ROOT
HETATM    1  O   UNL     1      -6.912  10.644  64.664  1.00  0.00    -0.352 OA 
HETATM    2  C   UNL     1      -8.004  10.517  65.580  1.00  0.00    -0.145 C  
HETATM    3  H   UNL     1      -6.884  11.544  64.361  1.00  0.00     0.000 HD 
ENDROOT
BRANCH   2   4
HETATM    4  C   UNL     1      -8.049   9.066  66.069  1.00  0.00    -0.111 C  
HETATM    5  H   UNL     1      -6.966   7.466  65.796  1.00  0.00     0.000 HD 
HETATM    6  O   UNL     1      -6.937   8.366  65.493  1.00  0.00    -0.068 OA 
BRANCH   4   7
HETATM    7  C   UNL     1      -7.998   8.958  67.603  1.00  0.00    -0.102 C  
HETATM    8  H   UNL     1      -7.842  10.187  69.138  1.00  0.00     0.000 HD 
HETATM    9  O   UNL     1      -7.874  10.253  68.191  1.00  0.00    -0.101 OA 
BRANCH   7  10
HETATM   10  C   UNL     1      -9.257   8.249  68.164  1.00  0.00    -0.134 C  
HETATM   11  H   UNL     1     -11.002   7.552  67.475  1.00  0.00     0.000 HD 
HETATM   12  O   UNL     1     -10.230   7.987  67.131  1.00  0.00    -0.233 OA 
BRANCH  10  13
HETATM   13  C   UNL     1      -9.946   9.038  69.285  1.00  0.00    -0.188 C  
HETATM   14  C   UNL     1     -10.580  10.366  68.833  1.00  0.00    -0.216 C  
HETATM   15  O   UNL     1      -9.042   9.200  70.380  1.00  0.00    -0.192 OA 
HETATM   16  O   UNL     1     -11.230  10.325  67.648  1.00  0.00    -0.307 OA 
HETATM   17  O   UNL     1     -10.550  11.377  69.529  1.00  0.00    -0.128 OA 
HETATM   18  H   UNL     1      -9.469   9.688  71.074  1.00  0.00     0.000 HD 
ENDBRANCH  10  13
ENDBRANCH   7  10
ENDBRANCH   4   7
ENDBRANCH   2   4
TORSDOF 4
ENDMDL
MODEL      347
REMARK 921   NORMALIZED FREE ENERGY PREDICTED BY IDOCK:   -0.98 KCAL/MOL
REMARK 922        TOTAL FREE ENERGY PREDICTED BY IDOCK:   -1.68 KCAL/MOL
REMARK 923 INTER-LIGAND FREE ENERGY PREDICTED BY IDOCK:   -2.43 KCAL/MOL
REMARK 924 INTRA-LIGAND FREE ENERGY PREDICTED BY IDOCK:    0.75 KCAL/MOL
REMARK 927      BINDING AFFINITY PREDICTED BY RF-SCORE:    0.00 PKD
ROOT
HETATM    1  O   UNL     1     -11.317   6.029  67.039  1.00  0.00    -0.543 OA 
HETATM    2  C   UNL     1     -10.383   5.066  66.541  1.00  0.00    -0.284 C  
HETATM    3  H   UNL     1     -12.100   5.985  66.503  1.00  0.00     0.000 HD 
ENDROOT
BRANCH   2   4
HETATM    4  C   UNL     1      -9.120   5.137  67.406  1.00  0.00    -0.113 C  
HETATM    5  H   UNL     1      -7.234   5.528  67.092  1.00  0.00     0.000 HD 
HETATM    6  O   UNL     1      -8.017   5.485  66.556  1.00  0.00    -0.100 OA 
BRANCH   4   7
HETATM    7  C   UNL     1      -9.243   6.159  68.549  1.00  0.00    -0.115 C  
HETATM    8  H   UNL     1      -9.716   8.063  68.746  1.00  0.00     0.000 HD 
HETATM    9  O   UNL     1      -9.640   7.432  68.040  1.00  0.00    -0.140 OA 
BRANCH   7  10
HETATM   10  C   UNL     1     -10.256   5.688  69.624  1.00  0.00    -0.251 C  
HETATM   11  H   UNL     1     -11.765   6.464  70.686  1.00  0.00     0.000 HD 
HETATM   12  O   UNL     1     -11.143   6.752  70.027  1.00  0.00    -0.270 OA 
BRANCH  10  13
HETATM   13  C   UNL     1      -9.585   5.120  70.880  1.00  0.00    -0.175 C  
HETATM   14  C   UNL     1      -8.618   6.091  71.582  1.00  0.00    -0.131 C  
HETATM   15  O   UNL     1      -8.979   3.863  70.571  1.00  0.00    -0.082 OA 
HETATM   16  O   UNL     1      -9.039   7.374  71.661  1.00  0.00    -0.131 OA 
HETATM   17  O   UNL     1      -7.564   5.716  72.088  1.00  0.00    -0.097 OA 
HETATM   18  H   UNL     1      -8.563   3.511  71.350  1.00  0.00     0.000 HD 
ENDBRANCH  10  13
ENDBRANCH   7  10
ENDBRANCH   4   7
ENDBRANCH   2   4
TORSDOF 4
ENDMDL
MODEL      348
REMARK 921   NORMALIZED FREE ENERGY PREDICTED BY IDOCK:   -0.95 KCAL/MOL
REMARK 922        TOTAL FREE ENERGY PREDICTED BY IDOCK:   -1.65 KCAL/MOL
REMARK 923 INTER-LIGAND FREE ENERGY PREDICTED BY IDOCK:   -1.25 KCAL/MOL
REMARK 924 INTRA-LIGAND FREE ENERGY PREDICTED BY IDOCK:   -0.39 KCAL/MOL
REMARK 927      BINDING AFFINITY PREDICTED BY RF-SCORE:    0.00 PKD
ROOT
HETATM    1  O   UNL     1      -7.703   8.147  72.215  1.00  0.00    -0.104 OA 
HETATM    2  C   UNL     1      -8.028   8.575  70.889  1.00  0.00    -0.110 C  
HETATM    3  H   UNL     1      -7.409   8.904  72.706  1.00  0.00     0.000 HD 
ENDROOT
BRANCH   2   4
HETATM    4  C   UNL     1      -8.501   7.352  70.096  1.00  0.00    -0.137 C  
HETATM    5  H   UNL     1     -10.131   6.281  70.024  1.00  0.00     0.000 HD 
HETATM    6  O   UNL     1      -9.837   7.039  70.516  1.00  0.00    -0.179 OA 
BRANCH   4   7
HETATM    7  C   UNL     1      -8.472   7.586  68.576  1.00  0.00    -0.129 C  
HETATM    8  H   UNL     1      -8.081   9.079  67.347  1.00  0.00     0.000 HD 
HETATM    9  O   UNL     1      -8.100   8.934  68.286  1.00  0.00    -0.107 OA 
BRANCH   7  10
HETATM   10  C   UNL     1      -7.493   6.612  67.871  1.00  0.00    -0.098 C  
HETATM   11  H   UNL     1      -5.535   6.503  67.470  1.00  0.00     0.000 HD 
HETATM   12  O   UNL     1      -6.135   7.100  67.902  1.00  0.00    -0.031 OA 
BRANCH  10  13
HETATM   13  C   UNL     1      -7.869   6.328  66.412  1.00  0.00    -0.104 C  
HETATM   14  C   UNL     1      -6.957   5.307  65.706  1.00  0.00    -0.066 C  
HETATM   15  O   UNL     1      -7.976   7.561  65.697  1.00  0.00    -0.103 OA 
HETATM   16  O   UNL     1      -6.603   4.234  66.449  1.00  0.00    -0.043 OA 
HETATM   17  O   UNL     1      -6.625   5.428  64.530  1.00  0.00    -0.040 OA 
HETATM   18  H   UNL     1      -8.209   7.385  64.793  1.00  0.00     0.000 HD 
ENDBRANCH  10  13
ENDBRANCH   7  10
ENDBRANCH   4   7
ENDBRANCH   2   4
TORSDOF 4
ENDMDL
MODEL      349
REMARK 921   NORMALIZED FREE ENERGY PREDICTED BY IDOCK:   -0.90 KCAL/MOL
REMARK 922        TOTAL FREE ENERGY PREDICTED BY IDOCK:   -1.58 KCAL/MOL
REMARK 923 INTER-LIGAND FREE ENERGY PREDICTED BY IDOCK:   -2.01 KCAL/MOL
REMARK 924 INTRA-LIGAND FREE ENERGY PREDICTED BY IDOCK:    0.43 KCAL/MOL
REMARK 927      BINDING AFFINITY PREDICTED BY RF-SCORE:    0.00 PKD
ROOT
HETATM    1  O   UNL     1      -8.898   8.112  67.382  1.00  0.00    -0.126 OA 
HETATM    2  C   UNL     1      -8.238   7.675  66.191  1.00  0.00    -0.124 C  
HETATM    3  H   UNL     1      -9.296   8.956  67.207  1.00  0.00     0.000 HD 
ENDROOT
BRANCH   2   4
HETATM    4  C   UNL     1      -7.596   6.312  66.474  1.00  0.00    -0.094 C  
HETATM    5  H   UNL     1      -6.800   5.441  68.028  1.00  0.00     0.000 HD 
HETATM    6  O   UNL     1      -7.197   6.285  67.852  1.00  0.00    -0.082 OA 
BRANCH   4   7
HETATM    7  C   UNL     1      -8.548   5.139  66.182  1.00  0.00    -0.117 C  
HETATM    8  H   UNL     1     -10.484   4.877  65.911  1.00  0.00     0.000 HD 
HETATM    9  O   UNL     1      -9.896   5.601  66.091  1.00  0.00    -0.149 OA 
BRANCH   7  10
HETATM   10  C   UNL     1      -8.159   4.406  64.874  1.00  0.00    -0.099 C  
HETATM   11  H   UNL     1      -7.907   4.850  62.938  1.00  0.00     0.000 HD 
HETATM   12  O   UNL     1      -8.146   5.300  63.741  1.00  0.00    -0.105 OA 
BRANCH  10  13
HETATM   13  C   UNL     1      -9.082   3.226  64.544  1.00  0.00    -0.132 C  
HETATM   14  C   UNL     1     -10.126   3.519  63.451  1.00  0.00    -0.185 C  
HETATM   15  O   UNL     1      -9.666   2.726  65.748  1.00  0.00    -0.372 OA 
HETATM   16  O   UNL     1      -9.677   4.236  62.396  1.00  0.00    -0.141 OA 
HETATM   17  O   UNL     1     -11.272   3.081  63.506  1.00  0.00    -0.287 OA 
HETATM   18  H   UNL     1     -10.237   1.994  65.544  1.00  0.00     0.000 HD 
ENDBRANCH  10  13
ENDBRANCH   7  10
ENDBRANCH   4   7
ENDBRANCH   2   4
TORSDOF 4
ENDMDL
MODEL      350
REMARK 921   NORMALIZED FREE ENERGY PREDICTED BY IDOCK:   -0.83 KCAL/MOL
REMARK 922        TOTAL FREE ENERGY PREDICTED BY IDOCK:   -1.50 KCAL/MOL
REMARK 923 INTER-LIGAND FREE ENERGY PREDICTED BY IDOCK:   -1.60 KCAL/MOL
REMARK 924 INTRA-LIGAND FREE ENERGY PREDICTED BY IDOCK:    0.10 KCAL/MOL
REMARK 927      BINDING AFFINITY PREDICTED BY RF-SCORE:    0.00 PKD
ROOT
HETATM    1  O   UNL     1      -7.426   9.388  71.092  1.00  0.00    -0.294 OA 
HETATM    2  C   UNL     1      -6.858   9.523  69.786  1.00  0.00    -0.064 C  
HETATM    3  H   UNL     1      -7.733  10.243  71.370  1.00  0.00     0.000 HD 
ENDROOT
BRANCH   2   4
HETATM    4  C   UNL     1      -6.363   8.143  69.337  1.00  0.00    -0.034 C  
HETATM    5  H   UNL     1      -6.751   6.295  69.826  1.00  0.00     0.000 HD 
HETATM    6  O   UNL     1      -7.058   7.149  70.104  1.00  0.00    -0.063 OA 
BRANCH   4   7
HETATM    7  C   UNL     1      -6.586   7.896  67.835  1.00  0.00    -0.056 C  
HETATM    8  H   UNL     1      -5.493   7.403  66.269  1.00  0.00     0.000 HD 
HETATM    9  O   UNL     1      -5.355   7.556  67.197  1.00  0.00    -0.027 OA 
BRANCH   7  10
HETATM   10  C   UNL     1      -7.626   6.773  67.594  1.00  0.00    -0.106 C  
HETATM   11  H   UNL     1      -8.279   5.652  66.069  1.00  0.00     0.000 HD 
HETATM   12  O   UNL     1      -7.641   6.341  66.217  1.00  0.00    -0.087 OA 
BRANCH  10  13
HETATM   13  C   UNL     1      -9.053   7.175  67.987  1.00  0.00    -0.132 C  
HETATM   14  C   UNL     1     -10.055   6.006  68.034  1.00  0.00    -0.159 C  
HETATM   15  O   UNL     1      -9.494   8.247  67.152  1.00  0.00    -0.145 OA 
HETATM   16  O   UNL     1      -9.587   4.862  68.584  1.00  0.00    -0.136 OA 
HETATM   17  O   UNL     1     -11.217   6.122  67.656  1.00  0.00    -0.294 OA 
HETATM   18  H   UNL     1     -10.378   8.496  67.395  1.00  0.00     0.000 HD 
ENDBRANCH  10  13
ENDBRANCH   7  10
ENDBRANCH   4   7
ENDBRANCH   2   4
TORSDOF 4
ENDMDL
MODEL      351
REMARK 921   NORMALIZED FREE ENERGY PREDICTED BY IDOCK:   -0.79 KCAL/MOL
REMARK 922        TOTAL FREE ENERGY PREDICTED BY IDOCK:   -1.45 KCAL/MOL
REMARK 923 INTER-LIGAND FREE ENERGY PREDICTED BY IDOCK:   -1.44 KCAL/MOL
REMARK 924 INTRA-LIGAND FREE ENERGY PREDICTED BY IDOCK:   -0.01 KCAL/MOL
REMARK 927      BINDING AFFINITY PREDICTED BY RF-SCORE:    0.00 PKD
ROOT
HETATM    1  O   UNL     1     -10.551   4.426  65.796  1.00  0.00    -0.449 OA 
HETATM    2  C   UNL     1      -9.683   3.546  65.075  1.00  0.00    -0.142 C  
HETATM    3  H   UNL     1     -11.441   4.263  65.508  1.00  0.00     0.000 HD 
ENDROOT
BRANCH   2   4
HETATM    4  C   UNL     1      -8.246   3.807  65.539  1.00  0.00    -0.101 C  
HETATM    5  H   UNL     1      -6.772   4.938  64.944  1.00  0.00     0.000 HD 
HETATM    6  O   UNL     1      -7.662   4.776  64.656  1.00  0.00    -0.075 OA 
BRANCH   4   7
HETATM    7  C   UNL     1      -8.177   4.314  66.990  1.00  0.00    -0.101 C  
HETATM    8  H   UNL     1      -8.694   3.662  68.779  1.00  0.00     0.000 HD 
HETATM    9  O   UNL     1      -8.737   3.350  67.882  1.00  0.00    -0.095 OA 
BRANCH   7  10
HETATM   10  C   UNL     1      -6.719   4.629  67.412  1.00  0.00    -0.051 C  
HETATM   11  H   UNL     1      -5.317   3.854  68.611  1.00  0.00     0.000 HD 
HETATM   12  O   UNL     1      -6.211   3.660  68.353  1.00  0.00    -0.030 OA 
BRANCH  10  13
HETATM   13  C   UNL     1      -6.555   6.026  68.024  1.00  0.00    -0.055 C  
HETATM   14  C   UNL     1      -7.608   6.382  69.090  1.00  0.00    -0.100 C  
HETATM   15  O   UNL     1      -6.474   6.998  66.980  1.00  0.00    -0.046 OA 
HETATM   16  O   UNL     1      -7.922   5.388  69.951  1.00  0.00    -0.079 OA 
HETATM   17  O   UNL     1      -8.085   7.509  69.189  1.00  0.00    -0.119 OA 
HETATM   18  H   UNL     1      -6.372   7.864  67.360  1.00  0.00     0.000 HD 
ENDBRANCH  10  13
ENDBRANCH   7  10
ENDBRANCH   4   7
ENDBRANCH   2   4
TORSDOF 4
ENDMDL
MODEL      352
REMARK 921   NORMALIZED FREE ENERGY PREDICTED BY IDOCK:   -0.71 KCAL/MOL
REMARK 922        TOTAL FREE ENERGY PREDICTED BY IDOCK:   -1.34 KCAL/MOL
REMARK 923 INTER-LIGAND FREE ENERGY PREDICTED BY IDOCK:   -1.98 KCAL/MOL
REMARK 924 INTRA-LIGAND FREE ENERGY PREDICTED BY IDOCK:    0.64 KCAL/MOL
REMARK 927      BINDING AFFINITY PREDICTED BY RF-SCORE:    0.00 PKD
ROOT
HETATM    1  O   UNL     1     -11.227   9.512  68.330  1.00  0.00    -0.502 OA 
HETATM    2  C   UNL     1     -10.011   9.716  69.055  1.00  0.00    -0.185 C  
HETATM    3  H   UNL     1     -11.948   9.802  68.875  1.00  0.00     0.000 HD 
ENDROOT
BRANCH   2   4
HETATM    4  C   UNL     1      -8.847   9.248  68.175  1.00  0.00    -0.129 C  
HETATM    5  H   UNL     1      -6.928   8.991  68.420  1.00  0.00     0.000 HD 
HETATM    6  O   UNL     1      -7.650   9.281  68.965  1.00  0.00    -0.072 OA 
BRANCH   4   7
HETATM    7  C   UNL     1      -9.064   7.832  67.613  1.00  0.00    -0.133 C  
HETATM    8  H   UNL     1      -9.975   7.009  66.070  1.00  0.00     0.000 HD 
HETATM    9  O   UNL     1      -9.841   7.883  66.417  1.00  0.00    -0.216 OA 
BRANCH   7  10
HETATM   10  C   UNL     1      -7.715   7.123  67.329  1.00  0.00    -0.109 C  
HETATM   11  H   UNL     1      -6.051   7.461  66.268  1.00  0.00     0.000 HD 
HETATM   12  O   UNL     1      -6.878   7.896  66.443  1.00  0.00    -0.060 OA 
BRANCH  10  13
HETATM   13  C   UNL     1      -7.884   5.721  66.729  1.00  0.00    -0.101 C  
HETATM   14  C   UNL     1      -8.163   5.705  65.215  1.00  0.00    -0.134 C  
HETATM   15  O   UNL     1      -8.859   4.995  67.479  1.00  0.00    -0.104 OA 
HETATM   16  O   UNL     1      -7.442   6.583  64.482  1.00  0.00    -0.076 OA 
HETATM   17  O   UNL     1      -8.943   4.908  64.701  1.00  0.00    -0.153 OA 
HETATM   18  H   UNL     1      -8.963   4.126  67.108  1.00  0.00     0.000 HD 
ENDBRANCH  10  13
ENDBRANCH   7  10
ENDBRANCH   4   7
ENDBRANCH   2   4
TORSDOF 4
ENDMDL
MODEL      353
REMARK 921   NORMALIZED FREE ENERGY PREDICTED BY IDOCK:   -0.68 KCAL/MOL
REMARK 922        TOTAL FREE ENERGY PREDICTED BY IDOCK:   -1.31 KCAL/MOL
REMARK 923 INTER-LIGAND FREE ENERGY PREDICTED BY IDOCK:   -1.30 KCAL/MOL
REMARK 924 INTRA-LIGAND FREE ENERGY PREDICTED BY IDOCK:   -0.01 KCAL/MOL
REMARK 927      BINDING AFFINITY PREDICTED BY RF-SCORE:    0.00 PKD
ROOT
HETATM    1  O   UNL     1      -7.770   8.338  72.522  1.00  0.00    -0.120 OA 
HETATM    2  C   UNL     1      -8.248   8.219  71.179  1.00  0.00    -0.120 C  
HETATM    3  H   UNL     1      -7.465   9.228  72.649  1.00  0.00     0.000 HD 
ENDROOT
BRANCH   2   4
HETATM    4  C   UNL     1      -8.741   6.783  70.974  1.00  0.00    -0.137 C  
HETATM    5  H   UNL     1      -9.426   5.365  72.125  1.00  0.00     0.000 HD 
HETATM    6  O   UNL     1      -9.121   6.255  72.253  1.00  0.00    -0.141 OA 
BRANCH   4   7
HETATM    7  C   UNL     1      -9.930   6.700  70.000  1.00  0.00    -0.172 C  
HETATM    8  H   UNL     1     -10.988   7.945  68.896  1.00  0.00     0.000 HD 
HETATM    9  O   UNL     1     -10.255   7.996  69.497  1.00  0.00    -0.199 OA 
BRANCH   7  10
HETATM   10  C   UNL     1      -9.628   5.743  68.818  1.00  0.00    -0.127 C  
HETATM   11  H   UNL     1     -10.472   4.156  67.937  1.00  0.00     0.000 HD 
HETATM   12  O   UNL     1     -10.657   4.743  68.661  1.00  0.00     0.097 OA 
BRANCH  10  13
HETATM   13  C   UNL     1      -8.278   5.027  68.949  1.00  0.00    -0.084 C  
HETATM   14  C   UNL     1      -7.727   4.459  67.627  1.00  0.00    -0.084 C  
HETATM   15  O   UNL     1      -8.357   4.044  69.983  1.00  0.00    -0.057 OA 
HETATM   16  O   UNL     1      -7.875   5.258  66.546  1.00  0.00    -0.098 OA 
HETATM   17  O   UNL     1      -7.140   3.383  67.571  1.00  0.00    -0.056 OA 
HETATM   18  H   UNL     1      -7.520   3.601  70.064  1.00  0.00     0.000 HD 
ENDBRANCH  10  13
ENDBRANCH   7  10
ENDBRANCH   4   7
ENDBRANCH   2   4
TORSDOF 4
ENDMDL
MODEL      354
REMARK 921   NORMALIZED FREE ENERGY PREDICTED BY IDOCK:   -0.65 KCAL/MOL
REMARK 922        TOTAL FREE ENERGY PREDICTED BY IDOCK:   -1.27 KCAL/MOL
REMARK 923 INTER-LIGAND FREE ENERGY PREDICTED BY IDOCK:   -1.75 KCAL/MOL
REMARK 924 INTRA-LIGAND FREE ENERGY PREDICTED BY IDOCK:    0.47 KCAL/MOL
REMARK 927      BINDING AFFINITY PREDICTED BY RF-SCORE:    0.00 PKD
ROOT
HETATM    1  O   UNL     1      -7.875   8.952  69.487  1.00  0.00    -0.088 OA 
HETATM    2  C   UNL     1      -7.992   7.801  68.645  1.00  0.00    -0.122 C  
HETATM    3  H   UNL     1      -8.357   9.663  69.083  1.00  0.00     0.000 HD 
ENDROOT
BRANCH   2   4
HETATM    4  C   UNL     1      -7.214   6.652  69.298  1.00  0.00    -0.090 C  
HETATM    5  H   UNL     1      -5.363   6.347  69.831  1.00  0.00     0.000 HD 
HETATM    6  O   UNL     1      -5.844   7.059  69.427  1.00  0.00    -0.018 OA 
BRANCH   4   7
HETATM    7  C   UNL     1      -7.778   6.266  70.676  1.00  0.00    -0.105 C  
HETATM    8  H   UNL     1      -7.175   6.313  72.554  1.00  0.00     0.000 HD 
HETATM    9  O   UNL     1      -6.827   6.551  71.702  1.00  0.00    -0.064 OA 
BRANCH   7  10
HETATM   10  C   UNL     1      -9.105   7.009  70.974  1.00  0.00    -0.151 C  
HETATM   11  H   UNL     1      -9.776   8.402  72.246  1.00  0.00     0.000 HD 
HETATM   12  O   UNL     1      -8.963   7.947  72.063  1.00  0.00    -0.123 OA 
BRANCH  10  13
HETATM   13  C   UNL     1     -10.267   6.064  71.303  1.00  0.00    -0.205 C  
HETATM   14  C   UNL     1      -9.931   4.976  72.340  1.00  0.00    -0.178 C  
HETATM   15  O   UNL     1     -10.803   5.527  70.092  1.00  0.00    -0.306 OA 
HETATM   16  O   UNL     1      -9.182   5.386  73.389  1.00  0.00    -0.132 OA 
HETATM   17  O   UNL     1     -10.363   3.831  72.252  1.00  0.00    -0.163 OA 
HETATM   18  H   UNL     1     -11.524   4.942  70.296  1.00  0.00     0.000 HD 
ENDBRANCH  10  13
ENDBRANCH   7  10
ENDBRANCH   4   7
ENDBRANCH   2   4
TORSDOF 4
ENDMDL
MODEL      355
REMARK 921   NORMALIZED FREE ENERGY PREDICTED BY IDOCK:   -0.51 KCAL/MOL
REMARK 922        TOTAL FREE ENERGY PREDICTED BY IDOCK:   -1.10 KCAL/MOL
REMARK 923 INTER-LIGAND FREE ENERGY PREDICTED BY IDOCK:   -2.09 KCAL/MOL
REMARK 924 INTRA-LIGAND FREE ENERGY PREDICTED BY IDOCK:    0.99 KCAL/MOL
REMARK 927      BINDING AFFINITY PREDICTED BY RF-SCORE:    0.00 PKD
ROOT
HETATM    1  O   UNL     1      -8.495   9.977  69.422  1.00  0.00    -0.143 OA 
HETATM    2  C   UNL     1      -9.228   9.053  68.612  1.00  0.00    -0.136 C  
HETATM    3  H   UNL     1      -8.659  10.852  69.092  1.00  0.00     0.000 HD 
ENDROOT
BRANCH   2   4
HETATM    4  C   UNL     1      -8.965   7.640  69.144  1.00  0.00    -0.135 C  
HETATM    5  H   UNL     1      -8.074   6.880  70.704  1.00  0.00     0.000 HD 
HETATM    6  O   UNL     1      -8.237   7.755  70.375  1.00  0.00    -0.116 OA 
BRANCH   4   7
HETATM    7  C   UNL     1     -10.262   6.845  69.376  1.00  0.00    -0.182 C  
HETATM    8  H   UNL     1     -12.202   7.157  69.208  1.00  0.00     0.000 HD 
HETATM    9  O   UNL     1     -11.401   7.648  69.065  1.00  0.00     0.214 OA 
BRANCH   7  10
HETATM   10  C   UNL     1     -10.291   5.548  68.528  1.00  0.00    -0.178 C  
HETATM   11  H   UNL     1      -9.168   3.910  68.276  1.00  0.00     0.000 HD 
HETATM   12  O   UNL     1      -9.150   4.706  68.796  1.00  0.00    -0.104 OA 
BRANCH  10  13
HETATM   13  C   UNL     1     -10.349   5.813  67.018  1.00  0.00    -0.250 C  
HETATM   14  C   UNL     1      -9.037   6.347  66.414  1.00  0.00    -0.154 C  
HETATM   15  O   UNL     1     -11.473   6.644  66.722  1.00  0.00    -0.776 OA 
HETATM   16  O   UNL     1      -7.907   5.764  66.873  1.00  0.00    -0.100 OA 
HETATM   17  O   UNL     1      -9.022   7.202  65.532  1.00  0.00    -0.032 OA 
HETATM   18  H   UNL     1     -11.509   6.808  65.787  1.00  0.00     0.000 HD 
ENDBRANCH  10  13
ENDBRANCH   7  10
ENDBRANCH   4   7
ENDBRANCH   2   4
TORSDOF 4
ENDMDL
MODEL      356
REMARK 921   NORMALIZED FREE ENERGY PREDICTED BY IDOCK:   -0.42 KCAL/MOL
REMARK 922        TOTAL FREE ENERGY PREDICTED BY IDOCK:   -0.99 KCAL/MOL
REMARK 923 INTER-LIGAND FREE ENERGY PREDICTED BY IDOCK:   -2.61 KCAL/MOL
REMARK 924 INTRA-LIGAND FREE ENERGY PREDICTED BY IDOCK:    1.62 KCAL/MOL
REMARK 927      BINDING AFFINITY PREDICTED BY RF-SCORE:    0.00 PKD
ROOT
HETATM    1  O   UNL     1      -7.049   8.662  70.108  1.00  0.00    -0.041 OA 
HETATM    2  C   UNL     1      -7.881   9.449  69.251  1.00  0.00    -0.085 C  
HETATM    3  H   UNL     1      -6.464   9.249  70.571  1.00  0.00     0.000 HD 
ENDROOT
BRANCH   2   4
HETATM    4  C   UNL     1      -8.826   8.502  68.504  1.00  0.00    -0.139 C  
HETATM    5  H   UNL     1     -10.413   7.464  68.964  1.00  0.00     0.000 HD 
HETATM    6  O   UNL     1      -9.828   8.051  69.428  1.00  0.00    -0.175 OA 
BRANCH   4   7
HETATM    7  C   UNL     1      -9.497   9.171  67.292  1.00  0.00    -0.148 C  
HETATM    8  H   UNL     1     -11.234   9.080  66.362  1.00  0.00     0.000 HD 
HETATM    9  O   UNL     1     -10.820   8.666  67.111  1.00  0.00    -0.212 OA 
BRANCH   7  10
HETATM   10  C   UNL     1      -9.544  10.712  67.450  1.00  0.00    -0.158 C  
HETATM   11  H   UNL     1      -8.634  12.124  68.539  1.00  0.00     0.000 HD 
HETATM   12  O   UNL     1      -8.605  11.179  68.441  1.00  0.00    -0.139 OA 
BRANCH  10  13
HETATM   13  C   UNL     1     -10.936  11.240  67.820  1.00  0.00    -0.252 C  
HETATM   14  C   UNL     1     -11.527  12.242  66.812  1.00  0.00    -0.361 C  
HETATM   15  O   UNL     1     -10.914  11.748  69.156  1.00  0.00    -0.242 OA 
HETATM   16  O   UNL     1     -11.334  11.936  65.509  1.00  0.00    -0.322 OA 
HETATM   17  O   UNL     1     -12.181  13.220  67.165  1.00  0.00    -0.335 OA 
HETATM   18  H   UNL     1     -11.776  12.074  69.386  1.00  0.00     0.000 HD 
ENDBRANCH  10  13
ENDBRANCH   7  10
ENDBRANCH   4   7
ENDBRANCH   2   4
TORSDOF 4
ENDMDL
MODEL      357
REMARK 921   NORMALIZED FREE ENERGY PREDICTED BY IDOCK:    0.12 KCAL/MOL
REMARK 922        TOTAL FREE ENERGY PREDICTED BY IDOCK:   -0.32 KCAL/MOL
REMARK 923 INTER-LIGAND FREE ENERGY PREDICTED BY IDOCK:   -1.67 KCAL/MOL
REMARK 924 INTRA-LIGAND FREE ENERGY PREDICTED BY IDOCK:    1.35 KCAL/MOL
REMARK 927      BINDING AFFINITY PREDICTED BY RF-SCORE:    0.00 PKD
ROOT
HETATM    1  O   UNL     1     -10.021  15.704  64.860  1.00  0.00    -0.331 OA 
HETATM    2  C   UNL     1     -10.961  16.700  65.274  1.00  0.00    -0.120 C  
HETATM    3  H   UNL     1     -10.309  15.354  64.025  1.00  0.00     0.000 HD 
ENDROOT
BRANCH   2   4
HETATM    4  C   UNL     1     -10.495  17.265  66.620  1.00  0.00    -0.257 C  
HETATM    5  H   UNL     1     -11.321  17.588  68.358  1.00  0.00     0.000 HD 
HETATM    6  O   UNL     1     -11.610  17.238  67.523  1.00  0.00     0.414 OA 
BRANCH   4   7
HETATM    7  C   UNL     1      -9.319  16.473  67.217  1.00  0.00    -0.222 C  
HETATM    8  H   UNL     1      -8.043  16.677  68.708  1.00  0.00     0.000 HD 
HETATM    9  O   UNL     1      -8.769  17.166  68.338  1.00  0.00    -0.230 OA 
BRANCH   7  10
HETATM   10  C   UNL     1      -9.754  15.049  67.647  1.00  0.00    -0.215 C  
HETATM   11  H   UNL     1     -11.414  14.130  68.287  1.00  0.00     0.000 HD 
HETATM   12  O   UNL     1     -11.147  15.003  68.023  1.00  0.00    -0.276 OA 
BRANCH  10  13
HETATM   13  C   UNL     1      -8.924  14.487  68.808  1.00  0.00    -0.157 C  
HETATM   14  C   UNL     1      -7.656  13.727  68.376  1.00  0.00    -0.135 C  
HETATM   15  O   UNL     1      -9.766  13.715  69.666  1.00  0.00     0.142 OA 
HETATM   16  O   UNL     1      -6.958  14.291  67.364  1.00  0.00    -0.183 OA 
HETATM   17  O   UNL     1      -7.272  12.712  68.950  1.00  0.00    -0.101 OA 
HETATM   18  H   UNL     1      -9.252  13.367  70.386  1.00  0.00     0.000 HD 
ENDBRANCH  10  13
ENDBRANCH   7  10
ENDBRANCH   4   7
ENDBRANCH   2   4
TORSDOF 4
ENDMDL
