MODEL        1
REMARK 921   NORMALIZED FREE ENERGY PREDICTED BY IDOCK:   -5.72 KCAL/MOL
REMARK 922        TOTAL FREE ENERGY PREDICTED BY IDOCK:   -6.08 KCAL/MOL
REMARK 923 INTER-LIGAND FREE ENERGY PREDICTED BY IDOCK:   -6.05 KCAL/MOL
REMARK 924 INTRA-LIGAND FREE ENERGY PREDICTED BY IDOCK:   -0.03 KCAL/MOL
REMARK 927      BINDING AFFINITY PREDICTED BY RF-SCORE:    0.00 PKD
ROOT
HETATM    1  N   UNL     1     -11.162  11.312  66.928  1.00  0.00    -0.353 NA 
HETATM    2  H1  UNL     1     -11.875  10.968  67.571  1.00  0.00     0.000 HD 
HETATM    3  C   UNL     1     -10.877  12.758  67.119  1.00  0.00    -0.256 C  
HETATM    4  H2  UNL     1     -10.308  10.758  66.995  1.00  0.00     0.000 HD 
HETATM    5  C   UNL     1      -9.793  13.282  66.141  1.00  0.00    -0.280 C  
HETATM    6  O   UNL     1     -10.282  13.367  64.805  1.00  0.00    -0.360 OA 
HETATM    7  O   UNL     1      -8.670  12.409  66.126  1.00  0.00    -0.414 OA 
HETATM    8  H   UNL     1      -8.007  12.730  65.527  1.00  0.00     0.000 HD 
HETATM    9  C   UNL     1     -11.388  14.279  64.638  1.00  0.00    -0.373 C  
HETATM   10  H   UNL     1     -12.682  15.426  67.544  1.00  0.00     0.000 HD 
HETATM   11  C   UNL     1     -12.573  13.869  65.530  1.00  0.00    -0.526 C  
HETATM   12  C   UNL     1     -12.148  13.628  66.989  1.00  0.00    -0.380 C  
HETATM   13  H   UNL     1     -13.926  12.442  65.542  1.00  0.00     0.000 HD 
HETATM   14  O   UNL     1     -13.194  12.695  64.991  1.00  0.00    -0.753 OA 
HETATM   15  O   UNL     1     -11.901  14.892  67.623  1.00  0.00    -0.352 OA 
ENDROOT
BRANCH   9  16
HETATM   16  C   UNL     1     -10.965  15.746  64.819  1.00  0.00    -0.393 C  
HETATM   17  O   UNL     1     -11.491  16.543  63.759  1.00  0.00    -1.615 OA 
HETATM   18  H   UNL     1     -11.230  17.449  63.871  1.00  0.00     0.000 HD 
ENDBRANCH   9  16
TORSDOF 1
ENDMDL
MODEL        2
REMARK 921   NORMALIZED FREE ENERGY PREDICTED BY IDOCK:   -5.70 KCAL/MOL
REMARK 922        TOTAL FREE ENERGY PREDICTED BY IDOCK:   -6.06 KCAL/MOL
REMARK 923 INTER-LIGAND FREE ENERGY PREDICTED BY IDOCK:   -5.80 KCAL/MOL
REMARK 924 INTRA-LIGAND FREE ENERGY PREDICTED BY IDOCK:   -0.25 KCAL/MOL
REMARK 927      BINDING AFFINITY PREDICTED BY RF-SCORE:    0.00 PKD
ROOT
HETATM    1  N   UNL     1     -11.328  11.416  66.767  1.00  0.00    -0.405 NA 
HETATM    2  H1  UNL     1     -11.987  10.694  66.474  1.00  0.00     0.000 HD 
HETATM    3  C   UNL     1     -11.912  12.780  66.694  1.00  0.00    -0.341 C  
HETATM    4  H2  UNL     1     -10.962  11.222  67.699  1.00  0.00     0.000 HD 
HETATM    5  C   UNL     1     -10.911  13.877  67.140  1.00  0.00    -0.291 C  
HETATM    6  O   UNL     1      -9.876  14.070  66.179  1.00  0.00    -0.292 OA 
HETATM    7  O   UNL     1     -10.288  13.517  68.366  1.00  0.00    -0.238 OA 
HETATM    8  H   UNL     1      -9.675  14.189  68.639  1.00  0.00     0.000 HD 
HETATM    9  C   UNL     1     -10.344  14.513  64.888  1.00  0.00    -0.371 C  
HETATM   10  H   UNL     1     -13.705  14.407  64.527  1.00  0.00     0.000 HD 
HETATM   11  C   UNL     1     -11.335  13.500  64.289  1.00  0.00    -0.375 C  
HETATM   12  C   UNL     1     -12.446  13.115  65.283  1.00  0.00    -0.495 C  
HETATM   13  H   UNL     1     -11.237  11.707  63.489  1.00  0.00     0.000 HD 
HETATM   14  O   UNL     1     -10.625  12.333  63.858  1.00  0.00    -0.354 OA 
HETATM   15  O   UNL     1     -13.377  14.201  65.395  1.00  0.00    -0.705 OA 
ENDROOT
BRANCH   9  16
HETATM   16  C   UNL     1     -10.888  15.951  64.928  1.00  0.00    -0.400 C  
HETATM   17  O   UNL     1     -11.630  16.228  63.742  1.00  0.00    -1.539 OA 
HETATM   18  H   UNL     1     -11.967  17.116  63.767  1.00  0.00     0.000 HD 
ENDBRANCH   9  16
TORSDOF 1
ENDMDL
MODEL        3
REMARK 921   NORMALIZED FREE ENERGY PREDICTED BY IDOCK:   -5.34 KCAL/MOL
REMARK 922        TOTAL FREE ENERGY PREDICTED BY IDOCK:   -5.68 KCAL/MOL
REMARK 923 INTER-LIGAND FREE ENERGY PREDICTED BY IDOCK:   -5.41 KCAL/MOL
REMARK 924 INTRA-LIGAND FREE ENERGY PREDICTED BY IDOCK:   -0.27 KCAL/MOL
REMARK 927      BINDING AFFINITY PREDICTED BY RF-SCORE:    0.00 PKD
ROOT
HETATM    1  N   UNL     1     -11.587  16.235  63.941  1.00  0.00    -1.573 NA 
HETATM    2  H1  UNL     1     -11.846  15.959  62.993  1.00  0.00     0.000 HD 
HETATM    3  C   UNL     1     -10.664  15.263  64.581  1.00  0.00    -0.200 C  
HETATM    4  H2  UNL     1     -11.198  17.177  63.956  1.00  0.00     0.000 HD 
HETATM    5  C   UNL     1     -10.270  15.681  66.022  1.00  0.00    -0.335 C  
HETATM    6  O   UNL     1     -11.356  15.528  66.932  1.00  0.00    -0.227 OA 
HETATM    7  O   UNL     1      -9.879  17.048  66.056  1.00  0.00    -0.403 OA 
HETATM    8  H   UNL     1      -9.639  17.304  66.939  1.00  0.00     0.000 HD 
HETATM    9  C   UNL     1     -11.826  14.170  67.067  1.00  0.00    -0.429 C  
HETATM   10  H   UNL     1     -10.518  12.025  64.805  1.00  0.00     0.000 HD 
HETATM   11  C   UNL     1     -12.291  13.615  65.709  1.00  0.00    -0.482 C  
HETATM   12  C   UNL     1     -11.243  13.830  64.603  1.00  0.00    -0.378 C  
HETATM   13  H   UNL     1     -13.822  13.883  64.505  1.00  0.00     0.000 HD 
HETATM   14  O   UNL     1     -13.535  14.225  65.343  1.00  0.00    -0.581 OA 
HETATM   15  O   UNL     1     -10.161  12.905  64.791  1.00  0.00    -0.313 OA 
ENDROOT
BRANCH   9  16
HETATM   16  C   UNL     1     -10.804  13.269  67.779  1.00  0.00    -0.252 C  
HETATM   17  O   UNL     1     -11.033  11.902  67.438  1.00  0.00    -0.235 OA 
HETATM   18  H   UNL     1     -10.402  11.345  67.878  1.00  0.00     0.000 HD 
ENDBRANCH   9  16
TORSDOF 1
ENDMDL
MODEL        4
REMARK 921   NORMALIZED FREE ENERGY PREDICTED BY IDOCK:   -5.29 KCAL/MOL
REMARK 922        TOTAL FREE ENERGY PREDICTED BY IDOCK:   -5.62 KCAL/MOL
REMARK 923 INTER-LIGAND FREE ENERGY PREDICTED BY IDOCK:   -5.35 KCAL/MOL
REMARK 924 INTRA-LIGAND FREE ENERGY PREDICTED BY IDOCK:   -0.27 KCAL/MOL
REMARK 927      BINDING AFFINITY PREDICTED BY RF-SCORE:    0.00 PKD
ROOT
HETATM    1  N   UNL     1     -11.481  14.959  67.366  1.00  0.00    -0.348 NA 
HETATM    2  H1  UNL     1     -12.408  15.200  67.719  1.00  0.00     0.000 HD 
HETATM    3  C   UNL     1     -11.468  14.772  65.892  1.00  0.00    -0.319 C  
HETATM    4  H2  UNL     1     -10.787  15.648  67.655  1.00  0.00     0.000 HD 
HETATM    5  C   UNL     1     -10.060  14.407  65.354  1.00  0.00    -0.359 C  
HETATM    6  O   UNL     1      -9.687  13.078  65.710  1.00  0.00    -0.240 OA 
HETATM    7  O   UNL     1      -9.077  15.281  65.893  1.00  0.00    -0.436 OA 
HETATM    8  H   UNL     1      -8.215  15.057  65.564  1.00  0.00     0.000 HD 
HETATM    9  C   UNL     1     -10.553  12.057  65.172  1.00  0.00    -0.288 C  
HETATM   10  H   UNL     1     -13.375  13.254  63.744  1.00  0.00     0.000 HD 
HETATM   11  C   UNL     1     -12.002  12.264  65.648  1.00  0.00    -0.306 C  
HETATM   12  C   UNL     1     -12.487  13.708  65.426  1.00  0.00    -0.499 C  
HETATM   13  H   UNL     1     -13.000  12.038  67.327  1.00  0.00     0.000 HD 
HETATM   14  O   UNL     1     -12.106  11.911  67.033  1.00  0.00    -0.600 OA 
HETATM   15  O   UNL     1     -12.748  13.908  64.029  1.00  0.00    -0.665 OA 
ENDROOT
BRANCH   9  16
HETATM   16  C   UNL     1     -10.424  11.929  63.645  1.00  0.00    -0.447 C  
HETATM   17  O   UNL     1     -11.600  11.332  63.101  1.00  0.00    -0.847 OA 
HETATM   18  H   UNL     1     -11.520  11.253  62.158  1.00  0.00     0.000 HD 
ENDBRANCH   9  16
TORSDOF 1
ENDMDL
MODEL        5
REMARK 921   NORMALIZED FREE ENERGY PREDICTED BY IDOCK:   -5.27 KCAL/MOL
REMARK 922        TOTAL FREE ENERGY PREDICTED BY IDOCK:   -5.61 KCAL/MOL
REMARK 923 INTER-LIGAND FREE ENERGY PREDICTED BY IDOCK:   -5.34 KCAL/MOL
REMARK 924 INTRA-LIGAND FREE ENERGY PREDICTED BY IDOCK:   -0.27 KCAL/MOL
REMARK 927      BINDING AFFINITY PREDICTED BY RF-SCORE:    0.00 PKD
ROOT
HETATM    1  N   UNL     1     -12.986  11.902  62.841  1.00  0.00    -0.695 NA 
HETATM    2  H1  UNL     1     -13.998  11.923  62.964  1.00  0.00     0.000 HD 
HETATM    3  C   UNL     1     -12.261  11.748  64.129  1.00  0.00    -0.190 C  
HETATM    4  H2  UNL     1     -12.711  11.180  62.176  1.00  0.00     0.000 HD 
HETATM    5  C   UNL     1     -10.722  11.716  63.942  1.00  0.00    -0.398 C  
HETATM    6  O   UNL     1     -10.205  12.998  63.595  1.00  0.00    -0.302 OA 
HETATM    7  O   UNL     1     -10.363  10.819  62.899  1.00  0.00    -0.727 OA 
HETATM    8  H   UNL     1      -9.421  10.800  62.784  1.00  0.00     0.000 HD 
HETATM    9  C   UNL     1     -10.425  14.015  64.595  1.00  0.00    -0.373 C  
HETATM   10  H   UNL     1     -12.509  13.071  67.086  1.00  0.00     0.000 HD 
HETATM   11  C   UNL     1     -11.928  14.192  64.872  1.00  0.00    -0.417 C  
HETATM   12  C   UNL     1     -12.632  12.850  65.146  1.00  0.00    -0.471 C  
HETATM   13  H   UNL     1     -13.472  14.969  63.935  1.00  0.00     0.000 HD 
HETATM   14  O   UNL     1     -12.544  14.860  63.764  1.00  0.00    -0.791 OA 
HETATM   15  O   UNL     1     -12.280  12.393  66.460  1.00  0.00    -0.586 OA 
ENDROOT
BRANCH   9  16
HETATM   16  C   UNL     1      -9.594  13.771  65.865  1.00  0.00    -0.128 C  
HETATM   17  O   UNL     1     -10.169  14.466  66.970  1.00  0.00    -0.258 OA 
HETATM   18  H   UNL     1      -9.656  14.315  67.755  1.00  0.00     0.000 HD 
ENDBRANCH   9  16
TORSDOF 1
ENDMDL
MODEL        6
REMARK 921   NORMALIZED FREE ENERGY PREDICTED BY IDOCK:   -5.25 KCAL/MOL
REMARK 922        TOTAL FREE ENERGY PREDICTED BY IDOCK:   -5.59 KCAL/MOL
REMARK 923 INTER-LIGAND FREE ENERGY PREDICTED BY IDOCK:   -5.32 KCAL/MOL
REMARK 924 INTRA-LIGAND FREE ENERGY PREDICTED BY IDOCK:   -0.27 KCAL/MOL
REMARK 927      BINDING AFFINITY PREDICTED BY RF-SCORE:    0.00 PKD
ROOT
HETATM    1  N   UNL     1      -9.231  16.765  65.827  1.00  0.00    -0.518 NA 
HETATM    2  H1  UNL     1      -8.762  17.170  66.637  1.00  0.00     0.000 HD 
HETATM    3  C   UNL     1     -10.560  16.195  66.169  1.00  0.00    -0.283 C  
HETATM    4  H2  UNL     1      -9.306  17.442  65.069  1.00  0.00     0.000 HD 
HETATM    5  C   UNL     1     -11.274  15.578  64.938  1.00  0.00    -0.389 C  
HETATM    6  O   UNL     1     -10.656  14.364  64.522  1.00  0.00    -0.371 OA 
HETATM    7  O   UNL     1     -11.231  16.474  63.834  1.00  0.00    -1.440 OA 
HETATM    8  H   UNL     1     -11.668  16.097  63.081  1.00  0.00     0.000 HD 
HETATM    9  C   UNL     1     -10.683  13.317  65.515  1.00  0.00    -0.289 C  
HETATM   10  H   UNL     1     -11.723  14.336  68.566  1.00  0.00     0.000 HD 
HETATM   11  C   UNL     1      -9.974  13.768  66.803  1.00  0.00    -0.270 C  
HETATM   12  C   UNL     1     -10.474  15.139  67.294  1.00  0.00    -0.271 C  
HETATM   13  H   UNL     1      -8.120  14.082  67.379  1.00  0.00     0.000 HD 
HETATM   14  O   UNL     1      -8.558  13.803  66.583  1.00  0.00    -0.098 OA 
HETATM   15  O   UNL     1     -11.777  14.985  67.875  1.00  0.00    -0.338 OA 
ENDROOT
BRANCH   9  16
HETATM   16  C   UNL     1     -12.103  12.779  65.754  1.00  0.00    -0.448 C  
HETATM   17  O   UNL     1     -12.161  12.080  66.997  1.00  0.00    -0.603 OA 
HETATM   18  H   UNL     1     -13.038  11.748  67.146  1.00  0.00     0.000 HD 
ENDBRANCH   9  16
TORSDOF 1
ENDMDL
MODEL        7
REMARK 921   NORMALIZED FREE ENERGY PREDICTED BY IDOCK:   -5.24 KCAL/MOL
REMARK 922        TOTAL FREE ENERGY PREDICTED BY IDOCK:   -5.58 KCAL/MOL
REMARK 923 INTER-LIGAND FREE ENERGY PREDICTED BY IDOCK:   -5.33 KCAL/MOL
REMARK 924 INTRA-LIGAND FREE ENERGY PREDICTED BY IDOCK:   -0.25 KCAL/MOL
REMARK 927      BINDING AFFINITY PREDICTED BY RF-SCORE:    0.00 PKD
ROOT
HETATM    1  N   UNL     1     -11.613  16.150  64.053  1.00  0.00    -1.417 NA 
HETATM    2  H1  UNL     1     -11.700  17.038  64.548  1.00  0.00     0.000 HD 
HETATM    3  C   UNL     1     -12.174  15.013  64.827  1.00  0.00    -0.218 C  
HETATM    4  H2  UNL     1     -12.031  16.203  63.125  1.00  0.00     0.000 HD 
HETATM    5  C   UNL     1     -12.043  13.663  64.076  1.00  0.00    -0.425 C  
HETATM    6  O   UNL     1     -10.692  13.208  64.038  1.00  0.00    -0.399 OA 
HETATM    7  O   UNL     1     -12.483  13.794  62.730  1.00  0.00    -0.879 OA 
HETATM    8  H   UNL     1     -12.402  12.967  62.270  1.00  0.00     0.000 HD 
HETATM    9  C   UNL     1     -10.118  12.954  65.337  1.00  0.00    -0.251 C  
HETATM   10  H   UNL     1     -12.016  14.029  67.920  1.00  0.00     0.000 HD 
HETATM   11  C   UNL     1     -10.144  14.226  66.204  1.00  0.00    -0.313 C  
HETATM   12  C   UNL     1     -11.535  14.885  66.228  1.00  0.00    -0.269 C  
HETATM   13  H   UNL     1      -9.178  15.937  66.259  1.00  0.00     0.000 HD 
HETATM   14  O   UNL     1      -9.162  15.152  65.724  1.00  0.00    -0.264 OA 
HETATM   15  O   UNL     1     -12.410  14.108  67.059  1.00  0.00    -0.396 OA 
ENDROOT
BRANCH   9  16
HETATM   16  C   UNL     1     -10.749  11.733  66.024  1.00  0.00    -0.279 C  
HETATM   17  O   UNL     1     -10.640  11.855  67.441  1.00  0.00    -0.215 OA 
HETATM   18  H   UNL     1     -11.031  11.101  67.866  1.00  0.00     0.000 HD 
ENDBRANCH   9  16
TORSDOF 1
ENDMDL
MODEL        8
REMARK 921   NORMALIZED FREE ENERGY PREDICTED BY IDOCK:   -5.23 KCAL/MOL
REMARK 922        TOTAL FREE ENERGY PREDICTED BY IDOCK:   -5.56 KCAL/MOL
REMARK 923 INTER-LIGAND FREE ENERGY PREDICTED BY IDOCK:   -5.53 KCAL/MOL
REMARK 924 INTRA-LIGAND FREE ENERGY PREDICTED BY IDOCK:   -0.03 KCAL/MOL
REMARK 927      BINDING AFFINITY PREDICTED BY RF-SCORE:    0.00 PKD
ROOT
HETATM    1  N   UNL     1     -10.986  12.116  67.912  1.00  0.00    -0.217 NA 
HETATM    2  H1  UNL     1     -10.907  11.101  67.836  1.00  0.00     0.000 HD 
HETATM    3  C   UNL     1     -12.033  12.671  67.016  1.00  0.00    -0.260 C  
HETATM    4  H2  UNL     1     -11.141  12.401  68.878  1.00  0.00     0.000 HD 
HETATM    5  C   UNL     1     -12.153  14.213  67.131  1.00  0.00    -0.397 C  
HETATM    6  O   UNL     1     -11.038  14.876  66.541  1.00  0.00    -0.334 OA 
HETATM    7  O   UNL     1     -12.209  14.610  68.495  1.00  0.00    -0.573 OA 
HETATM    8  H   UNL     1     -12.282  15.554  68.565  1.00  0.00     0.000 HD 
HETATM    9  C   UNL     1     -10.886  14.631  65.127  1.00  0.00    -0.401 C  
HETATM   10  H   UNL     1     -12.904  12.201  63.921  1.00  0.00     0.000 HD 
HETATM   11  C   UNL     1     -10.719  13.127  64.847  1.00  0.00    -0.346 C  
HETATM   12  C   UNL     1     -11.805  12.283  65.537  1.00  0.00    -0.359 C  
HETATM   13  H   UNL     1      -9.313  11.775  65.097  1.00  0.00     0.000 HD 
HETATM   14  O   UNL     1      -9.416  12.704  65.269  1.00  0.00     0.000 OA 
HETATM   15  O   UNL     1     -13.044  12.440  64.830  1.00  0.00    -0.806 OA 
ENDROOT
BRANCH   9  16
HETATM   16  C   UNL     1     -12.003  15.287  64.299  1.00  0.00    -0.223 C  
HETATM   17  O   UNL     1     -11.537  16.505  63.722  1.00  0.00    -1.617 OA 
HETATM   18  H   UNL     1     -12.227  16.910  63.210  1.00  0.00     0.000 HD 
ENDBRANCH   9  16
TORSDOF 1
ENDMDL
MODEL        9
REMARK 921   NORMALIZED FREE ENERGY PREDICTED BY IDOCK:   -5.11 KCAL/MOL
REMARK 922        TOTAL FREE ENERGY PREDICTED BY IDOCK:   -5.44 KCAL/MOL
REMARK 923 INTER-LIGAND FREE ENERGY PREDICTED BY IDOCK:   -5.17 KCAL/MOL
REMARK 924 INTRA-LIGAND FREE ENERGY PREDICTED BY IDOCK:   -0.26 KCAL/MOL
REMARK 927      BINDING AFFINITY PREDICTED BY RF-SCORE:    0.00 PKD
ROOT
HETATM    1  N   UNL     1     -13.245  12.150  64.297  1.00  0.00    -0.725 NA 
HETATM    2  H1  UNL     1     -13.396  11.156  64.123  1.00  0.00     0.000 HD 
HETATM    3  C   UNL     1     -11.824  12.546  64.120  1.00  0.00    -0.411 C  
HETATM    4  H2  UNL     1     -13.860  12.722  63.719  1.00  0.00     0.000 HD 
HETATM    5  C   UNL     1     -11.594  14.056  64.385  1.00  0.00    -0.369 C  
HETATM    6  O   UNL     1     -11.700  14.373  65.770  1.00  0.00    -0.353 OA 
HETATM    7  O   UNL     1     -12.562  14.838  63.697  1.00  0.00    -1.014 OA 
HETATM    8  H   UNL     1     -12.420  15.763  63.859  1.00  0.00     0.000 HD 
HETATM    9  C   UNL     1     -10.728  13.709  66.605  1.00  0.00    -0.280 C  
HETATM   10  H   UNL     1      -8.957  11.306  65.016  1.00  0.00     0.000 HD 
HETATM   11  C   UNL     1     -10.852  12.180  66.478  1.00  0.00    -0.270 C  
HETATM   12  C   UNL     1     -10.870  11.718  65.010  1.00  0.00    -0.295 C  
HETATM   13  H   UNL     1     -12.113  10.795  67.076  1.00  0.00     0.000 HD 
HETATM   14  O   UNL     1     -12.036  11.738  67.154  1.00  0.00    -0.617 OA 
HETATM   15  O   UNL     1      -9.544  11.815  64.469  1.00  0.00    -0.183 OA 
ENDROOT
BRANCH   9  16
HETATM   16  C   UNL     1      -9.302  14.229  66.362  1.00  0.00    -0.245 C  
HETATM   17  O   UNL     1      -8.347  13.239  66.741  1.00  0.00    -0.408 OA 
HETATM   18  H   UNL     1      -7.466  13.559  66.591  1.00  0.00     0.000 HD 
ENDBRANCH   9  16
TORSDOF 1
ENDMDL
MODEL       10
REMARK 921   NORMALIZED FREE ENERGY PREDICTED BY IDOCK:   -5.05 KCAL/MOL
REMARK 922        TOTAL FREE ENERGY PREDICTED BY IDOCK:   -5.38 KCAL/MOL
REMARK 923 INTER-LIGAND FREE ENERGY PREDICTED BY IDOCK:   -5.35 KCAL/MOL
REMARK 924 INTRA-LIGAND FREE ENERGY PREDICTED BY IDOCK:   -0.03 KCAL/MOL
REMARK 927      BINDING AFFINITY PREDICTED BY RF-SCORE:    0.00 PKD
ROOT
HETATM    1  N   UNL     1     -11.409  12.186  63.885  1.00  0.00    -0.389 NA 
HETATM    2  H1  UNL     1     -10.757  11.421  63.708  1.00  0.00     0.000 HD 
HETATM    3  C   UNL     1     -10.774  13.315  64.612  1.00  0.00    -0.400 C  
HETATM    4  H2  UNL     1     -11.845  12.505  63.020  1.00  0.00     0.000 HD 
HETATM    5  C   UNL     1     -11.765  14.477  64.882  1.00  0.00    -0.402 C  
HETATM    6  O   UNL     1     -12.724  14.134  65.879  1.00  0.00    -0.487 OA 
HETATM    7  O   UNL     1     -12.484  14.806  63.700  1.00  0.00    -1.064 OA 
HETATM    8  H   UNL     1     -13.091  15.517  63.865  1.00  0.00     0.000 HD 
HETATM    9  C   UNL     1     -12.153  13.840  67.171  1.00  0.00    -0.378 C  
HETATM   10  H   UNL     1      -8.782  13.583  67.165  1.00  0.00     0.000 HD 
HETATM   11  C   UNL     1     -11.159  12.670  67.077  1.00  0.00    -0.281 C  
HETATM   12  C   UNL     1     -10.133  12.867  65.946  1.00  0.00    -0.289 C  
HETATM   13  H   UNL     1     -11.264  10.722  66.831  1.00  0.00     0.000 HD 
HETATM   14  O   UNL     1     -11.878  11.445  66.889  1.00  0.00    -0.489 OA 
HETATM   15  O   UNL     1      -9.175  13.858  66.345  1.00  0.00    -0.242 OA 
ENDROOT
BRANCH   9  16
HETATM   16  C   UNL     1     -11.564  15.091  67.844  1.00  0.00    -0.333 C  
HETATM   17  O   UNL     1     -12.287  15.395  69.035  1.00  0.00    -0.598 OA 
HETATM   18  H   UNL     1     -11.923  16.167  69.451  1.00  0.00     0.000 HD 
ENDBRANCH   9  16
TORSDOF 1
ENDMDL
MODEL       11
REMARK 921   NORMALIZED FREE ENERGY PREDICTED BY IDOCK:   -5.03 KCAL/MOL
REMARK 922        TOTAL FREE ENERGY PREDICTED BY IDOCK:   -5.35 KCAL/MOL
REMARK 923 INTER-LIGAND FREE ENERGY PREDICTED BY IDOCK:   -5.36 KCAL/MOL
REMARK 924 INTRA-LIGAND FREE ENERGY PREDICTED BY IDOCK:    0.01 KCAL/MOL
REMARK 927      BINDING AFFINITY PREDICTED BY RF-SCORE:    0.00 PKD
ROOT
HETATM    1  N   UNL     1      -9.988  10.149  65.538  1.00  0.00    -0.292 NA 
HETATM    2  H1  UNL     1      -9.424   9.880  66.344  1.00  0.00     0.000 HD 
HETATM    3  C   UNL     1      -9.784  11.568  65.151  1.00  0.00    -0.237 C  
HETATM    4  H2  UNL     1      -9.822   9.525  64.749  1.00  0.00     0.000 HD 
HETATM    5  C   UNL     1     -10.642  11.977  63.926  1.00  0.00    -0.400 C  
HETATM    6  O   UNL     1     -12.025  12.075  64.257  1.00  0.00    -0.366 OA 
HETATM    7  O   UNL     1     -10.524  11.011  62.888  1.00  0.00    -0.746 OA 
HETATM    8  H   UNL     1     -11.050  11.262  62.138  1.00  0.00     0.000 HD 
HETATM    9  C   UNL     1     -12.323  13.075  65.255  1.00  0.00    -0.486 C  
HETATM   10  H   UNL     1      -9.591  14.389  66.752  1.00  0.00     0.000 HD 
HETATM   11  C   UNL     1     -11.563  12.787  66.561  1.00  0.00    -0.376 C  
HETATM   12  C   UNL     1     -10.063  12.541  66.319  1.00  0.00    -0.250 C  
HETATM   13  H   UNL     1     -11.683  11.481  68.026  1.00  0.00     0.000 HD 
HETATM   14  O   UNL     1     -12.153  11.659  67.220  1.00  0.00    -0.595 OA 
HETATM   15  O   UNL     1      -9.420  13.792  66.033  1.00  0.00    -0.215 OA 
ENDROOT
BRANCH   9  16
HETATM   16  C   UNL     1     -12.114  14.504  64.728  1.00  0.00    -0.445 C  
HETATM   17  O   UNL     1     -12.614  14.614  63.396  1.00  0.00    -0.956 OA 
HETATM   18  H   UNL     1     -12.485  15.497  63.070  1.00  0.00     0.000 HD 
ENDBRANCH   9  16
TORSDOF 1
ENDMDL
MODEL       12
REMARK 921   NORMALIZED FREE ENERGY PREDICTED BY IDOCK:   -5.00 KCAL/MOL
REMARK 922        TOTAL FREE ENERGY PREDICTED BY IDOCK:   -5.32 KCAL/MOL
REMARK 923 INTER-LIGAND FREE ENERGY PREDICTED BY IDOCK:   -5.29 KCAL/MOL
REMARK 924 INTRA-LIGAND FREE ENERGY PREDICTED BY IDOCK:   -0.03 KCAL/MOL
REMARK 927      BINDING AFFINITY PREDICTED BY RF-SCORE:    0.00 PKD
ROOT
HETATM    1  N   UNL     1     -12.235  14.490  68.169  1.00  0.00    -0.593 NA 
HETATM    2  H1  UNL     1     -12.333  15.501  68.259  1.00  0.00     0.000 HD 
HETATM    3  C   UNL     1     -11.121  14.108  67.262  1.00  0.00    -0.305 C  
HETATM    4  H2  UNL     1     -12.134  14.047  69.081  1.00  0.00     0.000 HD 
HETATM    5  C   UNL     1     -10.971  12.571  67.124  1.00  0.00    -0.263 C  
HETATM    6  O   UNL     1     -12.031  12.003  66.359  1.00  0.00    -0.611 OA 
HETATM    7  O   UNL     1     -10.992  11.949  68.402  1.00  0.00    -0.206 OA 
HETATM    8  H   UNL     1     -10.901  11.008  68.317  1.00  0.00     0.000 HD 
HETATM    9  C   UNL     1     -12.101  12.482  64.999  1.00  0.00    -0.446 C  
HETATM   10  H   UNL     1     -10.070  15.107  64.355  1.00  0.00     0.000 HD 
HETATM   11  C   UNL     1     -12.286  14.009  64.967  1.00  0.00    -0.441 C  
HETATM   12  C   UNL     1     -11.265  14.738  65.858  1.00  0.00    -0.340 C  
HETATM   13  H   UNL     1     -13.736  15.281  65.347  1.00  0.00     0.000 HD 
HETATM   14  O   UNL     1     -13.622  14.338  65.367  1.00  0.00    -0.516 OA 
HETATM   15  O   UNL     1      -9.981  14.719  65.218  1.00  0.00    -0.361 OA 
ENDROOT
BRANCH   9  16
HETATM   16  C   UNL     1     -10.919  11.991  64.148  1.00  0.00    -0.360 C  
HETATM   17  O   UNL     1     -11.396  11.250  63.026  1.00  0.00    -0.847 OA 
HETATM   18  H   UNL     1     -10.665  10.947  62.500  1.00  0.00     0.000 HD 
ENDBRANCH   9  16
TORSDOF 1
ENDMDL
MODEL       13
REMARK 921   NORMALIZED FREE ENERGY PREDICTED BY IDOCK:   -4.98 KCAL/MOL
REMARK 922        TOTAL FREE ENERGY PREDICTED BY IDOCK:   -5.30 KCAL/MOL
REMARK 923 INTER-LIGAND FREE ENERGY PREDICTED BY IDOCK:   -5.02 KCAL/MOL
REMARK 924 INTRA-LIGAND FREE ENERGY PREDICTED BY IDOCK:   -0.27 KCAL/MOL
REMARK 927      BINDING AFFINITY PREDICTED BY RF-SCORE:    0.00 PKD
ROOT
HETATM    1  N   UNL     1     -12.502  14.245  63.686  1.00  0.00    -1.083 NA 
HETATM    2  H1  UNL     1     -12.987  15.084  64.007  1.00  0.00     0.000 HD 
HETATM    3  C   UNL     1     -12.526  13.156  64.697  1.00  0.00    -0.373 C  
HETATM    4  H2  UNL     1     -12.874  13.925  62.792  1.00  0.00     0.000 HD 
HETATM    5  C   UNL     1     -11.790  11.881  64.210  1.00  0.00    -0.279 C  
HETATM    6  O   UNL     1     -10.377  12.067  64.176  1.00  0.00    -0.297 OA 
HETATM    7  O   UNL     1     -12.203  11.537  62.894  1.00  0.00    -0.942 OA 
HETATM    8  H   UNL     1     -11.752  10.756  62.596  1.00  0.00     0.000 HD 
HETATM    9  C   UNL     1      -9.787  12.355  65.461  1.00  0.00    -0.200 C  
HETATM   10  H   UNL     1     -12.040  12.977  67.905  1.00  0.00     0.000 HD 
HETATM   11  C   UNL     1     -10.398  13.630  66.069  1.00  0.00    -0.304 C  
HETATM   12  C   UNL     1     -11.937  13.603  66.054  1.00  0.00    -0.413 C  
HETATM   13  H   UNL     1     -10.289  15.565  65.736  1.00  0.00     0.000 HD 
HETATM   14  O   UNL     1      -9.913  14.777  65.361  1.00  0.00    -0.357 OA 
HETATM   15  O   UNL     1     -12.403  12.703  67.070  1.00  0.00    -0.399 OA 
ENDROOT
BRANCH   9  16
HETATM   16  C   UNL     1      -9.834  11.143  66.407  1.00  0.00    -0.211 C  
HETATM   17  O   UNL     1      -9.693  11.571  67.760  1.00  0.00    -0.168 OA 
HETATM   18  H   UNL     1      -9.722  10.823  68.345  1.00  0.00     0.000 HD 
ENDBRANCH   9  16
TORSDOF 1
ENDMDL
MODEL       14
REMARK 921   NORMALIZED FREE ENERGY PREDICTED BY IDOCK:   -4.96 KCAL/MOL
REMARK 922        TOTAL FREE ENERGY PREDICTED BY IDOCK:   -5.28 KCAL/MOL
REMARK 923 INTER-LIGAND FREE ENERGY PREDICTED BY IDOCK:   -5.01 KCAL/MOL
REMARK 924 INTRA-LIGAND FREE ENERGY PREDICTED BY IDOCK:   -0.27 KCAL/MOL
REMARK 927      BINDING AFFINITY PREDICTED BY RF-SCORE:    0.00 PKD
ROOT
HETATM    1  N   UNL     1     -10.792  11.761  63.298  1.00  0.00    -0.652 NA 
HETATM    2  H1  UNL     1      -9.951  11.881  62.733  1.00  0.00     0.000 HD 
HETATM    3  C   UNL     1     -11.277  13.042  63.873  1.00  0.00    -0.389 C  
HETATM    4  H2  UNL     1     -11.528  11.294  62.768  1.00  0.00     0.000 HD 
HETATM    5  C   UNL     1     -12.555  12.859  64.732  1.00  0.00    -0.425 C  
HETATM    6  O   UNL     1     -12.274  12.202  65.965  1.00  0.00    -0.609 OA 
HETATM    7  O   UNL     1     -13.514  12.069  64.040  1.00  0.00    -0.655 OA 
HETATM    8  H   UNL     1     -14.296  11.958  64.567  1.00  0.00     0.000 HD 
HETATM    9  C   UNL     1     -11.362  12.920  66.823  1.00  0.00    -0.322 C  
HETATM   10  H   UNL     1      -9.884  15.580  65.348  1.00  0.00     0.000 HD 
HETATM   11  C   UNL     1     -10.016  13.154  66.116  1.00  0.00    -0.291 C  
HETATM   12  C   UNL     1     -10.193  13.756  64.711  1.00  0.00    -0.335 C  
HETATM   13  H   UNL     1      -8.462  12.062  65.605  1.00  0.00     0.000 HD 
HETATM   14  O   UNL     1      -9.294  11.918  66.041  1.00  0.00    -0.229 OA 
HETATM   15  O   UNL     1     -10.551  15.141  64.833  1.00  0.00    -0.411 OA 
ENDROOT
BRANCH   9  16
HETATM   16  C   UNL     1     -11.987  14.206  67.388  1.00  0.00    -0.404 C  
HETATM   17  O   UNL     1     -10.964  15.127  67.761  1.00  0.00    -0.286 OA 
HETATM   18  H   UNL     1     -11.350  15.922  68.110  1.00  0.00     0.000 HD 
ENDBRANCH   9  16
TORSDOF 1
ENDMDL
MODEL       15
REMARK 921   NORMALIZED FREE ENERGY PREDICTED BY IDOCK:   -4.85 KCAL/MOL
REMARK 922        TOTAL FREE ENERGY PREDICTED BY IDOCK:   -5.16 KCAL/MOL
REMARK 923 INTER-LIGAND FREE ENERGY PREDICTED BY IDOCK:   -4.91 KCAL/MOL
REMARK 924 INTRA-LIGAND FREE ENERGY PREDICTED BY IDOCK:   -0.26 KCAL/MOL
REMARK 927      BINDING AFFINITY PREDICTED BY RF-SCORE:    0.00 PKD
ROOT
HETATM    1  N   UNL     1     -13.111  14.177  65.256  1.00  0.00    -0.729 NA 
HETATM    2  H1  UNL     1     -13.547  13.264  65.386  1.00  0.00     0.000 HD 
HETATM    3  C   UNL     1     -11.634  14.085  65.119  1.00  0.00    -0.342 C  
HETATM    4  H2  UNL     1     -13.523  14.673  64.467  1.00  0.00     0.000 HD 
HETATM    5  C   UNL     1     -10.970  15.472  64.923  1.00  0.00    -0.436 C  
HETATM    6  O   UNL     1     -10.994  16.244  66.120  1.00  0.00    -0.161 OA 
HETATM    7  O   UNL     1     -11.656  16.218  63.925  1.00  0.00    -1.489 OA 
HETATM    8  H   UNL     1     -11.249  17.068  63.805  1.00  0.00     0.000 HD 
HETATM    9  C   UNL     1     -10.271  15.652  67.220  1.00  0.00    -0.266 C  
HETATM   10  H   UNL     1      -9.273  12.470  66.660  1.00  0.00     0.000 HD 
HETATM   11  C   UNL     1     -10.840  14.264  67.563  1.00  0.00    -0.280 C  
HETATM   12  C   UNL     1     -10.977  13.367  66.320  1.00  0.00    -0.288 C  
HETATM   13  H   UNL     1     -12.461  13.558  68.424  1.00  0.00     0.000 HD 
HETATM   14  O   UNL     1     -12.109  14.414  68.212  1.00  0.00    -0.309 OA 
HETATM   15  O   UNL     1      -9.676  12.911  65.921  1.00  0.00    -0.252 OA 
ENDROOT
BRANCH   9  16
HETATM   16  C   UNL     1      -8.752  15.648  66.982  1.00  0.00    -0.230 C  
HETATM   17  O   UNL     1      -8.113  14.763  67.901  1.00  0.00    -0.125 OA 
HETATM   18  H   UNL     1      -7.175  14.760  67.754  1.00  0.00     0.000 HD 
ENDBRANCH   9  16
TORSDOF 1
ENDMDL
MODEL       16
REMARK 921   NORMALIZED FREE ENERGY PREDICTED BY IDOCK:   -4.82 KCAL/MOL
REMARK 922        TOTAL FREE ENERGY PREDICTED BY IDOCK:   -5.13 KCAL/MOL
REMARK 923 INTER-LIGAND FREE ENERGY PREDICTED BY IDOCK:   -4.87 KCAL/MOL
REMARK 924 INTRA-LIGAND FREE ENERGY PREDICTED BY IDOCK:   -0.26 KCAL/MOL
REMARK 927      BINDING AFFINITY PREDICTED BY RF-SCORE:    0.00 PKD
ROOT
HETATM    1  N   UNL     1     -10.082  12.828  63.457  1.00  0.00    -0.680 NA 
HETATM    2  H1  UNL     1     -10.271  13.438  62.662  1.00  0.00     0.000 HD 
HETATM    3  C   UNL     1     -11.257  12.684  64.354  1.00  0.00    -0.346 C  
HETATM    4  H2  UNL     1      -9.741  11.918  63.150  1.00  0.00     0.000 HD 
HETATM    5  C   UNL     1     -10.970  11.758  65.563  1.00  0.00    -0.290 C  
HETATM    6  O   UNL     1     -10.096  12.374  66.506  1.00  0.00    -0.224 OA 
HETATM    7  O   UNL     1     -10.346  10.554  65.134  1.00  0.00    -0.304 OA 
HETATM    8  H   UNL     1     -10.170   9.987  65.875  1.00  0.00     0.000 HD 
HETATM    9  C   UNL     1     -10.621  13.583  67.095  1.00  0.00    -0.264 C  
HETATM   10  H   UNL     1     -13.447  14.719  65.627  1.00  0.00     0.000 HD 
HETATM   11  C   UNL     1     -10.930  14.630  66.011  1.00  0.00    -0.325 C  
HETATM   12  C   UNL     1     -11.776  14.048  64.864  1.00  0.00    -0.380 C  
HETATM   13  H   UNL     1      -9.894  15.814  64.832  1.00  0.00     0.000 HD 
HETATM   14  O   UNL     1      -9.703  15.168  65.501  1.00  0.00    -0.332 OA 
HETATM   15  O   UNL     1     -13.129  13.881  65.314  1.00  0.00    -0.777 OA 
ENDROOT
BRANCH   9  16
HETATM   16  C   UNL     1     -11.807  13.305  68.033  1.00  0.00    -0.355 C  
HETATM   17  O   UNL     1     -12.520  14.513  68.294  1.00  0.00    -0.592 OA 
HETATM   18  H   UNL     1     -13.253  14.341  68.873  1.00  0.00     0.000 HD 
ENDBRANCH   9  16
TORSDOF 1
ENDMDL
MODEL       17
REMARK 921   NORMALIZED FREE ENERGY PREDICTED BY IDOCK:   -4.80 KCAL/MOL
REMARK 922        TOTAL FREE ENERGY PREDICTED BY IDOCK:   -5.10 KCAL/MOL
REMARK 923 INTER-LIGAND FREE ENERGY PREDICTED BY IDOCK:   -4.83 KCAL/MOL
REMARK 924 INTRA-LIGAND FREE ENERGY PREDICTED BY IDOCK:   -0.27 KCAL/MOL
REMARK 927      BINDING AFFINITY PREDICTED BY RF-SCORE:    0.00 PKD
ROOT
HETATM    1  N   UNL     1     -11.238  12.883  69.544  1.00  0.00    -0.460 NA 
HETATM    2  H1  UNL     1     -10.687  13.496  70.145  1.00  0.00     0.000 HD 
HETATM    3  C   UNL     1     -10.455  12.366  68.392  1.00  0.00    -0.235 C  
HETATM    4  H2  UNL     1     -11.653  12.121  70.078  1.00  0.00     0.000 HD 
HETATM    5  C   UNL     1     -11.292  11.434  67.478  1.00  0.00    -0.292 C  
HETATM    6  O   UNL     1     -12.261  12.161  66.728  1.00  0.00    -0.553 OA 
HETATM    7  O   UNL     1     -11.994  10.471  68.255  1.00  0.00    -0.790 OA 
HETATM    8  H   UNL     1     -12.506   9.901  67.695  1.00  0.00     0.000 HD 
HETATM    9  C   UNL     1     -11.699  13.138  65.827  1.00  0.00    -0.374 C  
HETATM   10  H   UNL     1      -8.384  13.657  66.247  1.00  0.00     0.000 HD 
HETATM   11  C   UNL     1     -10.855  14.169  66.597  1.00  0.00    -0.299 C  
HETATM   12  C   UNL     1      -9.841  13.502  67.543  1.00  0.00    -0.227 C  
HETATM   13  H   UNL     1     -11.200  15.680  67.807  1.00  0.00     0.000 HD 
HETATM   14  O   UNL     1     -11.721  15.044  67.332  1.00  0.00    -0.338 OA 
HETATM   15  O   UNL     1      -8.761  12.958  66.769  1.00  0.00    -0.190 OA 
ENDROOT
BRANCH   9  16
HETATM   16  C   UNL     1     -10.948  12.485  64.656  1.00  0.00    -0.310 C  
HETATM   17  O   UNL     1     -10.047  13.422  64.067  1.00  0.00    -0.764 OA 
HETATM   18  H   UNL     1      -9.582  13.019  63.344  1.00  0.00     0.000 HD 
ENDBRANCH   9  16
TORSDOF 1
ENDMDL
MODEL       18
REMARK 921   NORMALIZED FREE ENERGY PREDICTED BY IDOCK:   -4.79 KCAL/MOL
REMARK 922        TOTAL FREE ENERGY PREDICTED BY IDOCK:   -5.09 KCAL/MOL
REMARK 923 INTER-LIGAND FREE ENERGY PREDICTED BY IDOCK:   -4.82 KCAL/MOL
REMARK 924 INTRA-LIGAND FREE ENERGY PREDICTED BY IDOCK:   -0.27 KCAL/MOL
REMARK 927      BINDING AFFINITY PREDICTED BY RF-SCORE:    0.00 PKD
ROOT
HETATM    1  N   UNL     1     -10.406  13.299  64.024  1.00  0.00    -0.690 NA 
HETATM    2  H1  UNL     1      -9.614  13.764  63.581  1.00  0.00     0.000 HD 
HETATM    3  C   UNL     1     -11.008  14.117  65.109  1.00  0.00    -0.356 C  
HETATM    4  H2  UNL     1     -11.108  13.030  63.335  1.00  0.00     0.000 HD 
HETATM    5  C   UNL     1     -12.213  13.410  65.783  1.00  0.00    -0.458 C  
HETATM    6  O   UNL     1     -11.798  12.313  66.592  1.00  0.00    -0.536 OA 
HETATM    7  O   UNL     1     -13.106  12.899  64.802  1.00  0.00    -0.754 OA 
HETATM    8  H   UNL     1     -13.844  12.466  65.216  1.00  0.00     0.000 HD 
HETATM    9  C   UNL     1     -10.936  12.680  67.689  1.00  0.00    -0.241 C  
HETATM   10  H   UNL     1      -9.850  15.881  67.580  1.00  0.00     0.000 HD 
HETATM   11  C   UNL     1      -9.661  13.372  67.175  1.00  0.00    -0.237 C  
HETATM   12  C   UNL     1      -9.975  14.512  66.188  1.00  0.00    -0.311 C  
HETATM   13  H   UNL     1      -8.018  12.829  66.242  1.00  0.00     0.000 HD 
HETATM   14  O   UNL     1      -8.805  12.402  66.560  1.00  0.00    -0.191 OA 
HETATM   15  O   UNL     1     -10.485  15.638  66.916  1.00  0.00    -0.295 OA 
ENDROOT
BRANCH   9  16
HETATM   16  C   UNL     1     -11.678  13.488  68.767  1.00  0.00    -0.337 C  
HETATM   17  O   UNL     1     -10.744  14.208  69.571  1.00  0.00    -0.413 OA 
HETATM   18  H   UNL     1     -11.203  14.707  70.236  1.00  0.00     0.000 HD 
ENDBRANCH   9  16
TORSDOF 1
ENDMDL
MODEL       19
REMARK 921   NORMALIZED FREE ENERGY PREDICTED BY IDOCK:   -4.77 KCAL/MOL
REMARK 922        TOTAL FREE ENERGY PREDICTED BY IDOCK:   -5.08 KCAL/MOL
REMARK 923 INTER-LIGAND FREE ENERGY PREDICTED BY IDOCK:   -4.85 KCAL/MOL
REMARK 924 INTRA-LIGAND FREE ENERGY PREDICTED BY IDOCK:   -0.22 KCAL/MOL
REMARK 927      BINDING AFFINITY PREDICTED BY RF-SCORE:    0.00 PKD
ROOT
HETATM    1  N   UNL     1     -12.408  13.963  63.173  1.00  0.00    -1.106 NA 
HETATM    2  H1  UNL     1     -11.881  14.275  62.358  1.00  0.00     0.000 HD 
HETATM    3  C   UNL     1     -11.716  14.277  64.450  1.00  0.00    -0.389 C  
HETATM    4  H2  UNL     1     -13.355  14.342  63.166  1.00  0.00     0.000 HD 
HETATM    5  C   UNL     1     -12.518  13.803  65.690  1.00  0.00    -0.503 C  
HETATM    6  O   UNL     1     -12.503  12.384  65.819  1.00  0.00    -0.615 OA 
HETATM    7  O   UNL     1     -13.879  14.204  65.589  1.00  0.00    -0.345 OA 
HETATM    8  H   UNL     1     -14.369  13.913  66.348  1.00  0.00     0.000 HD 
HETATM    9  C   UNL     1     -11.186  11.822  66.005  1.00  0.00    -0.296 C  
HETATM   10  H   UNL     1      -8.666  14.028  65.541  1.00  0.00     0.000 HD 
HETATM   11  C   UNL     1     -10.267  12.180  64.824  1.00  0.00    -0.281 C  
HETATM   12  C   UNL     1     -10.290  13.686  64.505  1.00  0.00    -0.330 C  
HETATM   13  H   UNL     1     -10.085  11.642  62.942  1.00  0.00     0.000 HD 
HETATM   14  O   UNL     1     -10.652  11.421  63.671  1.00  0.00    -0.356 OA 
HETATM   15  O   UNL     1      -9.543  14.392  65.507  1.00  0.00    -0.233 OA 
ENDROOT
BRANCH   9  16
HETATM   16  C   UNL     1     -10.589  12.181  67.375  1.00  0.00    -0.226 C  
HETATM   17  O   UNL     1      -9.166  12.239  67.291  1.00  0.00    -0.174 OA 
HETATM   18  H   UNL     1      -8.797  12.461  68.138  1.00  0.00     0.000 HD 
ENDBRANCH   9  16
TORSDOF 1
ENDMDL
MODEL       20
REMARK 921   NORMALIZED FREE ENERGY PREDICTED BY IDOCK:   -4.76 KCAL/MOL
REMARK 922        TOTAL FREE ENERGY PREDICTED BY IDOCK:   -5.06 KCAL/MOL
REMARK 923 INTER-LIGAND FREE ENERGY PREDICTED BY IDOCK:   -5.04 KCAL/MOL
REMARK 924 INTRA-LIGAND FREE ENERGY PREDICTED BY IDOCK:   -0.03 KCAL/MOL
REMARK 927      BINDING AFFINITY PREDICTED BY RF-SCORE:    0.00 PKD
ROOT
HETATM    1  N   UNL     1      -9.918  12.973  64.411  1.00  0.00    -0.622 NA 
HETATM    2  H1  UNL     1     -10.246  12.268  63.751  1.00  0.00     0.000 HD 
HETATM    3  C   UNL     1     -10.136  12.571  65.824  1.00  0.00    -0.262 C  
HETATM    4  H2  UNL     1      -8.941  13.209  64.242  1.00  0.00     0.000 HD 
HETATM    5  C   UNL     1      -9.639  13.643  66.828  1.00  0.00    -0.275 C  
HETATM    6  O   UNL     1     -10.481  14.793  66.834  1.00  0.00    -0.270 OA 
HETATM    7  O   UNL     1      -8.329  14.080  66.486  1.00  0.00    -0.384 OA 
HETATM    8  H   UNL     1      -8.025  14.736  67.101  1.00  0.00     0.000 HD 
HETATM    9  C   UNL     1     -11.841  14.527  67.237  1.00  0.00    -0.392 C  
HETATM   10  H   UNL     1     -12.587  11.239  67.490  1.00  0.00     0.000 HD 
HETATM   11  C   UNL     1     -12.494  13.492  66.304  1.00  0.00    -0.326 C  
HETATM   12  C   UNL     1     -11.617  12.240  66.119  1.00  0.00    -0.390 C  
HETATM   13  H   UNL     1     -13.174  13.459  64.460  1.00  0.00     0.000 HD 
HETATM   14  O   UNL     1     -12.772  14.098  65.036  1.00  0.00    -0.631 OA 
HETATM   15  O   UNL     1     -11.676  11.442  67.309  1.00  0.00    -0.577 OA 
ENDROOT
BRANCH   9  16
HETATM   16  C   UNL     1     -11.946  14.160  68.726  1.00  0.00    -0.332 C  
HETATM   17  O   UNL     1     -12.714  15.141  69.420  1.00  0.00    -0.577 OA 
HETATM   18  H   UNL     1     -12.780  14.915  70.340  1.00  0.00     0.000 HD 
ENDBRANCH   9  16
TORSDOF 1
ENDMDL
MODEL       21
REMARK 921   NORMALIZED FREE ENERGY PREDICTED BY IDOCK:   -4.70 KCAL/MOL
REMARK 922        TOTAL FREE ENERGY PREDICTED BY IDOCK:   -5.00 KCAL/MOL
REMARK 923 INTER-LIGAND FREE ENERGY PREDICTED BY IDOCK:   -4.98 KCAL/MOL
REMARK 924 INTRA-LIGAND FREE ENERGY PREDICTED BY IDOCK:   -0.03 KCAL/MOL
REMARK 927      BINDING AFFINITY PREDICTED BY RF-SCORE:    0.00 PKD
ROOT
HETATM    1  N   UNL     1     -10.428  15.829  67.918  1.00  0.00    -0.263 NA 
HETATM    2  H1  UNL     1      -9.482  16.209  67.929  1.00  0.00     0.000 HD 
HETATM    3  C   UNL     1     -10.458  14.398  67.519  1.00  0.00    -0.252 C  
HETATM    4  H2  UNL     1     -10.892  15.969  68.815  1.00  0.00     0.000 HD 
HETATM    5  C   UNL     1     -11.897  13.819  67.501  1.00  0.00    -0.387 C  
HETATM    6  O   UNL     1     -12.658  14.328  66.410  1.00  0.00    -0.396 OA 
HETATM    7  O   UNL     1     -12.588  14.160  68.695  1.00  0.00    -0.462 OA 
HETATM    8  H   UNL     1     -13.469  13.806  68.684  1.00  0.00     0.000 HD 
HETATM    9  C   UNL     1     -12.122  14.000  65.111  1.00  0.00    -0.410 C  
HETATM   10  H   UNL     1      -9.036  12.621  65.199  1.00  0.00     0.000 HD 
HETATM   11  C   UNL     1     -10.691  14.544  64.957  1.00  0.00    -0.427 C  
HETATM   12  C   UNL     1      -9.791  14.158  66.145  1.00  0.00    -0.308 C  
HETATM   13  H   UNL     1      -9.850  16.304  64.712  1.00  0.00     0.000 HD 
HETATM   14  O   UNL     1     -10.733  15.968  64.806  1.00  0.00    -0.611 OA 
HETATM   15  O   UNL     1      -9.446  12.768  66.044  1.00  0.00    -0.219 OA 
ENDROOT
BRANCH   9  16
HETATM   16  C   UNL     1     -12.245  12.501  64.792  1.00  0.00    -0.465 C  
HETATM   17  O   UNL     1     -12.970  12.314  63.578  1.00  0.00    -0.776 OA 
HETATM   18  H   UNL     1     -13.046  11.388  63.381  1.00  0.00     0.000 HD 
ENDBRANCH   9  16
TORSDOF 1
ENDMDL
MODEL       22
REMARK 921   NORMALIZED FREE ENERGY PREDICTED BY IDOCK:   -4.69 KCAL/MOL
REMARK 922        TOTAL FREE ENERGY PREDICTED BY IDOCK:   -4.99 KCAL/MOL
REMARK 923 INTER-LIGAND FREE ENERGY PREDICTED BY IDOCK:   -5.07 KCAL/MOL
REMARK 924 INTRA-LIGAND FREE ENERGY PREDICTED BY IDOCK:    0.08 KCAL/MOL
REMARK 927      BINDING AFFINITY PREDICTED BY RF-SCORE:    0.00 PKD
ROOT
HETATM    1  N   UNL     1      -8.375  12.804  66.640  1.00  0.00    -0.413 NA 
HETATM    2  H1  UNL     1      -8.108  12.155  67.379  1.00  0.00     0.000 HD 
HETATM    3  C   UNL     1      -9.849  12.948  66.518  1.00  0.00    -0.254 C  
HETATM    4  H2  UNL     1      -7.927  13.712  66.767  1.00  0.00     0.000 HD 
HETATM    5  C   UNL     1     -10.256  13.935  65.393  1.00  0.00    -0.337 C  
HETATM    6  O   UNL     1     -10.019  13.390  64.099  1.00  0.00    -0.269 OA 
HETATM    7  O   UNL     1      -9.506  15.139  65.489  1.00  0.00    -0.401 OA 
HETATM    8  H   UNL     1      -9.755  15.744  64.800  1.00  0.00     0.000 HD 
HETATM    9  C   UNL     1     -10.771  12.191  63.815  1.00  0.00    -0.437 C  
HETATM   10  H   UNL     1     -12.371  10.899  66.500  1.00  0.00     0.000 HD 
HETATM   11  C   UNL     1     -10.448  11.088  64.839  1.00  0.00    -0.303 C  
HETATM   12  C   UNL     1     -10.554  11.592  66.290  1.00  0.00    -0.263 C  
HETATM   13  H   UNL     1      -8.937   9.889  65.217  1.00  0.00     0.000 HD 
HETATM   14  O   UNL     1      -9.137  10.570  64.585  1.00  0.00    -0.192 OA 
HETATM   15  O   UNL     1     -11.938  11.733  66.640  1.00  0.00    -0.561 OA 
ENDROOT
BRANCH   9  16
HETATM   16  C   UNL     1     -12.276  12.470  63.671  1.00  0.00    -0.550 C  
HETATM   17  O   UNL     1     -12.484  13.755  63.088  1.00  0.00    -1.089 OA 
HETATM   18  H   UNL     1     -13.414  13.927  62.999  1.00  0.00     0.000 HD 
ENDBRANCH   9  16
TORSDOF 1
ENDMDL
MODEL       23
REMARK 921   NORMALIZED FREE ENERGY PREDICTED BY IDOCK:   -4.65 KCAL/MOL
REMARK 922        TOTAL FREE ENERGY PREDICTED BY IDOCK:   -4.95 KCAL/MOL
REMARK 923 INTER-LIGAND FREE ENERGY PREDICTED BY IDOCK:   -4.68 KCAL/MOL
REMARK 924 INTRA-LIGAND FREE ENERGY PREDICTED BY IDOCK:   -0.27 KCAL/MOL
REMARK 927      BINDING AFFINITY PREDICTED BY RF-SCORE:    0.00 PKD
ROOT
HETATM    1  N   UNL     1     -11.351  12.860  69.723  1.00  0.00    -0.497 NA 
HETATM    2  H1  UNL     1     -11.377  11.875  69.985  1.00  0.00     0.000 HD 
HETATM    3  C   UNL     1     -11.911  13.101  68.367  1.00  0.00    -0.351 C  
HETATM    4  H2  UNL     1     -11.818  13.439  70.421  1.00  0.00     0.000 HD 
HETATM    5  C   UNL     1     -11.873  14.598  67.968  1.00  0.00    -0.311 C  
HETATM    6  O   UNL     1     -10.545  15.040  67.698  1.00  0.00    -0.258 OA 
HETATM    7  O   UNL     1     -12.382  15.409  69.019  1.00  0.00    -0.598 OA 
HETATM    8  H   UNL     1     -12.358  16.327  68.774  1.00  0.00     0.000 HD 
HETATM    9  C   UNL     1      -9.908  14.358  66.597  1.00  0.00    -0.278 C  
HETATM   10  H   UNL     1     -11.618  11.668  65.466  1.00  0.00     0.000 HD 
HETATM   11  C   UNL     1      -9.838  12.843  66.860  1.00  0.00    -0.235 C  
HETATM   12  C   UNL     1     -11.199  12.262  67.282  1.00  0.00    -0.300 C  
HETATM   13  H   UNL     1      -8.806  11.642  68.026  1.00  0.00     0.000 HD 
HETATM   14  O   UNL     1      -8.850  12.577  67.863  1.00  0.00    -0.168 OA 
HETATM   15  O   UNL     1     -12.056  12.184  66.133  1.00  0.00    -0.621 OA 
ENDROOT
BRANCH   9  16
HETATM   16  C   UNL     1     -10.546  14.714  65.244  1.00  0.00    -0.391 C  
HETATM   17  O   UNL     1     -10.271  13.693  64.287  1.00  0.00    -0.678 OA 
HETATM   18  H   UNL     1     -10.666  13.913  63.451  1.00  0.00     0.000 HD 
ENDBRANCH   9  16
TORSDOF 1
ENDMDL
MODEL       24
REMARK 921   NORMALIZED FREE ENERGY PREDICTED BY IDOCK:   -4.60 KCAL/MOL
REMARK 922        TOTAL FREE ENERGY PREDICTED BY IDOCK:   -4.89 KCAL/MOL
REMARK 923 INTER-LIGAND FREE ENERGY PREDICTED BY IDOCK:   -4.62 KCAL/MOL
REMARK 924 INTRA-LIGAND FREE ENERGY PREDICTED BY IDOCK:   -0.27 KCAL/MOL
REMARK 927      BINDING AFFINITY PREDICTED BY RF-SCORE:    0.00 PKD
ROOT
HETATM    1  N   UNL     1     -10.619  14.221  64.532  1.00  0.00    -0.598 NA 
HETATM    2  H1  UNL     1     -10.017  15.025  64.355  1.00  0.00     0.000 HD 
HETATM    3  C   UNL     1     -11.449  14.393  65.753  1.00  0.00    -0.335 C  
HETATM    4  H2  UNL     1     -11.199  14.010  63.721  1.00  0.00     0.000 HD 
HETATM    5  C   UNL     1     -12.365  13.171  66.023  1.00  0.00    -0.359 C  
HETATM    6  O   UNL     1     -11.620  12.040  66.467  1.00  0.00    -0.430 OA 
HETATM    7  O   UNL     1     -13.049  12.787  64.837  1.00  0.00    -0.833 OA 
HETATM    8  H   UNL     1     -13.610  12.039  65.003  1.00  0.00     0.000 HD 
HETATM    9  C   UNL     1     -10.918  12.247  67.711  1.00  0.00    -0.232 C  
HETATM   10  H   UNL     1     -10.910  15.456  68.775  1.00  0.00     0.000 HD 
HETATM   11  C   UNL     1      -9.932  13.422  67.594  1.00  0.00    -0.229 C  
HETATM   12  C   UNL     1     -10.594  14.682  67.007  1.00  0.00    -0.280 C  
HETATM   13  H   UNL     1      -8.203  13.754  66.719  1.00  0.00     0.000 HD 
HETATM   14  O   UNL     1      -8.812  13.028  66.792  1.00  0.00    -0.207 OA 
HETATM   15  O   UNL     1     -11.436  15.279  68.004  1.00  0.00    -0.335 OA 
ENDROOT
BRANCH   9  16
HETATM   16  C   UNL     1     -11.878  12.371  68.906  1.00  0.00    -0.301 C  
HETATM   17  O   UNL     1     -11.212  12.983  70.010  1.00  0.00    -0.483 OA 
HETATM   18  H   UNL     1     -11.804  13.060  70.748  1.00  0.00     0.000 HD 
ENDBRANCH   9  16
TORSDOF 1
ENDMDL
MODEL       25
REMARK 921   NORMALIZED FREE ENERGY PREDICTED BY IDOCK:   -4.54 KCAL/MOL
REMARK 922        TOTAL FREE ENERGY PREDICTED BY IDOCK:   -4.83 KCAL/MOL
REMARK 923 INTER-LIGAND FREE ENERGY PREDICTED BY IDOCK:   -4.56 KCAL/MOL
REMARK 924 INTRA-LIGAND FREE ENERGY PREDICTED BY IDOCK:   -0.27 KCAL/MOL
REMARK 927      BINDING AFFINITY PREDICTED BY RF-SCORE:    0.00 PKD
ROOT
HETATM    1  N   UNL     1      -9.821  12.250  64.529  1.00  0.00    -0.478 NA 
HETATM    2  H1  UNL     1     -10.406  11.700  63.899  1.00  0.00     0.000 HD 
HETATM    3  C   UNL     1     -10.216  12.088  65.952  1.00  0.00    -0.232 C  
HETATM    4  H2  UNL     1      -8.833  12.036  64.396  1.00  0.00     0.000 HD 
HETATM    5  C   UNL     1      -9.329  12.923  66.912  1.00  0.00    -0.240 C  
HETATM    6  O   UNL     1      -9.601  14.317  66.805  1.00  0.00    -0.259 OA 
HETATM    7  O   UNL     1      -7.952  12.736  66.609  1.00  0.00    -0.400 OA 
HETATM    8  H   UNL     1      -7.409  13.247  67.196  1.00  0.00     0.000 HD 
HETATM    9  C   UNL     1     -10.952  14.684  67.154  1.00  0.00    -0.316 C  
HETATM   10  H   UNL     1     -13.032  12.052  67.573  1.00  0.00     0.000 HD 
HETATM   11  C   UNL     1     -11.966  13.954  66.256  1.00  0.00    -0.434 C  
HETATM   12  C   UNL     1     -11.702  12.439  66.192  1.00  0.00    -0.400 C  
HETATM   13  H   UNL     1     -12.561  14.070  64.385  1.00  0.00     0.000 HD 
HETATM   14  O   UNL     1     -11.935  14.521  64.940  1.00  0.00    -0.392 OA 
HETATM   15  O   UNL     1     -12.119  11.836  67.426  1.00  0.00    -0.595 OA 
ENDROOT
BRANCH   9  16
HETATM   16  C   UNL     1     -11.231  14.513  68.656  1.00  0.00    -0.261 C  
HETATM   17  O   UNL     1     -12.636  14.412  68.886  1.00  0.00    -0.555 OA 
HETATM   18  H   UNL     1     -12.808  14.306  69.814  1.00  0.00     0.000 HD 
ENDBRANCH   9  16
TORSDOF 1
ENDMDL
MODEL       26
REMARK 921   NORMALIZED FREE ENERGY PREDICTED BY IDOCK:   -4.54 KCAL/MOL
REMARK 922        TOTAL FREE ENERGY PREDICTED BY IDOCK:   -4.83 KCAL/MOL
REMARK 923 INTER-LIGAND FREE ENERGY PREDICTED BY IDOCK:   -4.58 KCAL/MOL
REMARK 924 INTRA-LIGAND FREE ENERGY PREDICTED BY IDOCK:   -0.24 KCAL/MOL
REMARK 927      BINDING AFFINITY PREDICTED BY RF-SCORE:    0.00 PKD
ROOT
HETATM    1  N   UNL     1      -9.883  20.956  67.317  1.00  0.00    -0.545 NA 
HETATM    2  H1  UNL     1     -10.864  21.209  67.434  1.00  0.00     0.000 HD 
HETATM    3  C   UNL     1      -9.685  19.924  66.266  1.00  0.00    -0.445 C  
HETATM    4  H2  UNL     1      -9.310  21.779  67.135  1.00  0.00     0.000 HD 
HETATM    5  C   UNL     1      -8.193  19.539  66.089  1.00  0.00    -0.326 C  
HETATM    6  O   UNL     1      -7.710  18.773  67.189  1.00  0.00    -0.228 OA 
HETATM    7  O   UNL     1      -7.384  20.704  65.996  1.00  0.00    -0.480 OA 
HETATM    8  H   UNL     1      -6.470  20.468  65.887  1.00  0.00     0.000 HD 
HETATM    9  C   UNL     1      -8.387  17.512  67.375  1.00  0.00    -0.211 C  
HETATM   10  H   UNL     1     -11.153  17.138  65.466  1.00  0.00     0.000 HD 
HETATM   11  C   UNL     1      -9.894  17.730  67.601  1.00  0.00    -0.299 C  
HETATM   12  C   UNL     1     -10.516  18.648  66.533  1.00  0.00    -0.420 C  
HETATM   13  H   UNL     1     -11.039  18.406  69.049  1.00  0.00     0.000 HD 
HETATM   14  O   UNL     1     -10.109  18.271  68.910  1.00  0.00    -0.389 OA 
HETATM   15  O   UNL     1     -10.642  17.922  65.302  1.00  0.00    -0.637 OA 
ENDROOT
BRANCH   9  16
HETATM   16  C   UNL     1      -8.076  16.513  66.249  1.00  0.00    -0.306 C  
HETATM   17  O   UNL     1      -8.986  15.416  66.301  1.00  0.00    -0.297 OA 
HETATM   18  H   UNL     1      -8.793  14.798  65.605  1.00  0.00     0.000 HD 
ENDBRANCH   9  16
TORSDOF 1
ENDMDL
MODEL       27
REMARK 921   NORMALIZED FREE ENERGY PREDICTED BY IDOCK:   -4.53 KCAL/MOL
REMARK 922        TOTAL FREE ENERGY PREDICTED BY IDOCK:   -4.82 KCAL/MOL
REMARK 923 INTER-LIGAND FREE ENERGY PREDICTED BY IDOCK:   -4.55 KCAL/MOL
REMARK 924 INTRA-LIGAND FREE ENERGY PREDICTED BY IDOCK:   -0.27 KCAL/MOL
REMARK 927      BINDING AFFINITY PREDICTED BY RF-SCORE:    0.00 PKD
ROOT
HETATM    1  N   UNL     1      -9.552  13.030  68.485  1.00  0.00    -0.373 NA 
HETATM    2  H1  UNL     1      -9.070  13.797  68.954  1.00  0.00     0.000 HD 
HETATM    3  C   UNL     1      -9.538  13.171  67.006  1.00  0.00    -0.241 C  
HETATM    4  H2  UNL     1      -9.172  12.128  68.772  1.00  0.00     0.000 HD 
HETATM    5  C   UNL     1     -10.270  12.005  66.293  1.00  0.00    -0.222 C  
HETATM    6  O   UNL     1     -11.682  12.080  66.470  1.00  0.00    -0.523 OA 
HETATM    7  O   UNL     1      -9.844  10.753  66.817  1.00  0.00    -0.183 OA 
HETATM    8  H   UNL     1     -10.293  10.039  66.380  1.00  0.00     0.000 HD 
HETATM    9  C   UNL     1     -12.283  13.272  65.921  1.00  0.00    -0.441 C  
HETATM   10  H   UNL     1     -10.053  15.607  64.919  1.00  0.00     0.000 HD 
HETATM   11  C   UNL     1     -11.678  14.533  66.561  1.00  0.00    -0.368 C  
HETATM   12  C   UNL     1     -10.139  14.516  66.540  1.00  0.00    -0.274 C  
HETATM   13  H   UNL     1     -11.783  15.444  68.301  1.00  0.00     0.000 HD 
HETATM   14  O   UNL     1     -12.157  14.665  67.905  1.00  0.00    -0.304 OA 
HETATM   15  O   UNL     1      -9.683  14.780  65.205  1.00  0.00    -0.274 OA 
ENDROOT
BRANCH   9  16
HETATM   16  C   UNL     1     -12.245  13.287  64.384  1.00  0.00    -0.390 C  
HETATM   17  O   UNL     1     -12.361  14.626  63.904  1.00  0.00    -0.962 OA 
HETATM   18  H   UNL     1     -12.337  14.635  62.954  1.00  0.00     0.000 HD 
ENDBRANCH   9  16
TORSDOF 1
ENDMDL
MODEL       28
REMARK 921   NORMALIZED FREE ENERGY PREDICTED BY IDOCK:   -4.45 KCAL/MOL
REMARK 922        TOTAL FREE ENERGY PREDICTED BY IDOCK:   -4.74 KCAL/MOL
REMARK 923 INTER-LIGAND FREE ENERGY PREDICTED BY IDOCK:   -4.47 KCAL/MOL
REMARK 924 INTRA-LIGAND FREE ENERGY PREDICTED BY IDOCK:   -0.27 KCAL/MOL
REMARK 927      BINDING AFFINITY PREDICTED BY RF-SCORE:    0.00 PKD
ROOT
HETATM    1  N   UNL     1     -10.152  14.349  64.955  1.00  0.00    -0.516 NA 
HETATM    2  H1  UNL     1      -9.245  14.810  64.897  1.00  0.00     0.000 HD 
HETATM    3  C   UNL     1     -10.755  14.450  66.309  1.00  0.00    -0.307 C  
HETATM    4  H2  UNL     1     -10.790  14.701  64.241  1.00  0.00     0.000 HD 
HETATM    5  C   UNL     1     -12.135  13.748  66.396  1.00  0.00    -0.444 C  
HETATM    6  O   UNL     1     -12.010  12.329  66.359  1.00  0.00    -0.589 OA 
HETATM    7  O   UNL     1     -12.960  14.129  65.303  1.00  0.00    -0.725 OA 
HETATM    8  H   UNL     1     -13.805  13.699  65.356  1.00  0.00     0.000 HD 
HETATM    9  C   UNL     1     -11.254  11.774  67.455  1.00  0.00    -0.291 C  
HETATM   10  H   UNL     1      -9.669  14.084  69.349  1.00  0.00     0.000 HD 
HETATM   11  C   UNL     1      -9.829  12.354  67.485  1.00  0.00    -0.194 C  
HETATM   12  C   UNL     1      -9.825  13.892  67.409  1.00  0.00    -0.237 C  
HETATM   13  H   UNL     1      -8.184  12.158  66.426  1.00  0.00     0.000 HD 
HETATM   14  O   UNL     1      -9.063  11.800  66.408  1.00  0.00    -0.208 OA 
HETATM   15  O   UNL     1     -10.242  14.428  68.673  1.00  0.00    -0.235 OA 
ENDROOT
BRANCH   9  16
HETATM   16  C   UNL     1     -11.994  11.901  68.797  1.00  0.00    -0.249 C  
HETATM   17  O   UNL     1     -11.074  11.774  69.879  1.00  0.00    -0.473 OA 
HETATM   18  H   UNL     1     -11.531  11.853  70.708  1.00  0.00     0.000 HD 
ENDBRANCH   9  16
TORSDOF 1
ENDMDL
MODEL       29
REMARK 921   NORMALIZED FREE ENERGY PREDICTED BY IDOCK:   -4.45 KCAL/MOL
REMARK 922        TOTAL FREE ENERGY PREDICTED BY IDOCK:   -4.74 KCAL/MOL
REMARK 923 INTER-LIGAND FREE ENERGY PREDICTED BY IDOCK:   -4.48 KCAL/MOL
REMARK 924 INTRA-LIGAND FREE ENERGY PREDICTED BY IDOCK:   -0.26 KCAL/MOL
REMARK 927      BINDING AFFINITY PREDICTED BY RF-SCORE:    0.00 PKD
ROOT
HETATM    1  N   UNL     1     -10.237  16.683  68.136  1.00  0.00    -0.267 NA 
HETATM    2  H1  UNL     1     -10.743  16.723  69.020  1.00  0.00     0.000 HD 
HETATM    3  C   UNL     1      -8.939  17.404  68.193  1.00  0.00    -0.260 C  
HETATM    4  H2  UNL     1     -10.108  15.719  67.829  1.00  0.00     0.000 HD 
HETATM    5  C   UNL     1      -8.168  17.343  66.849  1.00  0.00    -0.231 C  
HETATM    6  O   UNL     1      -8.783  18.153  65.850  1.00  0.00    -0.505 OA 
HETATM    7  O   UNL     1      -8.135  16.011  66.351  1.00  0.00    -0.278 OA 
HETATM    8  H   UNL     1      -7.663  15.974  65.528  1.00  0.00     0.000 HD 
HETATM    9  C   UNL     1      -8.829  19.558  66.175  1.00  0.00    -0.309 C  
HETATM   10  H   UNL     1      -7.942  20.267  69.360  1.00  0.00     0.000 HD 
HETATM   11  C   UNL     1      -9.601  19.791  67.486  1.00  0.00    -0.353 C  
HETATM   12  C   UNL     1      -9.105  18.879  68.623  1.00  0.00    -0.346 C  
HETATM   13  H   UNL     1     -11.478  19.732  68.068  1.00  0.00     0.000 HD 
HETATM   14  O   UNL     1     -11.001  19.588  67.259  1.00  0.00    -0.499 OA 
HETATM   15  O   UNL     1      -7.839  19.361  69.096  1.00  0.00    -0.336 OA 
ENDROOT
BRANCH   9  16
HETATM   16  C   UNL     1      -7.433  20.204  66.165  1.00  0.00    -0.278 C  
HETATM   17  O   UNL     1      -7.421  21.361  66.999  1.00  0.00    -0.813 OA 
HETATM   18  H   UNL     1      -6.559  21.760  66.993  1.00  0.00     0.000 HD 
ENDBRANCH   9  16
TORSDOF 1
ENDMDL
MODEL       30
REMARK 921   NORMALIZED FREE ENERGY PREDICTED BY IDOCK:   -4.42 KCAL/MOL
REMARK 922        TOTAL FREE ENERGY PREDICTED BY IDOCK:   -4.71 KCAL/MOL
REMARK 923 INTER-LIGAND FREE ENERGY PREDICTED BY IDOCK:   -4.45 KCAL/MOL
REMARK 924 INTRA-LIGAND FREE ENERGY PREDICTED BY IDOCK:   -0.25 KCAL/MOL
REMARK 927      BINDING AFFINITY PREDICTED BY RF-SCORE:    0.00 PKD
ROOT
HETATM    1  N   UNL     1     -11.295   7.413  73.449  1.00  0.00    -0.600 NA 
HETATM    2  H1  UNL     1     -10.669   6.612  73.529  1.00  0.00     0.000 HD 
HETATM    3  C   UNL     1     -11.911   7.517  72.101  1.00  0.00    -0.298 C  
HETATM    4  H2  UNL     1     -12.007   7.399  74.178  1.00  0.00     0.000 HD 
HETATM    5  C   UNL     1     -12.863   8.735  71.977  1.00  0.00    -0.390 C  
HETATM    6  O   UNL     1     -12.145   9.965  71.944  1.00  0.00    -0.357 OA 
HETATM    7  O   UNL     1     -13.749   8.791  73.087  1.00  0.00    -0.983 OA 
HETATM    8  H   UNL     1     -14.332   9.538  73.011  1.00  0.00     0.000 HD 
HETATM    9  C   UNL     1     -11.246  10.095  70.822  1.00  0.00    -0.336 C  
HETATM   10  H   UNL     1     -10.834   7.247  69.047  1.00  0.00     0.000 HD 
HETATM   11  C   UNL     1     -10.205   8.963  70.822  1.00  0.00    -0.226 C  
HETATM   12  C   UNL     1     -10.854   7.575  70.975  1.00  0.00    -0.235 C  
HETATM   13  H   UNL     1      -8.611   8.487  71.872  1.00  0.00     0.000 HD 
HETATM   14  O   UNL     1      -9.254   9.187  71.871  1.00  0.00    -0.354 OA 
HETATM   15  O   UNL     1     -11.484   7.211  69.739  1.00  0.00    -0.172 OA 
ENDROOT
BRANCH   9  16
HETATM   16  C   UNL     1     -11.998  10.235  69.488  1.00  0.00    -0.016 C  
HETATM   17  O   UNL     1     -11.181   9.771  68.414  1.00  0.00    -0.487 OA 
HETATM   18  H   UNL     1     -11.646   9.857  67.590  1.00  0.00     0.000 HD 
ENDBRANCH   9  16
TORSDOF 1
ENDMDL
MODEL       31
REMARK 921   NORMALIZED FREE ENERGY PREDICTED BY IDOCK:   -4.40 KCAL/MOL
REMARK 922        TOTAL FREE ENERGY PREDICTED BY IDOCK:   -4.68 KCAL/MOL
REMARK 923 INTER-LIGAND FREE ENERGY PREDICTED BY IDOCK:   -4.41 KCAL/MOL
REMARK 924 INTRA-LIGAND FREE ENERGY PREDICTED BY IDOCK:   -0.27 KCAL/MOL
REMARK 927      BINDING AFFINITY PREDICTED BY RF-SCORE:    0.00 PKD
ROOT
HETATM    1  N   UNL     1     -12.199  14.846  68.640  1.00  0.00    -0.591 NA 
HETATM    2  H1  UNL     1     -12.151  15.843  68.432  1.00  0.00     0.000 HD 
HETATM    3  C   UNL     1     -10.966  14.122  68.235  1.00  0.00    -0.251 C  
HETATM    4  H2  UNL     1     -12.413  14.685  69.624  1.00  0.00     0.000 HD 
HETATM    5  C   UNL     1     -11.038  12.606  68.551  1.00  0.00    -0.266 C  
HETATM    6  O   UNL     1     -11.941  11.927  67.682  1.00  0.00    -0.575 OA 
HETATM    7  O   UNL     1     -11.492  12.394  69.882  1.00  0.00    -0.478 OA 
HETATM    8  H   UNL     1     -11.537  11.465  70.075  1.00  0.00     0.000 HD 
HETATM    9  C   UNL     1     -11.575  11.987  66.287  1.00  0.00    -0.310 C  
HETATM   10  H   UNL     1      -9.046  14.128  65.614  1.00  0.00     0.000 HD 
HETATM   11  C   UNL     1     -11.494  13.446  65.806  1.00  0.00    -0.320 C  
HETATM   12  C   UNL     1     -10.635  14.319  66.738  1.00  0.00    -0.278 C  
HETATM   13  H   UNL     1     -12.765  14.889  65.397  1.00  0.00     0.000 HD 
HETATM   14  O   UNL     1     -12.815  13.988  65.693  1.00  0.00    -0.545 OA 
HETATM   15  O   UNL     1      -9.249  14.006  66.534  1.00  0.00    -0.270 OA 
ENDROOT
BRANCH   9  16
HETATM   16  C   UNL     1     -10.309  11.171  65.982  1.00  0.00    -0.254 C  
HETATM   17  O   UNL     1      -9.733  11.599  64.749  1.00  0.00    -0.269 OA 
HETATM   18  H   UNL     1      -8.950  11.095  64.561  1.00  0.00     0.000 HD 
ENDBRANCH   9  16
TORSDOF 1
ENDMDL
MODEL       32
REMARK 921   NORMALIZED FREE ENERGY PREDICTED BY IDOCK:   -4.36 KCAL/MOL
REMARK 922        TOTAL FREE ENERGY PREDICTED BY IDOCK:   -4.64 KCAL/MOL
REMARK 923 INTER-LIGAND FREE ENERGY PREDICTED BY IDOCK:   -4.37 KCAL/MOL
REMARK 924 INTRA-LIGAND FREE ENERGY PREDICTED BY IDOCK:   -0.27 KCAL/MOL
REMARK 927      BINDING AFFINITY PREDICTED BY RF-SCORE:    0.00 PKD
ROOT
HETATM    1  N   UNL     1     -10.039   9.876  65.160  1.00  0.00    -0.345 NA 
HETATM    2  H1  UNL     1      -9.409   9.366  65.779  1.00  0.00     0.000 HD 
HETATM    3  C   UNL     1      -9.772  11.338  65.160  1.00  0.00    -0.244 C  
HETATM    4  H2  UNL     1     -10.012   9.497  64.214  1.00  0.00     0.000 HD 
HETATM    5  C   UNL     1     -10.730  12.114  64.220  1.00  0.00    -0.338 C  
HETATM    6  O   UNL     1     -12.054  12.171  64.744  1.00  0.00    -0.362 OA 
HETATM    7  O   UNL     1     -10.806  11.480  62.949  1.00  0.00    -0.681 OA 
HETATM    8  H   UNL     1     -11.393  11.956  62.373  1.00  0.00     0.000 HD 
HETATM    9  C   UNL     1     -12.160  12.855  66.010  1.00  0.00    -0.422 C  
HETATM   10  H   UNL     1      -9.182  13.574  67.442  1.00  0.00     0.000 HD 
HETATM   11  C   UNL     1     -11.280  12.175  67.073  1.00  0.00    -0.314 C  
HETATM   12  C   UNL     1      -9.840  11.947  66.578  1.00  0.00    -0.206 C  
HETATM   13  H   UNL     1     -11.332  10.512  68.121  1.00  0.00     0.000 HD 
HETATM   14  O   UNL     1     -11.875  10.932  67.464  1.00  0.00    -0.524 OA 
HETATM   15  O   UNL     1      -9.140  13.199  66.570  1.00  0.00    -0.216 OA 
ENDROOT
BRANCH   9  16
HETATM   16  C   UNL     1     -11.902  14.365  65.878  1.00  0.00    -0.367 C  
HETATM   17  O   UNL     1     -11.516  14.910  67.138  1.00  0.00    -0.352 OA 
HETATM   18  H   UNL     1     -11.356  15.843  67.057  1.00  0.00     0.000 HD 
ENDBRANCH   9  16
TORSDOF 1
ENDMDL
MODEL       33
REMARK 921   NORMALIZED FREE ENERGY PREDICTED BY IDOCK:   -4.35 KCAL/MOL
REMARK 922        TOTAL FREE ENERGY PREDICTED BY IDOCK:   -4.64 KCAL/MOL
REMARK 923 INTER-LIGAND FREE ENERGY PREDICTED BY IDOCK:   -4.36 KCAL/MOL
REMARK 924 INTRA-LIGAND FREE ENERGY PREDICTED BY IDOCK:   -0.27 KCAL/MOL
REMARK 927      BINDING AFFINITY PREDICTED BY RF-SCORE:    0.00 PKD
ROOT
HETATM    1  N   UNL     1      -7.571  21.116  67.047  1.00  0.00    -0.719 NA 
HETATM    2  H1  UNL     1      -7.378  21.467  66.109  1.00  0.00     0.000 HD 
HETATM    3  C   UNL     1      -7.451  19.637  67.133  1.00  0.00    -0.231 C  
HETATM    4  H2  UNL     1      -6.981  21.574  67.740  1.00  0.00     0.000 HD 
HETATM    5  C   UNL     1      -7.744  19.102  68.559  1.00  0.00    -0.341 C  
HETATM    6  O   UNL     1      -9.129  19.191  68.882  1.00  0.00    -0.360 OA 
HETATM    7  O   UNL     1      -7.033  19.856  69.532  1.00  0.00    -0.325 OA 
HETATM    8  H   UNL     1      -7.214  19.529  70.405  1.00  0.00     0.000 HD 
HETATM    9  C   UNL     1      -9.988  18.414  68.022  1.00  0.00    -0.351 C  
HETATM   10  H   UNL     1      -8.430  17.134  65.308  1.00  0.00     0.000 HD 
HETATM   11  C   UNL     1      -9.836  18.854  66.555  1.00  0.00    -0.368 C  
HETATM   12  C   UNL     1      -8.362  18.914  66.116  1.00  0.00    -0.193 C  
HETATM   13  H   UNL     1     -10.369  20.401  65.465  1.00  0.00     0.000 HD 
HETATM   14  O   UNL     1     -10.464  20.129  66.371  1.00  0.00    -0.421 OA 
HETATM   15  O   UNL     1      -7.869  17.579  65.933  1.00  0.00    -0.519 OA 
ENDROOT
BRANCH   9  16
HETATM   16  C   UNL     1      -9.804  16.901  68.229  1.00  0.00    -0.266 C  
HETATM   17  O   UNL     1     -10.273  16.188  67.086  1.00  0.00    -0.269 OA 
HETATM   18  H   UNL     1     -10.158  15.254  67.213  1.00  0.00     0.000 HD 
ENDBRANCH   9  16
TORSDOF 1
ENDMDL
MODEL       34
REMARK 921   NORMALIZED FREE ENERGY PREDICTED BY IDOCK:   -4.35 KCAL/MOL
REMARK 922        TOTAL FREE ENERGY PREDICTED BY IDOCK:   -4.63 KCAL/MOL
REMARK 923 INTER-LIGAND FREE ENERGY PREDICTED BY IDOCK:   -4.64 KCAL/MOL
REMARK 924 INTRA-LIGAND FREE ENERGY PREDICTED BY IDOCK:    0.01 KCAL/MOL
REMARK 927      BINDING AFFINITY PREDICTED BY RF-SCORE:    0.00 PKD
ROOT
HETATM    1  N   UNL     1     -11.068  11.587  66.250  1.00  0.00    -0.292 NA 
HETATM    2  H1  UNL     1     -10.686  11.084  67.051  1.00  0.00     0.000 HD 
HETATM    3  C   UNL     1     -10.193  12.706  65.814  1.00  0.00    -0.272 C  
HETATM    4  H2  UNL     1     -11.265  10.952  65.476  1.00  0.00     0.000 HD 
HETATM    5  C   UNL     1     -10.773  13.472  64.597  1.00  0.00    -0.416 C  
HETATM    6  O   UNL     1     -11.907  14.256  64.957  1.00  0.00    -0.360 OA 
HETATM    7  O   UNL     1     -11.192  12.562  63.587  1.00  0.00    -0.423 OA 
HETATM    8  H   UNL     1     -11.547  13.031  62.842  1.00  0.00     0.000 HD 
HETATM    9  C   UNL     1     -11.629  15.285  65.929  1.00  0.00     0.003 C  
HETATM   10  H   UNL     1      -8.556  15.073  67.323  1.00  0.00     0.000 HD 
HETATM   11  C   UNL     1     -11.070  14.675  67.226  1.00  0.00    -0.328 C  
HETATM   12  C   UNL     1      -9.905  13.705  66.958  1.00  0.00    -0.251 C  
HETATM   13  H   UNL     1     -11.778  13.628  68.733  1.00  0.00     0.000 HD 
HETATM   14  O   UNL     1     -12.123  14.006  67.933  1.00  0.00    -0.363 OA 
HETATM   15  O   UNL     1      -8.732  14.459  66.619  1.00  0.00    -0.203 OA 
ENDROOT
BRANCH   9  16
HETATM   16  C   UNL     1     -10.750  16.408  65.353  1.00  0.00    -0.296 C  
HETATM   17  O   UNL     1     -11.183  16.743  64.036  1.00  0.00    -1.438 OA 
HETATM   18  H   UNL     1     -10.640  17.437  63.680  1.00  0.00     0.000 HD 
ENDBRANCH   9  16
TORSDOF 1
ENDMDL
MODEL       35
REMARK 921   NORMALIZED FREE ENERGY PREDICTED BY IDOCK:   -4.35 KCAL/MOL
REMARK 922        TOTAL FREE ENERGY PREDICTED BY IDOCK:   -4.63 KCAL/MOL
REMARK 923 INTER-LIGAND FREE ENERGY PREDICTED BY IDOCK:   -4.60 KCAL/MOL
REMARK 924 INTRA-LIGAND FREE ENERGY PREDICTED BY IDOCK:   -0.03 KCAL/MOL
REMARK 927      BINDING AFFINITY PREDICTED BY RF-SCORE:    0.00 PKD
ROOT
HETATM    1  N   UNL     1     -10.918  15.865  64.531  1.00  0.00    -0.871 NA 
HETATM    2  H1  UNL     1     -10.973  15.108  63.850  1.00  0.00     0.000 HD 
HETATM    3  C   UNL     1      -9.841  15.650  65.532  1.00  0.00    -0.291 C  
HETATM    4  H2  UNL     1     -10.816  16.769  64.070  1.00  0.00     0.000 HD 
HETATM    5  C   UNL     1      -9.757  16.800  66.568  1.00  0.00    -0.283 C  
HETATM    6  O   UNL     1     -10.856  16.776  67.475  1.00  0.00    -0.307 OA 
HETATM    7  O   UNL     1      -9.775  18.064  65.915  1.00  0.00    -0.530 OA 
HETATM    8  H   UNL     1      -9.724  18.768  66.550  1.00  0.00     0.000 HD 
HETATM    9  C   UNL     1     -10.936  15.577  68.274  1.00  0.00    -0.305 C  
HETATM   10  H   UNL     1      -8.814  13.129  67.306  1.00  0.00     0.000 HD 
HETATM   11  C   UNL     1     -11.059  14.332  67.380  1.00  0.00    -0.304 C  
HETATM   12  C   UNL     1      -9.990  14.302  66.273  1.00  0.00    -0.306 C  
HETATM   13  H   UNL     1     -12.448  13.513  66.254  1.00  0.00     0.000 HD 
HETATM   14  O   UNL     1     -12.372  14.282  66.807  1.00  0.00    -0.429 OA 
HETATM   15  O   UNL     1      -8.722  13.958  66.851  1.00  0.00    -0.219 OA 
ENDROOT
BRANCH   9  16
HETATM   16  C   UNL     1      -9.793  15.484  69.299  1.00  0.00    -0.270 C  
HETATM   17  O   UNL     1     -10.325  15.340  70.615  1.00  0.00    -0.490 OA 
HETATM   18  H   UNL     1      -9.619  15.282  71.248  1.00  0.00     0.000 HD 
ENDBRANCH   9  16
TORSDOF 1
ENDMDL
MODEL       36
REMARK 921   NORMALIZED FREE ENERGY PREDICTED BY IDOCK:   -4.34 KCAL/MOL
REMARK 922        TOTAL FREE ENERGY PREDICTED BY IDOCK:   -4.62 KCAL/MOL
REMARK 923 INTER-LIGAND FREE ENERGY PREDICTED BY IDOCK:   -4.56 KCAL/MOL
REMARK 924 INTRA-LIGAND FREE ENERGY PREDICTED BY IDOCK:   -0.06 KCAL/MOL
REMARK 927      BINDING AFFINITY PREDICTED BY RF-SCORE:    0.00 PKD
ROOT
HETATM    1  N   UNL     1      -9.284  15.321  65.933  1.00  0.00    -0.441 NA 
HETATM    2  H1  UNL     1     -10.108  14.733  66.060  1.00  0.00     0.000 HD 
HETATM    3  C   UNL     1      -9.105  16.293  67.043  1.00  0.00    -0.207 C  
HETATM    4  H2  UNL     1      -8.446  14.755  65.802  1.00  0.00     0.000 HD 
HETATM    5  C   UNL     1      -7.852  17.186  66.851  1.00  0.00    -0.215 C  
HETATM    6  O   UNL     1      -8.035  18.136  65.804  1.00  0.00    -0.521 OA 
HETATM    7  O   UNL     1      -6.721  16.394  66.510  1.00  0.00    -0.238 OA 
HETATM    8  H   UNL     1      -5.954  16.942  66.393  1.00  0.00     0.000 HD 
HETATM    9  C   UNL     1      -9.110  19.070  66.035  1.00  0.00    -0.046 C  
HETATM   10  H   UNL     1     -11.061  18.299  68.687  1.00  0.00     0.000 HD 
HETATM   11  C   UNL     1     -10.447  18.330  66.214  1.00  0.00    -0.376 C  
HETATM   12  C   UNL     1     -10.348  17.189  67.243  1.00  0.00    -0.320 C  
HETATM   13  H   UNL     1     -11.712  17.364  65.059  1.00  0.00     0.000 HD 
HETATM   14  O   UNL     1     -10.887  17.822  64.949  1.00  0.00    -0.815 OA 
HETATM   15  O   UNL     1     -10.297  17.748  68.564  1.00  0.00    -0.359 OA 
ENDROOT
BRANCH   9  16
HETATM   16  C   UNL     1      -8.795  20.049  67.178  1.00  0.00    -0.344 C  
HETATM   17  O   UNL     1      -9.638  21.197  67.087  1.00  0.00    -0.680 OA 
HETATM   18  H   UNL     1      -9.443  21.802  67.793  1.00  0.00     0.000 HD 
ENDBRANCH   9  16
TORSDOF 1
ENDMDL
MODEL       37
REMARK 921   NORMALIZED FREE ENERGY PREDICTED BY IDOCK:   -4.33 KCAL/MOL
REMARK 922        TOTAL FREE ENERGY PREDICTED BY IDOCK:   -4.61 KCAL/MOL
REMARK 923 INTER-LIGAND FREE ENERGY PREDICTED BY IDOCK:   -4.38 KCAL/MOL
REMARK 924 INTRA-LIGAND FREE ENERGY PREDICTED BY IDOCK:   -0.23 KCAL/MOL
REMARK 927      BINDING AFFINITY PREDICTED BY RF-SCORE:    0.00 PKD
ROOT
HETATM    1  N   UNL     1      -9.821  20.577  66.104  1.00  0.00    -0.610 NA 
HETATM    2  H1  UNL     1      -9.817  21.462  66.611  1.00  0.00     0.000 HD 
HETATM    3  C   UNL     1     -10.290  19.445  66.944  1.00  0.00    -0.437 C  
HETATM    4  H2  UNL     1     -10.367  20.647  65.246  1.00  0.00     0.000 HD 
HETATM    5  C   UNL     1     -10.296  18.099  66.174  1.00  0.00    -0.385 C  
HETATM    6  O   UNL     1      -8.976  17.617  65.939  1.00  0.00    -0.519 OA 
HETATM    7  O   UNL     1     -10.922  18.251  64.906  1.00  0.00    -0.660 OA 
HETATM    8  H   UNL     1     -10.926  17.427  64.435  1.00  0.00     0.000 HD 
HETATM    9  C   UNL     1      -8.226  17.340  67.141  1.00  0.00    -0.204 C  
HETATM   10  H   UNL     1      -9.710  18.430  69.976  1.00  0.00     0.000 HD 
HETATM   11  C   UNL     1      -8.100  18.604  68.009  1.00  0.00    -0.275 C  
HETATM   12  C   UNL     1      -9.458  19.291  68.238  1.00  0.00    -0.359 C  
HETATM   13  H   UNL     1      -7.100  20.295  67.935  1.00  0.00     0.000 HD 
HETATM   14  O   UNL     1      -7.177  19.515  67.399  1.00  0.00    -0.212 OA 
HETATM   15  O   UNL     1     -10.222  18.525  69.181  1.00  0.00    -0.320 OA 
ENDROOT
BRANCH   9  16
HETATM   16  C   UNL     1      -8.778  16.126  67.904  1.00  0.00    -0.174 C  
HETATM   17  O   UNL     1      -8.188  16.051  69.201  1.00  0.00    -0.226 OA 
HETATM   18  H   UNL     1      -8.529  15.300  69.673  1.00  0.00     0.000 HD 
ENDBRANCH   9  16
TORSDOF 1
ENDMDL
MODEL       38
REMARK 921   NORMALIZED FREE ENERGY PREDICTED BY IDOCK:   -4.29 KCAL/MOL
REMARK 922        TOTAL FREE ENERGY PREDICTED BY IDOCK:   -4.56 KCAL/MOL
REMARK 923 INTER-LIGAND FREE ENERGY PREDICTED BY IDOCK:   -4.29 KCAL/MOL
REMARK 924 INTRA-LIGAND FREE ENERGY PREDICTED BY IDOCK:   -0.27 KCAL/MOL
REMARK 927      BINDING AFFINITY PREDICTED BY RF-SCORE:    0.00 PKD
ROOT
HETATM    1  N   UNL     1     -12.037  11.084  68.377  1.00  0.00    -0.786 NA 
HETATM    2  H1  UNL     1     -13.034  11.063  68.590  1.00  0.00     0.000 HD 
HETATM    3  C   UNL     1     -11.459  12.447  68.504  1.00  0.00    -0.306 C  
HETATM    4  H2  UNL     1     -11.524  10.413  68.949  1.00  0.00     0.000 HD 
HETATM    5  C   UNL     1      -9.943  12.479  68.180  1.00  0.00    -0.224 C  
HETATM    6  O   UNL     1      -9.696  12.306  66.787  1.00  0.00    -0.204 OA 
HETATM    7  O   UNL     1      -9.263  11.434  68.863  1.00  0.00    -0.347 OA 
HETATM    8  H   UNL     1      -8.335  11.454  68.665  1.00  0.00     0.000 HD 
HETATM    9  C   UNL     1     -10.264  13.337  65.953  1.00  0.00    -0.293 C  
HETATM   10  H   UNL     1     -12.363  15.428  67.583  1.00  0.00     0.000 HD 
HETATM   11  C   UNL     1     -11.790  13.410  66.138  1.00  0.00    -0.385 C  
HETATM   12  C   UNL     1     -12.195  13.480  67.621  1.00  0.00    -0.175 C  
HETATM   13  H   UNL     1     -13.345  12.322  65.621  1.00  0.00     0.000 HD 
HETATM   14  O   UNL     1     -12.403  12.278  65.507  1.00  0.00    -0.602 OA 
HETATM   15  O   UNL     1     -11.911  14.793  68.126  1.00  0.00    -0.326 OA 
ENDROOT
BRANCH   9  16
HETATM   16  C   UNL     1      -9.561  14.691  66.142  1.00  0.00    -0.307 C  
HETATM   17  O   UNL     1     -10.386  15.746  65.651  1.00  0.00    -0.337 OA 
HETATM   18  H   UNL     1      -9.952  16.583  65.768  1.00  0.00     0.000 HD 
ENDBRANCH   9  16
TORSDOF 1
ENDMDL
MODEL       39
REMARK 921   NORMALIZED FREE ENERGY PREDICTED BY IDOCK:   -4.28 KCAL/MOL
REMARK 922        TOTAL FREE ENERGY PREDICTED BY IDOCK:   -4.56 KCAL/MOL
REMARK 923 INTER-LIGAND FREE ENERGY PREDICTED BY IDOCK:   -4.53 KCAL/MOL
REMARK 924 INTRA-LIGAND FREE ENERGY PREDICTED BY IDOCK:   -0.02 KCAL/MOL
REMARK 927      BINDING AFFINITY PREDICTED BY RF-SCORE:    0.00 PKD
ROOT
HETATM    1  N   UNL     1      -8.800  14.858  68.240  1.00  0.00    -0.166 NA 
HETATM    2  H1  UNL     1      -8.745  14.167  68.989  1.00  0.00     0.000 HD 
HETATM    3  C   UNL     1     -10.200  15.133  67.825  1.00  0.00    -0.236 C  
HETATM    4  H2  UNL     1      -8.317  15.718  68.497  1.00  0.00     0.000 HD 
HETATM    5  C   UNL     1     -10.284  16.183  66.687  1.00  0.00    -0.287 C  
HETATM    6  O   UNL     1      -9.827  15.655  65.445  1.00  0.00    -0.310 OA 
HETATM    7  O   UNL     1      -9.476  17.314  66.989  1.00  0.00    -0.248 OA 
HETATM    8  H   UNL     1      -9.528  17.956  66.292  1.00  0.00     0.000 HD 
HETATM    9  C   UNL     1     -10.598  14.535  64.960  1.00  0.00    -0.437 C  
HETATM   10  H   UNL     1     -12.819  13.315  67.199  1.00  0.00     0.000 HD 
HETATM   11  C   UNL     1     -10.584  13.380  65.977  1.00  0.00    -0.287 C  
HETATM   12  C   UNL     1     -10.948  13.851  67.397  1.00  0.00    -0.288 C  
HETATM   13  H   UNL     1      -9.285  12.043  66.603  1.00  0.00     0.000 HD 
HETATM   14  O   UNL     1      -9.294  12.756  65.975  1.00  0.00    -0.175 OA 
HETATM   15  O   UNL     1     -12.359  14.104  67.462  1.00  0.00    -0.296 OA 
ENDROOT
BRANCH   9  16
HETATM   16  C   UNL     1     -12.013  14.949  64.524  1.00  0.00    -0.410 C  
HETATM   17  O   UNL     1     -11.953  16.118  63.708  1.00  0.00    -1.394 OA 
HETATM   18  H   UNL     1     -12.827  16.373  63.438  1.00  0.00     0.000 HD 
ENDBRANCH   9  16
TORSDOF 1
ENDMDL
MODEL       40
REMARK 921   NORMALIZED FREE ENERGY PREDICTED BY IDOCK:   -4.15 KCAL/MOL
REMARK 922        TOTAL FREE ENERGY PREDICTED BY IDOCK:   -4.42 KCAL/MOL
REMARK 923 INTER-LIGAND FREE ENERGY PREDICTED BY IDOCK:   -4.15 KCAL/MOL
REMARK 924 INTRA-LIGAND FREE ENERGY PREDICTED BY IDOCK:   -0.27 KCAL/MOL
REMARK 927      BINDING AFFINITY PREDICTED BY RF-SCORE:    0.00 PKD
ROOT
HETATM    1  N   UNL     1      -7.387  18.408  65.645  1.00  0.00    -0.536 NA 
HETATM    2  H1  UNL     1      -7.287  18.086  64.683  1.00  0.00     0.000 HD 
HETATM    3  C   UNL     1      -7.744  17.306  66.576  1.00  0.00    -0.290 C  
HETATM    4  H2  UNL     1      -6.548  18.896  65.959  1.00  0.00     0.000 HD 
HETATM    5  C   UNL     1      -7.896  17.794  68.040  1.00  0.00    -0.241 C  
HETATM    6  O   UNL     1      -9.075  18.574  68.219  1.00  0.00    -0.299 OA 
HETATM    7  O   UNL     1      -6.791  18.608  68.413  1.00  0.00    -0.234 OA 
HETATM    8  H   UNL     1      -6.884  18.907  69.310  1.00  0.00     0.000 HD 
HETATM    9  C   UNL     1     -10.301  17.861  67.948  1.00  0.00    -0.389 C  
HETATM   10  H   UNL     1      -9.848  14.831  66.518  1.00  0.00     0.000 HD 
HETATM   11  C   UNL     1     -10.319  17.335  66.503  1.00  0.00    -0.308 C  
HETATM   12  C   UNL     1      -9.033  16.569  66.145  1.00  0.00    -0.309 C  
HETATM   13  H   UNL     1     -10.527  18.104  64.705  1.00  0.00     0.000 HD 
HETATM   14  O   UNL     1     -10.516  18.429  65.598  1.00  0.00    -0.624 OA 
HETATM   15  O   UNL     1      -9.056  15.284  66.783  1.00  0.00    -0.220 OA 
ENDROOT
BRANCH   9  16
HETATM   16  C   UNL     1     -10.586  16.775  68.998  1.00  0.00    -0.343 C  
HETATM   17  O   UNL     1     -11.516  15.825  68.482  1.00  0.00    -0.356 OA 
HETATM   18  H   UNL     1     -11.692  15.153  69.130  1.00  0.00     0.000 HD 
ENDBRANCH   9  16
TORSDOF 1
ENDMDL
MODEL       41
REMARK 921   NORMALIZED FREE ENERGY PREDICTED BY IDOCK:   -4.15 KCAL/MOL
REMARK 922        TOTAL FREE ENERGY PREDICTED BY IDOCK:   -4.42 KCAL/MOL
REMARK 923 INTER-LIGAND FREE ENERGY PREDICTED BY IDOCK:   -4.15 KCAL/MOL
REMARK 924 INTRA-LIGAND FREE ENERGY PREDICTED BY IDOCK:   -0.27 KCAL/MOL
REMARK 927      BINDING AFFINITY PREDICTED BY RF-SCORE:    0.00 PKD
ROOT
HETATM    1  N   UNL     1     -11.814  15.086  66.344  1.00  0.00    -0.129 NA 
HETATM    2  H1  UNL     1     -11.912  15.317  67.333  1.00  0.00     0.000 HD 
HETATM    3  C   UNL     1     -12.179  13.675  66.054  1.00  0.00    -0.449 C  
HETATM    4  H2  UNL     1     -12.347  15.731  65.761  1.00  0.00     0.000 HD 
HETATM    5  C   UNL     1     -12.031  13.323  64.551  1.00  0.00    -0.400 C  
HETATM    6  O   UNL     1     -10.663  13.241  64.159  1.00  0.00    -0.405 OA 
HETATM    7  O   UNL     1     -12.644  14.318  63.741  1.00  0.00    -0.909 OA 
HETATM    8  H   UNL     1     -12.552  14.102  62.821  1.00  0.00     0.000 HD 
HETATM    9  C   UNL     1      -9.912  12.217  64.845  1.00  0.00    -0.195 C  
HETATM   10  H   UNL     1     -11.558  10.802  67.438  1.00  0.00     0.000 HD 
HETATM   11  C   UNL     1      -9.935  12.448  66.366  1.00  0.00    -0.242 C  
HETATM   12  C   UNL     1     -11.362  12.672  66.899  1.00  0.00    -0.320 C  
HETATM   13  H   UNL     1      -9.115  13.709  67.632  1.00  0.00     0.000 HD 
HETATM   14  O   UNL     1      -9.100  13.566  66.693  1.00  0.00    -0.234 OA 
HETATM   15  O   UNL     1     -12.061  11.419  66.918  1.00  0.00    -0.243 OA 
ENDROOT
BRANCH   9  16
HETATM   16  C   UNL     1     -10.351  10.802  64.435  1.00  0.00    -0.335 C  
HETATM   17  O   UNL     1      -9.878   9.847  65.384  1.00  0.00    -0.293 OA 
HETATM   18  H   UNL     1     -10.150   8.972  65.131  1.00  0.00     0.000 HD 
ENDBRANCH   9  16
TORSDOF 1
ENDMDL
MODEL       42
REMARK 921   NORMALIZED FREE ENERGY PREDICTED BY IDOCK:   -4.14 KCAL/MOL
REMARK 922        TOTAL FREE ENERGY PREDICTED BY IDOCK:   -4.41 KCAL/MOL
REMARK 923 INTER-LIGAND FREE ENERGY PREDICTED BY IDOCK:   -4.14 KCAL/MOL
REMARK 924 INTRA-LIGAND FREE ENERGY PREDICTED BY IDOCK:   -0.27 KCAL/MOL
REMARK 927      BINDING AFFINITY PREDICTED BY RF-SCORE:    0.00 PKD
ROOT
HETATM    1  N   UNL     1     -10.677  17.303  68.423  1.00  0.00    -0.360 NA 
HETATM    2  H1  UNL     1     -11.212  16.653  67.848  1.00  0.00     0.000 HD 
HETATM    3  C   UNL     1     -10.489  18.621  67.764  1.00  0.00    -0.411 C  
HETATM    4  H2  UNL     1     -11.099  17.410  69.345  1.00  0.00     0.000 HD 
HETATM    5  C   UNL     1      -9.676  19.610  68.639  1.00  0.00    -0.400 C  
HETATM    6  O   UNL     1      -8.300  19.244  68.711  1.00  0.00    -0.361 OA 
HETATM    7  O   UNL     1     -10.178  19.630  69.969  1.00  0.00    -0.419 OA 
HETATM    8  H   UNL     1      -9.680  20.236  70.504  1.00  0.00     0.000 HD 
HETATM    9  C   UNL     1      -7.620  19.248  67.438  1.00  0.00    -0.234 C  
HETATM   10  H   UNL     1      -9.676  19.608  64.777  1.00  0.00     0.000 HD 
HETATM   11  C   UNL     1      -8.297  18.276  66.455  1.00  0.00    -0.243 C  
HETATM   12  C   UNL     1      -9.819  18.492  66.377  1.00  0.00    -0.361 C  
HETATM   13  H   UNL     1      -8.422  16.326  66.232  1.00  0.00     0.000 HD 
HETATM   14  O   UNL     1      -8.004  16.926  66.838  1.00  0.00    -0.176 OA 
HETATM   15  O   UNL     1     -10.088  19.688  65.630  1.00  0.00    -0.407 OA 
ENDROOT
BRANCH   9  16
HETATM   16  C   UNL     1      -7.449  20.667  66.874  1.00  0.00    -0.258 C  
HETATM   17  O   UNL     1      -7.172  20.610  65.475  1.00  0.00    -0.510 OA 
HETATM   18  H   UNL     1      -7.067  21.487  65.126  1.00  0.00     0.000 HD 
ENDBRANCH   9  16
TORSDOF 1
ENDMDL
MODEL       43
REMARK 921   NORMALIZED FREE ENERGY PREDICTED BY IDOCK:   -4.14 KCAL/MOL
REMARK 922        TOTAL FREE ENERGY PREDICTED BY IDOCK:   -4.41 KCAL/MOL
REMARK 923 INTER-LIGAND FREE ENERGY PREDICTED BY IDOCK:   -4.15 KCAL/MOL
REMARK 924 INTRA-LIGAND FREE ENERGY PREDICTED BY IDOCK:   -0.26 KCAL/MOL
REMARK 927      BINDING AFFINITY PREDICTED BY RF-SCORE:    0.00 PKD
ROOT
HETATM    1  N   UNL     1     -10.572  11.376  69.156  1.00  0.00    -0.341 NA 
HETATM    2  H1  UNL     1     -10.777  10.385  69.033  1.00  0.00     0.000 HD 
HETATM    3  C   UNL     1     -11.379  12.238  68.254  1.00  0.00    -0.289 C  
HETATM    4  H2  UNL     1     -10.683  11.657  70.130  1.00  0.00     0.000 HD 
HETATM    5  C   UNL     1     -11.067  13.745  68.441  1.00  0.00    -0.263 C  
HETATM    6  O   UNL     1      -9.785  14.089  67.921  1.00  0.00    -0.217 OA 
HETATM    7  O   UNL     1     -11.070  14.090  69.820  1.00  0.00    -0.423 OA 
HETATM    8  H   UNL     1     -10.879  15.013  69.934  1.00  0.00     0.000 HD 
HETATM    9  C   UNL     1      -9.644  13.864  66.503  1.00  0.00    -0.287 C  
HETATM   10  H   UNL     1     -12.206  12.150  65.114  1.00  0.00     0.000 HD 
HETATM   11  C   UNL     1      -9.893  12.386  66.155  1.00  0.00    -0.252 C  
HETATM   12  C   UNL     1     -11.203  11.858  66.767  1.00  0.00    -0.327 C  
HETATM   13  H   UNL     1      -8.936  10.684  66.384  1.00  0.00     0.000 HD 
HETATM   14  O   UNL     1      -8.782  11.596  66.598  1.00  0.00    -0.180 OA 
HETATM   15  O   UNL     1     -12.315  12.384  66.028  1.00  0.00    -0.627 OA 
ENDROOT
BRANCH   9  16
HETATM   16  C   UNL     1     -10.494  14.839  65.672  1.00  0.00    -0.349 C  
HETATM   17  O   UNL     1     -10.797  14.267  64.401  1.00  0.00    -0.595 OA 
HETATM   18  H   UNL     1     -11.323  14.869  63.888  1.00  0.00     0.000 HD 
ENDBRANCH   9  16
TORSDOF 1
ENDMDL
MODEL       44
REMARK 921   NORMALIZED FREE ENERGY PREDICTED BY IDOCK:   -4.11 KCAL/MOL
REMARK 922        TOTAL FREE ENERGY PREDICTED BY IDOCK:   -4.37 KCAL/MOL
REMARK 923 INTER-LIGAND FREE ENERGY PREDICTED BY IDOCK:   -4.11 KCAL/MOL
REMARK 924 INTRA-LIGAND FREE ENERGY PREDICTED BY IDOCK:   -0.26 KCAL/MOL
REMARK 927      BINDING AFFINITY PREDICTED BY RF-SCORE:    0.00 PKD
ROOT
HETATM    1  N   UNL     1     -13.587   7.342  70.887  1.00  0.00    -0.590 NA 
HETATM    2  H1  UNL     1     -14.250   7.306  71.661  1.00  0.00     0.000 HD 
HETATM    3  C   UNL     1     -12.219   6.928  71.294  1.00  0.00    -0.380 C  
HETATM    4  H2  UNL     1     -13.916   6.793  70.094  1.00  0.00     0.000 HD 
HETATM    5  C   UNL     1     -11.210   6.983  70.119  1.00  0.00    -0.284 C  
HETATM    6  O   UNL     1     -10.893   8.324  69.756  1.00  0.00    -0.241 OA 
HETATM    7  O   UNL     1     -11.750   6.349  68.966  1.00  0.00    -0.552 OA 
HETATM    8  H   UNL     1     -11.131   6.383  68.246  1.00  0.00     0.000 HD 
HETATM    9  C   UNL     1     -10.263   9.087  70.806  1.00  0.00    -0.244 C  
HETATM   10  H   UNL     1     -10.276   7.556  73.821  1.00  0.00     0.000 HD 
HETATM   11  C   UNL     1     -11.168   9.155  72.049  1.00  0.00    -0.240 C  
HETATM   12  C   UNL     1     -11.679   7.766  72.474  1.00  0.00    -0.339 C  
HETATM   13  H   UNL     1     -12.829  10.076  72.559  1.00  0.00     0.000 HD 
HETATM   14  O   UNL     1     -12.270  10.034  71.792  1.00  0.00    -0.384 OA 
HETATM   15  O   UNL     1     -10.608   7.040  73.096  1.00  0.00    -0.259 OA 
ENDROOT
BRANCH   9  16
HETATM   16  C   UNL     1      -8.840   8.592  71.112  1.00  0.00    -0.199 C  
HETATM   17  O   UNL     1      -8.470   8.952  72.442  1.00  0.00    -0.396 OA 
HETATM   18  H   UNL     1      -7.591   8.646  72.632  1.00  0.00     0.000 HD 
ENDBRANCH   9  16
TORSDOF 1
ENDMDL
MODEL       45
REMARK 921   NORMALIZED FREE ENERGY PREDICTED BY IDOCK:   -4.10 KCAL/MOL
REMARK 922        TOTAL FREE ENERGY PREDICTED BY IDOCK:   -4.37 KCAL/MOL
REMARK 923 INTER-LIGAND FREE ENERGY PREDICTED BY IDOCK:   -4.13 KCAL/MOL
REMARK 924 INTRA-LIGAND FREE ENERGY PREDICTED BY IDOCK:   -0.24 KCAL/MOL
REMARK 927      BINDING AFFINITY PREDICTED BY RF-SCORE:    0.00 PKD
ROOT
HETATM    1  N   UNL     1     -10.230  14.010  67.539  1.00  0.00    -0.243 NA 
HETATM    2  H1  UNL     1      -9.886  13.324  66.867  1.00  0.00     0.000 HD 
HETATM    3  C   UNL     1     -10.976  15.117  66.887  1.00  0.00    -0.323 C  
HETATM    4  H2  UNL     1     -10.792  13.565  68.264  1.00  0.00     0.000 HD 
HETATM    5  C   UNL     1     -11.499  16.160  67.909  1.00  0.00    -0.103 C  
HETATM    6  O   UNL     1     -10.441  16.947  68.449  1.00  0.00    -0.313 OA 
HETATM    7  O   UNL     1     -12.144  15.513  68.998  1.00  0.00    -0.536 OA 
HETATM    8  H   UNL     1     -12.464  16.152  69.624  1.00  0.00     0.000 HD 
HETATM    9  C   UNL     1      -9.727  17.729  67.469  1.00  0.00    -0.284 C  
HETATM   10  H   UNL     1     -10.512  16.980  64.266  1.00  0.00     0.000 HD 
HETATM   11  C   UNL     1      -9.112  16.823  66.389  1.00  0.00    -0.289 C  
HETATM   12  C   UNL     1     -10.137  15.833  65.806  1.00  0.00    -0.371 C  
HETATM   13  H   UNL     1      -7.613  15.555  66.272  1.00  0.00     0.000 HD 
HETATM   14  O   UNL     1      -7.993  16.115  66.939  1.00  0.00    -0.193 OA 
HETATM   15  O   UNL     1     -11.029  16.540  64.931  1.00  0.00    -0.624 OA 
ENDROOT
BRANCH   9  16
HETATM   16  C   UNL     1     -10.587  18.868  66.895  1.00  0.00    -0.421 C  
HETATM   17  O   UNL     1      -9.955  19.428  65.744  1.00  0.00    -0.429 OA 
HETATM   18  H   UNL     1     -10.486  20.130  65.389  1.00  0.00     0.000 HD 
ENDBRANCH   9  16
TORSDOF 1
ENDMDL
MODEL       46
REMARK 921   NORMALIZED FREE ENERGY PREDICTED BY IDOCK:   -4.09 KCAL/MOL
REMARK 922        TOTAL FREE ENERGY PREDICTED BY IDOCK:   -4.36 KCAL/MOL
REMARK 923 INTER-LIGAND FREE ENERGY PREDICTED BY IDOCK:   -4.30 KCAL/MOL
REMARK 924 INTRA-LIGAND FREE ENERGY PREDICTED BY IDOCK:   -0.05 KCAL/MOL
REMARK 927      BINDING AFFINITY PREDICTED BY RF-SCORE:    0.00 PKD
ROOT
HETATM    1  N   UNL     1     -12.480   9.941  70.463  1.00  0.00    -0.489 NA 
HETATM    2  H1  UNL     1     -11.990  10.597  69.855  1.00  0.00     0.000 HD 
HETATM    3  C   UNL     1     -11.637   9.483  71.597  1.00  0.00    -0.381 C  
HETATM    4  H2  UNL     1     -13.360  10.334  70.795  1.00  0.00     0.000 HD 
HETATM    5  C   UNL     1     -12.381   8.485  72.522  1.00  0.00    -0.306 C  
HETATM    6  O   UNL     1     -12.554   7.215  71.899  1.00  0.00    -0.323 OA 
HETATM    7  O   UNL     1     -13.675   8.976  72.849  1.00  0.00    -0.864 OA 
HETATM    8  H   UNL     1     -14.130   8.364  73.416  1.00  0.00     0.000 HD 
HETATM    9  C   UNL     1     -11.319   6.546  71.568  1.00  0.00    -0.291 C  
HETATM   10  H   UNL     1      -8.565   8.476  71.927  1.00  0.00     0.000 HD 
HETATM   11  C   UNL     1     -10.470   7.406  70.615  1.00  0.00    -0.215 C  
HETATM   12  C   UNL     1     -10.309   8.851  71.123  1.00  0.00    -0.268 C  
HETATM   13  H   UNL     1     -10.538   7.932  68.722  1.00  0.00     0.000 HD 
HETATM   14  O   UNL     1     -11.061   7.401  69.310  1.00  0.00    -0.127 OA 
HETATM   15  O   UNL     1      -9.382   8.864  72.219  1.00  0.00    -0.360 OA 
ENDROOT
BRANCH   9  16
HETATM   16  C   UNL     1     -10.554   6.083  72.819  1.00  0.00    -0.225 C  
HETATM   17  O   UNL     1     -11.378   5.229  73.610  1.00  0.00    -0.455 OA 
HETATM   18  H   UNL     1     -10.906   4.942  74.383  1.00  0.00     0.000 HD 
ENDBRANCH   9  16
TORSDOF 1
ENDMDL
MODEL       47
REMARK 921   NORMALIZED FREE ENERGY PREDICTED BY IDOCK:   -4.09 KCAL/MOL
REMARK 922        TOTAL FREE ENERGY PREDICTED BY IDOCK:   -4.36 KCAL/MOL
REMARK 923 INTER-LIGAND FREE ENERGY PREDICTED BY IDOCK:   -4.08 KCAL/MOL
REMARK 924 INTRA-LIGAND FREE ENERGY PREDICTED BY IDOCK:   -0.27 KCAL/MOL
REMARK 927      BINDING AFFINITY PREDICTED BY RF-SCORE:    0.00 PKD
ROOT
HETATM    1  N   UNL     1     -13.884   8.821  73.163  1.00  0.00    -1.118 NA 
HETATM    2  H1  UNL     1     -14.431   8.080  73.602  1.00  0.00     0.000 HD 
HETATM    3  C   UNL     1     -13.428   8.456  71.797  1.00  0.00    -0.364 C  
HETATM    4  H2  UNL     1     -14.397   9.702  73.156  1.00  0.00     0.000 HD 
HETATM    5  C   UNL     1     -12.596   9.582  71.130  1.00  0.00    -0.301 C  
HETATM    6  O   UNL     1     -11.307   9.709  71.724  1.00  0.00    -0.347 OA 
HETATM    7  O   UNL     1     -13.251  10.836  71.268  1.00  0.00    -0.347 OA 
HETATM    8  H   UNL     1     -12.741  11.526  70.860  1.00  0.00     0.000 HD 
HETATM    9  C   UNL     1     -10.482   8.531  71.603  1.00  0.00    -0.275 C  
HETATM   10  H   UNL     1     -12.119   5.814  70.433  1.00  0.00     0.000 HD 
HETATM   11  C   UNL     1     -11.164   7.316  72.256  1.00  0.00    -0.267 C  
HETATM   12  C   UNL     1     -12.618   7.140  71.781  1.00  0.00    -0.346 C  
HETATM   13  H   UNL     1     -11.540   6.701  74.085  1.00  0.00     0.000 HD 
HETATM   14  O   UNL     1     -11.118   7.451  73.682  1.00  0.00    -0.258 OA 
HETATM   15  O   UNL     1     -12.617   6.623  70.443  1.00  0.00    -0.104 OA 
ENDROOT
BRANCH   9  16
HETATM   16  C   UNL     1     -10.040   8.278  70.152  1.00  0.00    -0.191 C  
HETATM   17  O   UNL     1      -9.674   6.910  69.982  1.00  0.00    -0.167 OA 
HETATM   18  H   UNL     1      -9.402   6.753  69.086  1.00  0.00     0.000 HD 
ENDBRANCH   9  16
TORSDOF 1
ENDMDL
MODEL       48
REMARK 921   NORMALIZED FREE ENERGY PREDICTED BY IDOCK:   -4.08 KCAL/MOL
REMARK 922        TOTAL FREE ENERGY PREDICTED BY IDOCK:   -4.35 KCAL/MOL
REMARK 923 INTER-LIGAND FREE ENERGY PREDICTED BY IDOCK:   -4.22 KCAL/MOL
REMARK 924 INTRA-LIGAND FREE ENERGY PREDICTED BY IDOCK:   -0.13 KCAL/MOL
REMARK 927      BINDING AFFINITY PREDICTED BY RF-SCORE:    0.00 PKD
ROOT
HETATM    1  N   UNL     1      -9.159  11.824  68.974  1.00  0.00    -0.376 NA 
HETATM    2  H1  UNL     1      -9.355  12.041  69.952  1.00  0.00     0.000 HD 
HETATM    3  C   UNL     1      -9.438  12.972  68.073  1.00  0.00    -0.217 C  
HETATM    4  H2  UNL     1      -8.204  11.488  68.856  1.00  0.00     0.000 HD 
HETATM    5  C   UNL     1      -9.141  12.642  66.587  1.00  0.00    -0.193 C  
HETATM    6  O   UNL     1     -10.103  11.744  66.041  1.00  0.00    -0.217 OA 
HETATM    7  O   UNL     1      -7.866  12.026  66.456  1.00  0.00    -0.377 OA 
HETATM    8  H   UNL     1      -7.684  11.825  65.546  1.00  0.00     0.000 HD 
HETATM    9  C   UNL     1     -11.452  12.257  66.033  1.00  0.00    -0.381 C  
HETATM   10  H   UNL     1     -11.846  15.132  67.769  1.00  0.00     0.000 HD 
HETATM   11  C   UNL     1     -11.913  12.604  67.460  1.00  0.00    -0.250 C  
HETATM   12  C   UNL     1     -10.891  13.482  68.205  1.00  0.00    -0.254 C  
HETATM   13  H   UNL     1     -12.443  11.610  69.072  1.00  0.00     0.000 HD 
HETATM   14  O   UNL     1     -12.159  11.396  68.191  1.00  0.00    -0.623 OA 
HETATM   15  O   UNL     1     -10.952  14.819  67.687  1.00  0.00    -0.274 OA 
ENDROOT
BRANCH   9  16
HETATM   16  C   UNL     1     -11.629  13.413  65.035  1.00  0.00    -0.317 C  
HETATM   17  O   UNL     1     -12.949  13.946  65.130  1.00  0.00    -0.744 OA 
HETATM   18  H   UNL     1     -13.059  14.660  64.514  1.00  0.00     0.000 HD 
ENDBRANCH   9  16
TORSDOF 1
ENDMDL
MODEL       49
REMARK 921   NORMALIZED FREE ENERGY PREDICTED BY IDOCK:   -4.08 KCAL/MOL
REMARK 922        TOTAL FREE ENERGY PREDICTED BY IDOCK:   -4.35 KCAL/MOL
REMARK 923 INTER-LIGAND FREE ENERGY PREDICTED BY IDOCK:   -4.08 KCAL/MOL
REMARK 924 INTRA-LIGAND FREE ENERGY PREDICTED BY IDOCK:   -0.27 KCAL/MOL
REMARK 927      BINDING AFFINITY PREDICTED BY RF-SCORE:    0.00 PKD
ROOT
HETATM    1  N   UNL     1     -12.029  14.622  66.377  1.00  0.00    -0.317 NA 
HETATM    2  H1  UNL     1     -12.138  13.757  66.906  1.00  0.00     0.000 HD 
HETATM    3  C   UNL     1     -10.606  14.931  66.083  1.00  0.00    -0.318 C  
HETATM    4  H2  UNL     1     -12.584  14.602  65.522  1.00  0.00     0.000 HD 
HETATM    5  C   UNL     1     -10.440  16.246  65.278  1.00  0.00    -0.300 C  
HETATM    6  O   UNL     1     -10.714  17.393  66.077  1.00  0.00    -0.263 OA 
HETATM    7  O   UNL     1     -11.337  16.274  64.175  1.00  0.00    -1.184 OA 
HETATM    8  H   UNL     1     -11.235  17.079  63.683  1.00  0.00     0.000 HD 
HETATM    9  C   UNL     1      -9.832  17.550  67.208  1.00  0.00    -0.294 C  
HETATM   10  H   UNL     1      -7.838  14.881  67.784  1.00  0.00     0.000 HD 
HETATM   11  C   UNL     1      -9.908  16.324  68.135  1.00  0.00    -0.229 C  
HETATM   12  C   UNL     1      -9.744  15.001  67.364  1.00  0.00    -0.216 C  
HETATM   13  H   UNL     1     -11.200  15.579  69.416  1.00  0.00     0.000 HD 
HETATM   14  O   UNL     1     -11.153  16.336  68.844  1.00  0.00    -0.315 OA 
HETATM   15  O   UNL     1      -8.367  14.838  66.996  1.00  0.00    -0.206 OA 
ENDROOT
BRANCH   9  16
HETATM   16  C   UNL     1      -8.398  17.907  66.783  1.00  0.00    -0.252 C  
HETATM   17  O   UNL     1      -7.478  17.556  67.815  1.00  0.00    -0.185 OA 
HETATM   18  H   UNL     1      -6.592  17.776  67.552  1.00  0.00     0.000 HD 
ENDBRANCH   9  16
TORSDOF 1
ENDMDL
MODEL       50
REMARK 921   NORMALIZED FREE ENERGY PREDICTED BY IDOCK:   -4.04 KCAL/MOL
REMARK 922        TOTAL FREE ENERGY PREDICTED BY IDOCK:   -4.30 KCAL/MOL
REMARK 923 INTER-LIGAND FREE ENERGY PREDICTED BY IDOCK:   -4.27 KCAL/MOL
REMARK 924 INTRA-LIGAND FREE ENERGY PREDICTED BY IDOCK:   -0.04 KCAL/MOL
REMARK 927      BINDING AFFINITY PREDICTED BY RF-SCORE:    0.00 PKD
ROOT
HETATM    1  N   UNL     1      -9.083   6.835  70.626  1.00  0.00    -0.155 NA 
HETATM    2  H1  UNL     1      -8.188   7.227  70.918  1.00  0.00     0.000 HD 
HETATM    3  C   UNL     1     -10.124   7.879  70.438  1.00  0.00    -0.194 C  
HETATM    4  H2  UNL     1      -8.980   6.265  69.787  1.00  0.00     0.000 HD 
HETATM    5  C   UNL     1     -11.486   7.284  69.995  1.00  0.00    -0.110 C  
HETATM    6  O   UNL     1     -12.125   6.578  71.055  1.00  0.00    -0.352 OA 
HETATM    7  O   UNL     1     -11.305   6.366  68.924  1.00  0.00    -0.528 OA 
HETATM    8  H   UNL     1     -12.140   6.001  68.653  1.00  0.00     0.000 HD 
HETATM    9  C   UNL     1     -12.445   7.396  72.200  1.00  0.00    -0.177 C  
HETATM   10  H   UNL     1     -11.093  10.494  72.105  1.00  0.00     0.000 HD 
HETATM   11  C   UNL     1     -11.176   8.039  72.784  1.00  0.00    -0.382 C  
HETATM   12  C   UNL     1     -10.328   8.738  71.706  1.00  0.00    -0.343 C  
HETATM   13  H   UNL     1      -9.615   7.438  73.819  1.00  0.00     0.000 HD 
HETATM   14  O   UNL     1     -10.399   7.041  73.458  1.00  0.00    -0.284 OA 
HETATM   15  O   UNL     1     -10.968   9.965  71.326  1.00  0.00    -0.320 OA 
ENDROOT
BRANCH   9  16
HETATM   16  C   UNL     1     -13.561   8.409  71.897  1.00  0.00    -0.379 C  
HETATM   17  O   UNL     1     -14.335   8.654  73.071  1.00  0.00    -1.043 OA 
HETATM   18  H   UNL     1     -15.024   9.280  72.884  1.00  0.00     0.000 HD 
ENDBRANCH   9  16
TORSDOF 1
ENDMDL
MODEL       51
REMARK 921   NORMALIZED FREE ENERGY PREDICTED BY IDOCK:   -4.04 KCAL/MOL
REMARK 922        TOTAL FREE ENERGY PREDICTED BY IDOCK:   -4.30 KCAL/MOL
REMARK 923 INTER-LIGAND FREE ENERGY PREDICTED BY IDOCK:   -4.03 KCAL/MOL
REMARK 924 INTRA-LIGAND FREE ENERGY PREDICTED BY IDOCK:   -0.27 KCAL/MOL
REMARK 927      BINDING AFFINITY PREDICTED BY RF-SCORE:    0.00 PKD
ROOT
HETATM    1  N   UNL     1     -12.198  12.590  66.555  1.00  0.00    -0.531 NA 
HETATM    2  H1  UNL     1     -12.432  12.092  65.696  1.00  0.00     0.000 HD 
HETATM    3  C   UNL     1     -12.065  14.054  66.343  1.00  0.00    -0.455 C  
HETATM    4  H2  UNL     1     -12.870  12.386  67.294  1.00  0.00     0.000 HD 
HETATM    5  C   UNL     1     -11.708  14.812  67.648  1.00  0.00    -0.341 C  
HETATM    6  O   UNL     1     -10.365  14.564  68.053  1.00  0.00    -0.225 OA 
HETATM    7  O   UNL     1     -12.555  14.398  68.713  1.00  0.00    -0.548 OA 
HETATM    8  H   UNL     1     -12.336  14.862  69.512  1.00  0.00     0.000 HD 
HETATM    9  C   UNL     1      -9.371  14.999  67.102  1.00  0.00    -0.215 C  
HETATM   10  H   UNL     1     -10.641  15.940  64.112  1.00  0.00     0.000 HD 
HETATM   11  C   UNL     1      -9.571  14.302  65.745  1.00  0.00    -0.155 C  
HETATM   12  C   UNL     1     -11.026  14.396  65.251  1.00  0.00    -0.350 C  
HETATM   13  H   UNL     1      -9.292  12.499  65.010  1.00  0.00     0.000 HD 
HETATM   14  O   UNL     1      -9.168  12.930  65.847  1.00  0.00    -0.041 OA 
HETATM   15  O   UNL     1     -11.279  15.729  64.784  1.00  0.00    -0.427 OA 
ENDROOT
BRANCH   9  16
HETATM   16  C   UNL     1      -9.297  16.531  66.997  1.00  0.00    -0.230 C  
HETATM   17  O   UNL     1      -8.723  16.911  65.747  1.00  0.00    -0.512 OA 
HETATM   18  H   UNL     1      -8.678  17.858  65.682  1.00  0.00     0.000 HD 
ENDBRANCH   9  16
TORSDOF 1
ENDMDL
MODEL       52
REMARK 921   NORMALIZED FREE ENERGY PREDICTED BY IDOCK:   -4.04 KCAL/MOL
REMARK 922        TOTAL FREE ENERGY PREDICTED BY IDOCK:   -4.30 KCAL/MOL
REMARK 923 INTER-LIGAND FREE ENERGY PREDICTED BY IDOCK:   -4.32 KCAL/MOL
REMARK 924 INTRA-LIGAND FREE ENERGY PREDICTED BY IDOCK:    0.02 KCAL/MOL
REMARK 927      BINDING AFFINITY PREDICTED BY RF-SCORE:    0.00 PKD
ROOT
HETATM    1  N   UNL     1      -9.967  13.723  64.371  1.00  0.00    -0.728 NA 
HETATM    2  H1  UNL     1      -9.421  12.926  64.043  1.00  0.00     0.000 HD 
HETATM    3  C   UNL     1      -9.554  14.173  65.725  1.00  0.00    -0.133 C  
HETATM    4  H2  UNL     1      -9.934  14.492  63.702  1.00  0.00     0.000 HD 
HETATM    5  C   UNL     1     -10.383  15.384  66.225  1.00  0.00    -0.294 C  
HETATM    6  O   UNL     1     -11.718  15.011  66.556  1.00  0.00    -0.266 OA 
HETATM    7  O   UNL     1     -10.462  16.386  65.218  1.00  0.00    -0.572 OA 
HETATM    8  H   UNL     1     -10.970  17.127  65.524  1.00  0.00     0.000 HD 
HETATM    9  C   UNL     1     -11.813  14.045  67.624  1.00  0.00    -0.395 C  
HETATM   10  H   UNL     1      -8.850  12.693  68.531  1.00  0.00     0.000 HD 
HETATM   11  C   UNL     1     -11.058  12.754  67.262  1.00  0.00    -0.276 C  
HETATM   12  C   UNL     1      -9.627  13.035  66.769  1.00  0.00    -0.248 C  
HETATM   13  H   UNL     1     -11.328  11.235  66.043  1.00  0.00     0.000 HD 
HETATM   14  O   UNL     1     -11.795  12.031  66.267  1.00  0.00    -0.563 OA 
HETATM   15  O   UNL     1      -8.804  13.393  67.889  1.00  0.00    -0.174 OA 
ENDROOT
BRANCH   9  16
HETATM   16  C   UNL     1     -11.399  14.635  68.981  1.00  0.00    -0.277 C  
HETATM   17  O   UNL     1     -11.905  15.962  69.115  1.00  0.00    -0.389 OA 
HETATM   18  H   UNL     1     -11.650  16.327  69.954  1.00  0.00     0.000 HD 
ENDBRANCH   9  16
TORSDOF 1
ENDMDL
MODEL       53
REMARK 921   NORMALIZED FREE ENERGY PREDICTED BY IDOCK:   -4.03 KCAL/MOL
REMARK 922        TOTAL FREE ENERGY PREDICTED BY IDOCK:   -4.29 KCAL/MOL
REMARK 923 INTER-LIGAND FREE ENERGY PREDICTED BY IDOCK:   -4.24 KCAL/MOL
REMARK 924 INTRA-LIGAND FREE ENERGY PREDICTED BY IDOCK:   -0.05 KCAL/MOL
REMARK 927      BINDING AFFINITY PREDICTED BY RF-SCORE:    0.00 PKD
ROOT
HETATM    1  N   UNL     1      -8.850   6.536  71.948  1.00  0.00    -0.134 NA 
HETATM    2  H1  UNL     1      -8.278   6.322  71.131  1.00  0.00     0.000 HD 
HETATM    3  C   UNL     1     -10.301   6.355  71.688  1.00  0.00    -0.205 C  
HETATM    4  H2  UNL     1      -8.552   5.993  72.758  1.00  0.00     0.000 HD 
HETATM    5  C   UNL     1     -11.171   6.681  72.930  1.00  0.00    -0.191 C  
HETATM    6  O   UNL     1     -11.207   8.080  73.199  1.00  0.00    -0.336 OA 
HETATM    7  O   UNL     1     -10.648   6.041  74.088  1.00  0.00    -0.334 OA 
HETATM    8  H   UNL     1     -11.180   6.241  74.848  1.00  0.00     0.000 HD 
HETATM    9  C   UNL     1     -11.784   8.870  72.138  1.00  0.00    -0.341 C  
HETATM   10  H   UNL     1     -12.327   7.153  69.276  1.00  0.00     0.000 HD 
HETATM   11  C   UNL     1     -11.002   8.680  70.827  1.00  0.00    -0.245 C  
HETATM   12  C   UNL     1     -10.790   7.194  70.485  1.00  0.00    -0.246 C  
HETATM   13  H   UNL     1      -9.258   9.237  70.110  1.00  0.00     0.000 HD 
HETATM   14  O   UNL     1      -9.741   9.355  70.920  1.00  0.00    -0.272 OA 
HETATM   15  O   UNL     1     -12.027   6.638  70.015  1.00  0.00    -0.340 OA 
ENDROOT
BRANCH   9  16
HETATM   16  C   UNL     1     -13.295   8.628  71.989  1.00  0.00    -0.392 C  
HETATM   17  O   UNL     1     -13.956   8.873  73.230  1.00  0.00    -1.203 OA 
HETATM   18  H   UNL     1     -14.890   8.724  73.138  1.00  0.00     0.000 HD 
ENDBRANCH   9  16
TORSDOF 1
ENDMDL
MODEL       54
REMARK 921   NORMALIZED FREE ENERGY PREDICTED BY IDOCK:   -3.99 KCAL/MOL
REMARK 922        TOTAL FREE ENERGY PREDICTED BY IDOCK:   -4.25 KCAL/MOL
REMARK 923 INTER-LIGAND FREE ENERGY PREDICTED BY IDOCK:   -3.98 KCAL/MOL
REMARK 924 INTRA-LIGAND FREE ENERGY PREDICTED BY IDOCK:   -0.27 KCAL/MOL
REMARK 927      BINDING AFFINITY PREDICTED BY RF-SCORE:    0.00 PKD
ROOT
HETATM    1  N   UNL     1      -7.816  19.674  67.920  1.00  0.00    -0.292 NA 
HETATM    2  H1  UNL     1      -6.802  19.652  68.022  1.00  0.00     0.000 HD 
HETATM    3  C   UNL     1      -8.481  18.549  68.628  1.00  0.00    -0.299 C  
HETATM    4  H2  UNL     1      -8.197  20.571  68.219  1.00  0.00     0.000 HD 
HETATM    5  C   UNL     1     -10.024  18.582  68.474  1.00  0.00    -0.384 C  
HETATM    6  O   UNL     1     -10.431  18.232  67.153  1.00  0.00    -0.379 OA 
HETATM    7  O   UNL     1     -10.525  19.885  68.740  1.00  0.00    -0.561 OA 
HETATM    8  H   UNL     1     -11.470  19.905  68.645  1.00  0.00     0.000 HD 
HETATM    9  C   UNL     1     -10.058  16.897  66.754  1.00  0.00    -0.294 C  
HETATM   10  H   UNL     1      -7.944  15.356  68.896  1.00  0.00     0.000 HD 
HETATM   11  C   UNL     1      -8.531  16.713  66.821  1.00  0.00    -0.235 C  
HETATM   12  C   UNL     1      -7.949  17.172  68.170  1.00  0.00    -0.216 C  
HETATM   13  H   UNL     1      -6.973  17.314  65.785  1.00  0.00     0.000 HD 
HETATM   14  O   UNL     1      -7.915  17.427  65.743  1.00  0.00    -0.538 OA 
HETATM   15  O   UNL     1      -8.271  16.202  69.178  1.00  0.00    -0.233 OA 
ENDROOT
BRANCH   9  16
HETATM   16  C   UNL     1     -10.838  15.820  67.525  1.00  0.00    -0.315 C  
HETATM   17  O   UNL     1     -10.180  14.559  67.410  1.00  0.00    -0.239 OA 
HETATM   18  H   UNL     1     -10.662  13.894  67.886  1.00  0.00     0.000 HD 
ENDBRANCH   9  16
TORSDOF 1
ENDMDL
MODEL       55
REMARK 921   NORMALIZED FREE ENERGY PREDICTED BY IDOCK:   -3.99 KCAL/MOL
REMARK 922        TOTAL FREE ENERGY PREDICTED BY IDOCK:   -4.25 KCAL/MOL
REMARK 923 INTER-LIGAND FREE ENERGY PREDICTED BY IDOCK:   -3.98 KCAL/MOL
REMARK 924 INTRA-LIGAND FREE ENERGY PREDICTED BY IDOCK:   -0.27 KCAL/MOL
REMARK 927      BINDING AFFINITY PREDICTED BY RF-SCORE:    0.00 PKD
ROOT
HETATM    1  N   UNL     1     -10.261  10.945  66.115  1.00  0.00    -0.242 NA 
HETATM    2  H1  UNL     1     -10.003  11.110  65.142  1.00  0.00     0.000 HD 
HETATM    3  C   UNL     1     -11.436  11.752  66.534  1.00  0.00    -0.255 C  
HETATM    4  H2  UNL     1     -10.415   9.953  66.292  1.00  0.00     0.000 HD 
HETATM    5  C   UNL     1     -11.829  11.502  68.013  1.00  0.00    -0.217 C  
HETATM    6  O   UNL     1     -10.885  12.073  68.915  1.00  0.00    -0.220 OA 
HETATM    7  O   UNL     1     -11.885  10.107  68.287  1.00  0.00    -0.697 OA 
HETATM    8  H   UNL     1     -12.126   9.955  69.193  1.00  0.00     0.000 HD 
HETATM    9  C   UNL     1     -10.764  13.508  68.813  1.00  0.00    -0.238 C  
HETATM   10  H   UNL     1     -12.366  14.841  66.150  1.00  0.00     0.000 HD 
HETATM   11  C   UNL     1     -10.341  13.920  67.392  1.00  0.00    -0.252 C  
HETATM   12  C   UNL     1     -11.219  13.265  66.310  1.00  0.00    -0.299 C  
HETATM   13  H   UNL     1      -8.702  13.838  66.309  1.00  0.00     0.000 HD 
HETATM   14  O   UNL     1      -8.963  13.584  67.186  1.00  0.00    -0.210 OA 
HETATM   15  O   UNL     1     -12.500  13.911  66.288  1.00  0.00    -0.453 OA 
ENDROOT
BRANCH   9  16
HETATM   16  C   UNL     1     -12.024  14.235  69.311  1.00  0.00    -0.335 C  
HETATM   17  O   UNL     1     -12.070  15.557  68.778  1.00  0.00    -0.558 OA 
HETATM   18  H   UNL     1     -12.849  16.007  69.085  1.00  0.00     0.000 HD 
ENDBRANCH   9  16
TORSDOF 1
ENDMDL
MODEL       56
REMARK 921   NORMALIZED FREE ENERGY PREDICTED BY IDOCK:   -3.97 KCAL/MOL
REMARK 922        TOTAL FREE ENERGY PREDICTED BY IDOCK:   -4.23 KCAL/MOL
REMARK 923 INTER-LIGAND FREE ENERGY PREDICTED BY IDOCK:   -3.96 KCAL/MOL
REMARK 924 INTRA-LIGAND FREE ENERGY PREDICTED BY IDOCK:   -0.27 KCAL/MOL
REMARK 927      BINDING AFFINITY PREDICTED BY RF-SCORE:    0.00 PKD
ROOT
HETATM    1  N   UNL     1      -9.683   5.753  71.882  1.00  0.00    -0.158 NA 
HETATM    2  H1  UNL     1      -9.718   4.948  71.256  1.00  0.00     0.000 HD 
HETATM    3  C   UNL     1     -11.027   6.337  72.128  1.00  0.00    -0.257 C  
HETATM    4  H2  UNL     1      -9.218   5.518  72.758  1.00  0.00     0.000 HD 
HETATM    5  C   UNL     1     -10.975   7.561  73.078  1.00  0.00    -0.390 C  
HETATM    6  O   UNL     1     -10.395   8.699  72.445  1.00  0.00    -0.319 OA 
HETATM    7  O   UNL     1     -10.188   7.270  74.227  1.00  0.00    -0.423 OA 
HETATM    8  H   UNL     1     -10.156   8.020  74.808  1.00  0.00     0.000 HD 
HETATM    9  C   UNL     1     -11.126   9.169  71.292  1.00  0.00    -0.335 C  
HETATM   10  H   UNL     1     -13.589   7.087  70.276  1.00  0.00     0.000 HD 
HETATM   11  C   UNL     1     -11.236   8.064  70.227  1.00  0.00    -0.190 C  
HETATM   12  C   UNL     1     -11.743   6.735  70.817  1.00  0.00    -0.386 C  
HETATM   13  H   UNL     1     -10.030   7.193  68.941  1.00  0.00     0.000 HD 
HETATM   14  O   UNL     1      -9.962   7.876  69.599  1.00  0.00    -0.184 OA 
HETATM   15  O   UNL     1     -13.149   6.843  71.082  1.00  0.00    -0.311 OA 
ENDROOT
BRANCH   9  16
HETATM   16  C   UNL     1     -12.480   9.787  71.674  1.00  0.00    -0.410 C  
HETATM   17  O   UNL     1     -13.359   9.777  70.551  1.00  0.00    -0.599 OA 
HETATM   18  H   UNL     1     -14.196  10.159  70.787  1.00  0.00     0.000 HD 
ENDBRANCH   9  16
TORSDOF 1
ENDMDL
MODEL       57
REMARK 921   NORMALIZED FREE ENERGY PREDICTED BY IDOCK:   -3.94 KCAL/MOL
REMARK 922        TOTAL FREE ENERGY PREDICTED BY IDOCK:   -4.19 KCAL/MOL
REMARK 923 INTER-LIGAND FREE ENERGY PREDICTED BY IDOCK:   -4.20 KCAL/MOL
REMARK 924 INTRA-LIGAND FREE ENERGY PREDICTED BY IDOCK:    0.00 KCAL/MOL
REMARK 927      BINDING AFFINITY PREDICTED BY RF-SCORE:    0.00 PKD
ROOT
HETATM    1  N   UNL     1     -10.206  18.953  67.226  1.00  0.00    -0.366 NA 
HETATM    2  H1  UNL     1     -10.306  19.417  68.129  1.00  0.00     0.000 HD 
HETATM    3  C   UNL     1     -10.898  17.639  67.185  1.00  0.00    -0.101 C  
HETATM    4  H2  UNL     1     -10.518  19.556  66.465  1.00  0.00     0.000 HD 
HETATM    5  C   UNL     1     -10.747  16.932  65.813  1.00  0.00    -0.160 C  
HETATM    6  O   UNL     1      -9.422  16.447  65.611  1.00  0.00    -0.486 OA 
HETATM    7  O   UNL     1     -11.033  17.834  64.752  1.00  0.00    -0.855 OA 
HETATM    8  H   UNL     1     -10.940  17.401  63.912  1.00  0.00     0.000 HD 
HETATM    9  C   UNL     1      -9.003  15.457  66.574  1.00  0.00    -0.309 C  
HETATM   10  H   UNL     1     -11.119  15.087  69.185  1.00  0.00     0.000 HD 
HETATM   11  C   UNL     1      -9.065  16.024  68.003  1.00  0.00    -0.189 C  
HETATM   12  C   UNL     1     -10.420  16.689  68.307  1.00  0.00    -0.321 C  
HETATM   13  H   UNL     1      -8.035  17.309  69.077  1.00  0.00     0.000 HD 
HETATM   14  O   UNL     1      -7.997  16.959  68.195  1.00  0.00    -0.183 OA 
HETATM   15  O   UNL     1     -11.413  15.671  68.496  1.00  0.00    -0.344 OA 
ENDROOT
BRANCH   9  16
HETATM   16  C   UNL     1      -9.759  14.128  66.410  1.00  0.00    -0.298 C  
HETATM   17  O   UNL     1      -9.874  13.797  65.027  1.00  0.00    -0.586 OA 
HETATM   18  H   UNL     1     -10.341  12.976  64.925  1.00  0.00     0.000 HD 
ENDBRANCH   9  16
TORSDOF 1
ENDMDL
MODEL       58
REMARK 921   NORMALIZED FREE ENERGY PREDICTED BY IDOCK:   -3.93 KCAL/MOL
REMARK 922        TOTAL FREE ENERGY PREDICTED BY IDOCK:   -4.19 KCAL/MOL
REMARK 923 INTER-LIGAND FREE ENERGY PREDICTED BY IDOCK:   -3.91 KCAL/MOL
REMARK 924 INTRA-LIGAND FREE ENERGY PREDICTED BY IDOCK:   -0.27 KCAL/MOL
REMARK 927      BINDING AFFINITY PREDICTED BY RF-SCORE:    0.00 PKD
ROOT
HETATM    1  N   UNL     1     -11.348   9.364  69.312  1.00  0.00    -0.440 NA 
HETATM    2  H1  UNL     1     -11.901   9.128  68.488  1.00  0.00     0.000 HD 
HETATM    3  C   UNL     1     -10.665   8.180  69.893  1.00  0.00    -0.241 C  
HETATM    4  H2  UNL     1     -10.683  10.109  69.107  1.00  0.00     0.000 HD 
HETATM    5  C   UNL     1      -9.825   8.538  71.147  1.00  0.00    -0.206 C  
HETATM    6  O   UNL     1     -10.650   8.841  72.268  1.00  0.00    -0.337 OA 
HETATM    7  O   UNL     1      -9.015   9.680  70.896  1.00  0.00    -0.319 OA 
HETATM    8  H   UNL     1      -8.501   9.899  71.664  1.00  0.00     0.000 HD 
HETATM    9  C   UNL     1     -11.489   7.747  72.697  1.00  0.00    -0.375 C  
HETATM   10  H   UNL     1     -11.529   5.121  70.568  1.00  0.00     0.000 HD 
HETATM   11  C   UNL     1     -12.419   7.293  71.559  1.00  0.00    -0.373 C  
HETATM   12  C   UNL     1     -11.655   7.046  70.246  1.00  0.00    -0.262 C  
HETATM   13  H   UNL     1     -14.021   7.991  70.658  1.00  0.00     0.000 HD 
HETATM   14  O   UNL     1     -13.447   8.271  71.361  1.00  0.00    -0.294 OA 
HETATM   15  O   UNL     1     -10.920   5.818  70.351  1.00  0.00    -0.298 OA 
ENDROOT
BRANCH   9  16
HETATM   16  C   UNL     1     -10.675   6.599  73.318  1.00  0.00    -0.287 C  
HETATM   17  O   UNL     1     -11.441   5.396  73.311  1.00  0.00    -0.480 OA 
HETATM   18  H   UNL     1     -10.939   4.686  73.694  1.00  0.00     0.000 HD 
ENDBRANCH   9  16
TORSDOF 1
ENDMDL
MODEL       59
REMARK 921   NORMALIZED FREE ENERGY PREDICTED BY IDOCK:   -3.93 KCAL/MOL
REMARK 922        TOTAL FREE ENERGY PREDICTED BY IDOCK:   -4.18 KCAL/MOL
REMARK 923 INTER-LIGAND FREE ENERGY PREDICTED BY IDOCK:   -4.13 KCAL/MOL
REMARK 924 INTRA-LIGAND FREE ENERGY PREDICTED BY IDOCK:   -0.05 KCAL/MOL
REMARK 927      BINDING AFFINITY PREDICTED BY RF-SCORE:    0.00 PKD
ROOT
HETATM    1  N   UNL     1      -8.910  14.382  68.987  1.00  0.00    -0.369 NA 
HETATM    2  H1  UNL     1      -8.555  14.690  69.892  1.00  0.00     0.000 HD 
HETATM    3  C   UNL     1      -8.557  15.319  67.890  1.00  0.00    -0.152 C  
HETATM    4  H2  UNL     1      -8.601  13.434  68.774  1.00  0.00     0.000 HD 
HETATM    5  C   UNL     1      -9.097  14.851  66.514  1.00  0.00    -0.277 C  
HETATM    6  O   UNL     1     -10.512  14.993  66.425  1.00  0.00    -0.279 OA 
HETATM    7  O   UNL     1      -8.795  13.478  66.299  1.00  0.00    -0.452 OA 
HETATM    8  H   UNL     1      -9.126  13.192  65.456  1.00  0.00     0.000 HD 
HETATM    9  C   UNL     1     -10.979  16.353  66.551  1.00  0.00     0.037 C  
HETATM   10  H   UNL     1      -8.593  18.546  67.515  1.00  0.00     0.000 HD 
HETATM   11  C   UNL     1     -10.546  16.956  67.899  1.00  0.00    -0.361 C  
HETATM   12  C   UNL     1      -9.043  16.759  68.169  1.00  0.00    -0.227 C  
HETATM   13  H   UNL     1     -11.055  16.748  69.787  1.00  0.00     0.000 HD 
HETATM   14  O   UNL     1     -11.322  16.376  68.955  1.00  0.00    -0.332 OA 
HETATM   15  O   UNL     1      -8.293  17.661  67.343  1.00  0.00    -0.207 OA 
ENDROOT
BRANCH   9  16
HETATM   16  C   UNL     1     -10.587  17.216  65.341  1.00  0.00    -0.104 C  
HETATM   17  O   UNL     1     -11.167  16.685  64.151  1.00  0.00    -1.410 OA 
HETATM   18  H   UNL     1     -10.926  17.219  63.403  1.00  0.00     0.000 HD 
ENDBRANCH   9  16
TORSDOF 1
ENDMDL
MODEL       60
REMARK 921   NORMALIZED FREE ENERGY PREDICTED BY IDOCK:   -3.93 KCAL/MOL
REMARK 922        TOTAL FREE ENERGY PREDICTED BY IDOCK:   -4.18 KCAL/MOL
REMARK 923 INTER-LIGAND FREE ENERGY PREDICTED BY IDOCK:   -3.91 KCAL/MOL
REMARK 924 INTRA-LIGAND FREE ENERGY PREDICTED BY IDOCK:   -0.27 KCAL/MOL
REMARK 927      BINDING AFFINITY PREDICTED BY RF-SCORE:    0.00 PKD
ROOT
HETATM    1  N   UNL     1      -9.636  14.502  65.416  1.00  0.00    -0.516 NA 
HETATM    2  H1  UNL     1     -10.114  14.694  64.536  1.00  0.00     0.000 HD 
HETATM    3  C   UNL     1      -9.736  13.074  65.816  1.00  0.00    -0.145 C  
HETATM    4  H2  UNL     1      -8.663  14.805  65.380  1.00  0.00     0.000 HD 
HETATM    5  C   UNL     1      -9.009  12.781  67.153  1.00  0.00    -0.214 C  
HETATM    6  O   UNL     1      -9.707  13.331  68.267  1.00  0.00    -0.222 OA 
HETATM    7  O   UNL     1      -7.705  13.350  67.149  1.00  0.00    -0.333 OA 
HETATM    8  H   UNL     1      -7.260  13.170  67.968  1.00  0.00     0.000 HD 
HETATM    9  C   UNL     1     -11.034  12.797  68.455  1.00  0.00    -0.254 C  
HETATM   10  H   UNL     1     -12.119  10.866  65.899  1.00  0.00     0.000 HD 
HETATM   11  C   UNL     1     -11.903  13.041  67.208  1.00  0.00    -0.363 C  
HETATM   12  C   UNL     1     -11.202  12.594  65.913  1.00  0.00    -0.314 C  
HETATM   13  H   UNL     1     -12.788  14.581  66.363  1.00  0.00     0.000 HD 
HETATM   14  O   UNL     1     -12.252  14.429  67.133  1.00  0.00    -0.390 OA 
HETATM   15  O   UNL     1     -11.217  11.161  65.839  1.00  0.00    -0.119 OA 
ENDROOT
BRANCH   9  16
HETATM   16  C   UNL     1     -11.011  11.327  68.905  1.00  0.00    -0.223 C  
HETATM   17  O   UNL     1     -12.247  10.693  68.578  1.00  0.00    -0.822 OA 
HETATM   18  H   UNL     1     -12.232   9.785  68.856  1.00  0.00     0.000 HD 
ENDBRANCH   9  16
TORSDOF 1
ENDMDL
MODEL       61
REMARK 921   NORMALIZED FREE ENERGY PREDICTED BY IDOCK:   -3.86 KCAL/MOL
REMARK 922        TOTAL FREE ENERGY PREDICTED BY IDOCK:   -4.12 KCAL/MOL
REMARK 923 INTER-LIGAND FREE ENERGY PREDICTED BY IDOCK:   -3.85 KCAL/MOL
REMARK 924 INTRA-LIGAND FREE ENERGY PREDICTED BY IDOCK:   -0.26 KCAL/MOL
REMARK 927      BINDING AFFINITY PREDICTED BY RF-SCORE:    0.00 PKD
ROOT
HETATM    1  N   UNL     1     -11.508  15.875  64.414  1.00  0.00    -0.699 NA 
HETATM    2  H1  UNL     1     -11.992  15.367  63.673  1.00  0.00     0.000 HD 
HETATM    3  C   UNL     1     -10.344  15.123  64.950  1.00  0.00    -0.259 C  
HETATM    4  H2  UNL     1     -11.232  16.806  64.102  1.00  0.00     0.000 HD 
HETATM    5  C   UNL     1      -9.609  15.895  66.076  1.00  0.00    -0.350 C  
HETATM    6  O   UNL     1     -10.373  15.930  67.279  1.00  0.00    -0.279 OA 
HETATM    7  O   UNL     1      -9.371  17.241  65.687  1.00  0.00    -0.506 OA 
HETATM    8  H   UNL     1      -8.921  17.714  66.377  1.00  0.00     0.000 HD 
HETATM    9  C   UNL     1     -10.640  14.631  67.848  1.00  0.00    -0.244 C  
HETATM   10  H   UNL     1      -9.799  12.045  65.837  1.00  0.00     0.000 HD 
HETATM   11  C   UNL     1     -11.405  13.744  66.850  1.00  0.00    -0.328 C  
HETATM   12  C   UNL     1     -10.739  13.719  65.463  1.00  0.00    -0.302 C  
HETATM   13  H   UNL     1     -13.232  13.655  66.128  1.00  0.00     0.000 HD 
HETATM   14  O   UNL     1     -12.759  14.202  66.744  1.00  0.00    -0.178 OA 
HETATM   15  O   UNL     1      -9.556  12.908  65.522  1.00  0.00    -0.127 OA 
ENDROOT
BRANCH   9  16
HETATM   16  C   UNL     1      -9.369  13.968  68.405  1.00  0.00    -0.210 C  
HETATM   17  O   UNL     1      -9.591  12.573  68.606  1.00  0.00    -0.370 OA 
HETATM   18  H   UNL     1      -8.806  12.163  68.950  1.00  0.00     0.000 HD 
ENDBRANCH   9  16
TORSDOF 1
ENDMDL
MODEL       62
REMARK 921   NORMALIZED FREE ENERGY PREDICTED BY IDOCK:   -3.84 KCAL/MOL
REMARK 922        TOTAL FREE ENERGY PREDICTED BY IDOCK:   -4.09 KCAL/MOL
REMARK 923 INTER-LIGAND FREE ENERGY PREDICTED BY IDOCK:   -4.04 KCAL/MOL
REMARK 924 INTRA-LIGAND FREE ENERGY PREDICTED BY IDOCK:   -0.05 KCAL/MOL
REMARK 927      BINDING AFFINITY PREDICTED BY RF-SCORE:    0.00 PKD
ROOT
HETATM    1  N   UNL     1     -10.512  18.358  66.837  1.00  0.00    -0.392 NA 
HETATM    2  H1  UNL     1     -10.821  17.521  66.342  1.00  0.00     0.000 HD 
HETATM    3  C   UNL     1      -9.200  18.852  66.347  1.00  0.00    -0.313 C  
HETATM    4  H2  UNL     1     -11.220  19.091  66.797  1.00  0.00     0.000 HD 
HETATM    5  C   UNL     1      -8.729  20.125  67.099  1.00  0.00    -0.344 C  
HETATM    6  O   UNL     1      -8.327  19.832  68.434  1.00  0.00    -0.319 OA 
HETATM    7  O   UNL     1      -9.781  21.079  67.173  1.00  0.00    -0.669 OA 
HETATM    8  H   UNL     1      -9.493  21.858  67.634  1.00  0.00     0.000 HD 
HETATM    9  C   UNL     1      -7.209  18.924  68.529  1.00  0.00    -0.290 C  
HETATM   10  H   UNL     1      -6.353  17.478  65.595  1.00  0.00     0.000 HD 
HETATM   11  C   UNL     1      -7.536  17.583  67.849  1.00  0.00    -0.205 C  
HETATM   12  C   UNL     1      -8.098  17.772  66.429  1.00  0.00    -0.261 C  
HETATM   13  H   UNL     1      -8.665  16.021  68.239  1.00  0.00     0.000 HD 
HETATM   14  O   UNL     1      -8.463  16.849  68.659  1.00  0.00    -0.243 OA 
HETATM   15  O   UNL     1      -7.031  18.143  65.544  1.00  0.00    -0.495 OA 
ENDROOT
BRANCH   9  16
HETATM   16  C   UNL     1      -5.900  19.559  68.032  1.00  0.00    -0.209 C  
HETATM   17  O   UNL     1      -5.593  20.719  68.804  1.00  0.00    -0.298 OA 
HETATM   18  H   UNL     1      -4.784  21.111  68.497  1.00  0.00     0.000 HD 
ENDBRANCH   9  16
TORSDOF 1
ENDMDL
MODEL       63
REMARK 921   NORMALIZED FREE ENERGY PREDICTED BY IDOCK:   -3.84 KCAL/MOL
REMARK 922        TOTAL FREE ENERGY PREDICTED BY IDOCK:   -4.09 KCAL/MOL
REMARK 923 INTER-LIGAND FREE ENERGY PREDICTED BY IDOCK:   -4.04 KCAL/MOL
REMARK 924 INTRA-LIGAND FREE ENERGY PREDICTED BY IDOCK:   -0.05 KCAL/MOL
REMARK 927      BINDING AFFINITY PREDICTED BY RF-SCORE:    0.00 PKD
ROOT
HETATM    1  N   UNL     1      -9.838  20.467  65.871  1.00  0.00    -0.623 NA 
HETATM    2  H1  UNL     1     -10.755  20.115  65.595  1.00  0.00     0.000 HD 
HETATM    3  C   UNL     1      -8.861  19.373  66.111  1.00  0.00    -0.283 C  
HETATM    4  H2  UNL     1      -9.480  21.136  65.191  1.00  0.00     0.000 HD 
HETATM    5  C   UNL     1      -7.467  19.907  66.531  1.00  0.00    -0.275 C  
HETATM    6  O   UNL     1      -7.479  20.433  67.855  1.00  0.00    -0.284 OA 
HETATM    7  O   UNL     1      -7.050  20.954  65.663  1.00  0.00    -0.498 OA 
HETATM    8  H   UNL     1      -6.196  21.280  65.921  1.00  0.00     0.000 HD 
HETATM    9  C   UNL     1      -7.815  19.466  68.872  1.00  0.00    -0.335 C  
HETATM   10  H   UNL     1      -8.932  16.516  67.655  1.00  0.00     0.000 HD 
HETATM   11  C   UNL     1      -9.206  18.861  68.612  1.00  0.00    -0.356 C  
HETATM   12  C   UNL     1      -9.361  18.360  67.164  1.00  0.00    -0.271 C  
HETATM   13  H   UNL     1     -11.074  19.460  68.752  1.00  0.00     0.000 HD 
HETATM   14  O   UNL     1     -10.215  19.833  68.913  1.00  0.00    -0.443 OA 
HETATM   15  O   UNL     1      -8.624  17.139  67.007  1.00  0.00    -0.204 OA 
ENDROOT
BRANCH   9  16
HETATM   16  C   UNL     1      -6.714  18.410  69.057  1.00  0.00    -0.267 C  
HETATM   17  O   UNL     1      -5.624  18.961  69.795  1.00  0.00    -0.206 OA 
HETATM   18  H   UNL     1      -4.943  18.309  69.910  1.00  0.00     0.000 HD 
ENDBRANCH   9  16
TORSDOF 1
ENDMDL
MODEL       64
REMARK 921   NORMALIZED FREE ENERGY PREDICTED BY IDOCK:   -3.81 KCAL/MOL
REMARK 922        TOTAL FREE ENERGY PREDICTED BY IDOCK:   -4.06 KCAL/MOL
REMARK 923 INTER-LIGAND FREE ENERGY PREDICTED BY IDOCK:   -3.82 KCAL/MOL
REMARK 924 INTRA-LIGAND FREE ENERGY PREDICTED BY IDOCK:   -0.24 KCAL/MOL
REMARK 927      BINDING AFFINITY PREDICTED BY RF-SCORE:    0.00 PKD
ROOT
HETATM    1  N   UNL     1      -7.609  19.550  69.313  1.00  0.00    -0.291 NA 
HETATM    2  H1  UNL     1      -6.713  19.063  69.290  1.00  0.00     0.000 HD 
HETATM    3  C   UNL     1      -8.713  18.729  68.752  1.00  0.00    -0.276 C  
HETATM    4  H2  UNL     1      -7.831  19.870  70.255  1.00  0.00     0.000 HD 
HETATM    5  C   UNL     1     -10.076  19.468  68.786  1.00  0.00    -0.430 C  
HETATM    6  O   UNL     1     -10.130  20.522  67.828  1.00  0.00    -0.372 OA 
HETATM    7  O   UNL     1     -10.300  20.047  70.065  1.00  0.00    -0.614 OA 
HETATM    8  H   UNL     1     -11.135  20.499  70.085  1.00  0.00     0.000 HD 
HETATM    9  C   UNL     1      -9.991  20.085  66.460  1.00  0.00    -0.479 C  
HETATM   10  H   UNL     1      -9.084  16.844  66.132  1.00  0.00     0.000 HD 
HETATM   11  C   UNL     1      -8.653  19.352  66.254  1.00  0.00    -0.345 C  
HETATM   12  C   UNL     1      -8.420  18.257  67.310  1.00  0.00    -0.250 C  
HETATM   13  H   UNL     1      -6.754  19.849  66.147  1.00  0.00     0.000 HD 
HETATM   14  O   UNL     1      -7.579  20.301  66.274  1.00  0.00    -0.273 OA 
HETATM   15  O   UNL     1      -9.264  17.134  67.018  1.00  0.00    -0.230 OA 
ENDROOT
BRANCH   9  16
HETATM   16  C   UNL     1     -11.209  19.280  65.980  1.00  0.00     0.378 C  
HETATM   17  O   UNL     1     -10.818  18.354  64.967  1.00  0.00    -0.641 OA 
HETATM   18  H   UNL     1     -11.571  17.857  64.670  1.00  0.00     0.000 HD 
ENDBRANCH   9  16
TORSDOF 1
ENDMDL
MODEL       65
REMARK 921   NORMALIZED FREE ENERGY PREDICTED BY IDOCK:   -3.79 KCAL/MOL
REMARK 922        TOTAL FREE ENERGY PREDICTED BY IDOCK:   -4.03 KCAL/MOL
REMARK 923 INTER-LIGAND FREE ENERGY PREDICTED BY IDOCK:   -3.76 KCAL/MOL
REMARK 924 INTRA-LIGAND FREE ENERGY PREDICTED BY IDOCK:   -0.27 KCAL/MOL
REMARK 927      BINDING AFFINITY PREDICTED BY RF-SCORE:    0.00 PKD
ROOT
HETATM    1  N   UNL     1     -10.826   9.123  69.212  1.00  0.00    -0.373 NA 
HETATM    2  H1  UNL     1     -10.959  10.135  69.221  1.00  0.00     0.000 HD 
HETATM    3  C   UNL     1     -11.534   8.450  70.332  1.00  0.00    -0.125 C  
HETATM    4  H2  UNL     1     -11.096   8.724  68.314  1.00  0.00     0.000 HD 
HETATM    5  C   UNL     1     -11.332   6.912  70.320  1.00  0.00    -0.324 C  
HETATM    6  O   UNL     1     -10.006   6.550  70.698  1.00  0.00    -0.183 OA 
HETATM    7  O   UNL     1     -11.558   6.388  69.017  1.00  0.00    -0.597 OA 
HETATM    8  H   UNL     1     -11.434   5.447  69.010  1.00  0.00     0.000 HD 
HETATM    9  C   UNL     1      -9.643   6.950  72.036  1.00  0.00    -0.142 C  
HETATM   10  H   UNL     1     -11.878   9.014  73.513  1.00  0.00     0.000 HD 
HETATM   11  C   UNL     1      -9.761   8.475  72.201  1.00  0.00    -0.317 C  
HETATM   12  C   UNL     1     -11.118   9.011  71.710  1.00  0.00    -0.374 C  
HETATM   13  H   UNL     1      -8.762  10.059  71.600  1.00  0.00     0.000 HD 
HETATM   14  O   UNL     1      -8.689   9.117  71.499  1.00  0.00    -0.334 OA 
HETATM   15  O   UNL     1     -12.134   8.668  72.665  1.00  0.00    -0.351 OA 
ENDROOT
BRANCH   9  16
HETATM   16  C   UNL     1     -10.410   6.158  73.108  1.00  0.00    -0.219 C  
HETATM   17  O   UNL     1     -10.353   6.842  74.358  1.00  0.00    -0.425 OA 
HETATM   18  H   UNL     1     -10.827   6.353  75.021  1.00  0.00     0.000 HD 
ENDBRANCH   9  16
TORSDOF 1
ENDMDL
MODEL       66
REMARK 921   NORMALIZED FREE ENERGY PREDICTED BY IDOCK:   -3.78 KCAL/MOL
REMARK 922        TOTAL FREE ENERGY PREDICTED BY IDOCK:   -4.03 KCAL/MOL
REMARK 923 INTER-LIGAND FREE ENERGY PREDICTED BY IDOCK:   -3.77 KCAL/MOL
REMARK 924 INTRA-LIGAND FREE ENERGY PREDICTED BY IDOCK:   -0.26 KCAL/MOL
REMARK 927      BINDING AFFINITY PREDICTED BY RF-SCORE:    0.00 PKD
ROOT
HETATM    1  N   UNL     1     -10.704  19.285  68.452  1.00  0.00    -0.351 NA 
HETATM    2  H1  UNL     1     -11.554  19.602  67.986  1.00  0.00     0.000 HD 
HETATM    3  C   UNL     1      -9.741  18.659  67.510  1.00  0.00    -0.310 C  
HETATM    4  H2  UNL     1     -10.266  20.043  68.974  1.00  0.00     0.000 HD 
HETATM    5  C   UNL     1      -8.448  18.177  68.219  1.00  0.00    -0.284 C  
HETATM    6  O   UNL     1      -8.685  17.028  69.027  1.00  0.00    -0.232 OA 
HETATM    7  O   UNL     1      -7.935  19.194  69.069  1.00  0.00    -0.328 OA 
HETATM    8  H   UNL     1      -7.144  18.899  69.503  1.00  0.00     0.000 HD 
HETATM    9  C   UNL     1      -9.145  15.873  68.293  1.00  0.00    -0.185 C  
HETATM   10  H   UNL     1      -9.959  16.518  65.075  1.00  0.00     0.000 HD 
HETATM   11  C   UNL     1     -10.457  16.184  67.552  1.00  0.00    -0.302 C  
HETATM   12  C   UNL     1     -10.366  17.482  66.728  1.00  0.00    -0.314 C  
HETATM   13  H   UNL     1     -12.342  16.459  68.037  1.00  0.00     0.000 HD 
HETATM   14  O   UNL     1     -11.532  16.267  68.495  1.00  0.00    -0.371 OA 
HETATM   15  O   UNL     1      -9.574  17.242  65.556  1.00  0.00    -0.464 OA 
ENDROOT
BRANCH   9  16
HETATM   16  C   UNL     1      -8.052  15.289  67.384  1.00  0.00    -0.182 C  
HETATM   17  O   UNL     1      -8.632  14.414  66.418  1.00  0.00    -0.443 OA 
HETATM   18  H   UNL     1      -7.957  14.053  65.856  1.00  0.00     0.000 HD 
ENDBRANCH   9  16
TORSDOF 1
ENDMDL
MODEL       67
REMARK 921   NORMALIZED FREE ENERGY PREDICTED BY IDOCK:   -3.77 KCAL/MOL
REMARK 922        TOTAL FREE ENERGY PREDICTED BY IDOCK:   -4.02 KCAL/MOL
REMARK 923 INTER-LIGAND FREE ENERGY PREDICTED BY IDOCK:   -3.99 KCAL/MOL
REMARK 924 INTRA-LIGAND FREE ENERGY PREDICTED BY IDOCK:   -0.03 KCAL/MOL
REMARK 927      BINDING AFFINITY PREDICTED BY RF-SCORE:    0.00 PKD
ROOT
HETATM    1  N   UNL     1     -10.989  15.178  67.853  1.00  0.00    -0.292 NA 
HETATM    2  H1  UNL     1     -11.369  15.154  68.799  1.00  0.00     0.000 HD 
HETATM    3  C   UNL     1      -9.516  15.373  67.839  1.00  0.00    -0.197 C  
HETATM    4  H2  UNL     1     -11.254  14.345  67.329  1.00  0.00     0.000 HD 
HETATM    5  C   UNL     1      -8.938  15.410  66.401  1.00  0.00    -0.316 C  
HETATM    6  O   UNL     1      -9.287  16.613  65.721  1.00  0.00    -0.501 OA 
HETATM    7  O   UNL     1      -9.443  14.327  65.630  1.00  0.00    -0.523 OA 
HETATM    8  H   UNL     1      -9.089  14.350  64.749  1.00  0.00     0.000 HD 
HETATM    9  C   UNL     1      -8.780  17.812  66.344  1.00  0.00    -0.228 C  
HETATM   10  H   UNL     1      -7.432  17.312  69.405  1.00  0.00     0.000 HD 
HETATM   11  C   UNL     1      -9.298  17.939  67.787  1.00  0.00    -0.262 C  
HETATM   12  C   UNL     1      -9.086  16.648  68.598  1.00  0.00    -0.245 C  
HETATM   13  H   UNL     1     -11.008  18.370  68.658  1.00  0.00     0.000 HD 
HETATM   14  O   UNL     1     -10.687  18.292  67.767  1.00  0.00    -0.411 OA 
HETATM   15  O   UNL     1      -7.697  16.528  68.938  1.00  0.00    -0.214 OA 
ENDROOT
BRANCH   9  16
HETATM   16  C   UNL     1      -7.250  17.923  66.232  1.00  0.00    -0.289 C  
HETATM   17  O   UNL     1      -6.899  18.833  65.190  1.00  0.00    -0.512 OA 
HETATM   18  H   UNL     1      -5.954  18.902  65.121  1.00  0.00     0.000 HD 
ENDBRANCH   9  16
TORSDOF 1
ENDMDL
MODEL       68
REMARK 921   NORMALIZED FREE ENERGY PREDICTED BY IDOCK:   -3.76 KCAL/MOL
REMARK 922        TOTAL FREE ENERGY PREDICTED BY IDOCK:   -4.01 KCAL/MOL
REMARK 923 INTER-LIGAND FREE ENERGY PREDICTED BY IDOCK:   -3.74 KCAL/MOL
REMARK 924 INTRA-LIGAND FREE ENERGY PREDICTED BY IDOCK:   -0.27 KCAL/MOL
REMARK 927      BINDING AFFINITY PREDICTED BY RF-SCORE:    0.00 PKD
ROOT
HETATM    1  N   UNL     1     -12.521  10.706  69.015  1.00  0.00    -0.740 NA 
HETATM    2  H1  UNL     1     -12.878  11.586  69.386  1.00  0.00     0.000 HD 
HETATM    3  C   UNL     1     -11.038  10.690  68.922  1.00  0.00    -0.261 C  
HETATM    4  H2  UNL     1     -12.863   9.913  69.557  1.00  0.00     0.000 HD 
HETATM    5  C   UNL     1     -10.495   9.352  68.358  1.00  0.00    -0.218 C  
HETATM    6  O   UNL     1     -10.766   9.215  66.966  1.00  0.00    -0.234 OA 
HETATM    7  O   UNL     1     -11.102   8.248  69.018  1.00  0.00    -0.430 OA 
HETATM    8  H   UNL     1     -10.769   7.428  68.672  1.00  0.00     0.000 HD 
HETATM    9  C   UNL     1     -10.152  10.228  66.142  1.00  0.00    -0.242 C  
HETATM   10  H   UNL     1      -8.772  12.775  67.885  1.00  0.00     0.000 HD 
HETATM   11  C   UNL     1     -10.623  11.632  66.560  1.00  0.00    -0.253 C  
HETATM   12  C   UNL     1     -10.491  11.863  68.076  1.00  0.00    -0.208 C  
HETATM   13  H   UNL     1     -12.272  12.692  66.401  1.00  0.00     0.000 HD 
HETATM   14  O   UNL     1     -11.980  11.826  66.143  1.00  0.00    -0.464 OA 
HETATM   15  O   UNL     1      -9.107  12.054  68.405  1.00  0.00    -0.188 OA 
ENDROOT
BRANCH   9  16
HETATM   16  C   UNL     1      -8.622  10.087  66.089  1.00  0.00    -0.133 C  
HETATM   17  O   UNL     1      -8.028  11.320  65.688  1.00  0.00    -0.369 OA 
HETATM   18  H   UNL     1      -7.083  11.233  65.656  1.00  0.00     0.000 HD 
ENDBRANCH   9  16
TORSDOF 1
ENDMDL
MODEL       69
REMARK 921   NORMALIZED FREE ENERGY PREDICTED BY IDOCK:   -3.72 KCAL/MOL
REMARK 922        TOTAL FREE ENERGY PREDICTED BY IDOCK:   -3.97 KCAL/MOL
REMARK 923 INTER-LIGAND FREE ENERGY PREDICTED BY IDOCK:   -3.94 KCAL/MOL
REMARK 924 INTRA-LIGAND FREE ENERGY PREDICTED BY IDOCK:   -0.03 KCAL/MOL
REMARK 927      BINDING AFFINITY PREDICTED BY RF-SCORE:    0.00 PKD
ROOT
HETATM    1  N   UNL     1     -10.080  15.105  67.579  1.00  0.00    -0.231 NA 
HETATM    2  H1  UNL     1      -9.705  14.523  68.327  1.00  0.00     0.000 HD 
HETATM    3  C   UNL     1      -9.102  16.117  67.103  1.00  0.00    -0.203 C  
HETATM    4  H2  UNL     1     -10.424  14.535  66.806  1.00  0.00     0.000 HD 
HETATM    5  C   UNL     1      -9.673  17.003  65.965  1.00  0.00    -0.218 C  
HETATM    6  O   UNL     1     -10.657  17.914  66.447  1.00  0.00    -0.327 OA 
HETATM    7  O   UNL     1     -10.292  16.199  64.969  1.00  0.00    -0.573 OA 
HETATM    8  H   UNL     1     -10.642  16.742  64.272  1.00  0.00     0.000 HD 
HETATM    9  C   UNL     1     -10.163  18.855  67.422  1.00  0.00    -0.392 C  
HETATM   10  H   UNL     1      -7.041  18.182  68.533  1.00  0.00     0.000 HD 
HETATM   11  C   UNL     1      -9.586  18.122  68.646  1.00  0.00    -0.331 C  
HETATM   12  C   UNL     1      -8.588  17.020  68.247  1.00  0.00    -0.234 C  
HETATM   13  H   UNL     1     -10.300  17.116  70.177  1.00  0.00     0.000 HD 
HETATM   14  O   UNL     1     -10.656  17.569  69.421  1.00  0.00    -0.226 OA 
HETATM   15  O   UNL     1      -7.357  17.627  67.829  1.00  0.00    -0.183 OA 
ENDROOT
BRANCH   9  16
HETATM   16  C   UNL     1      -9.192  19.876  66.806  1.00  0.00    -0.378 C  
HETATM   17  O   UNL     1      -9.523  21.193  67.242  1.00  0.00    -0.644 OA 
HETATM   18  H   UNL     1      -8.923  21.824  66.861  1.00  0.00     0.000 HD 
ENDBRANCH   9  16
TORSDOF 1
ENDMDL
MODEL       70
REMARK 921   NORMALIZED FREE ENERGY PREDICTED BY IDOCK:   -3.71 KCAL/MOL
REMARK 922        TOTAL FREE ENERGY PREDICTED BY IDOCK:   -3.96 KCAL/MOL
REMARK 923 INTER-LIGAND FREE ENERGY PREDICTED BY IDOCK:   -3.73 KCAL/MOL
REMARK 924 INTRA-LIGAND FREE ENERGY PREDICTED BY IDOCK:   -0.23 KCAL/MOL
REMARK 927      BINDING AFFINITY PREDICTED BY RF-SCORE:    0.00 PKD
ROOT
HETATM    1  N   UNL     1     -10.340  18.729  68.456  1.00  0.00    -0.410 NA 
HETATM    2  H1  UNL     1     -10.887  17.914  68.734  1.00  0.00     0.000 HD 
HETATM    3  C   UNL     1      -9.686  18.549  67.134  1.00  0.00    -0.304 C  
HETATM    4  H2  UNL     1     -10.907  19.576  68.473  1.00  0.00     0.000 HD 
HETATM    5  C   UNL     1      -8.854  19.787  66.712  1.00  0.00    -0.347 C  
HETATM    6  O   UNL     1      -7.665  19.915  67.487  1.00  0.00    -0.268 OA 
HETATM    7  O   UNL     1      -9.606  20.980  66.892  1.00  0.00    -0.671 OA 
HETATM    8  H   UNL     1      -9.096  21.738  66.634  1.00  0.00     0.000 HD 
HETATM    9  C   UNL     1      -6.752  18.805  67.355  1.00  0.00    -0.202 C  
HETATM   10  H   UNL     1      -8.030  16.156  65.688  1.00  0.00     0.000 HD 
HETATM   11  C   UNL     1      -7.427  17.488  67.775  1.00  0.00    -0.191 C  
HETATM   12  C   UNL     1      -8.791  17.289  67.089  1.00  0.00    -0.226 C  
HETATM   13  H   UNL     1      -7.995  16.647  69.459  1.00  0.00     0.000 HD 
HETATM   14  O   UNL     1      -7.577  17.460  69.200  1.00  0.00    -0.207 OA 
HETATM   15  O   UNL     1      -8.581  16.930  65.716  1.00  0.00    -0.505 OA 
ENDROOT
BRANCH   9  16
HETATM   16  C   UNL     1      -6.108  18.745  65.960  1.00  0.00    -0.183 C  
HETATM   17  O   UNL     1      -5.432  17.501  65.785  1.00  0.00    -0.211 OA 
HETATM   18  H   UNL     1      -5.035  17.463  64.923  1.00  0.00     0.000 HD 
ENDBRANCH   9  16
TORSDOF 1
ENDMDL
MODEL       71
REMARK 921   NORMALIZED FREE ENERGY PREDICTED BY IDOCK:   -3.67 KCAL/MOL
REMARK 922        TOTAL FREE ENERGY PREDICTED BY IDOCK:   -3.92 KCAL/MOL
REMARK 923 INTER-LIGAND FREE ENERGY PREDICTED BY IDOCK:   -3.89 KCAL/MOL
REMARK 924 INTRA-LIGAND FREE ENERGY PREDICTED BY IDOCK:   -0.03 KCAL/MOL
REMARK 927      BINDING AFFINITY PREDICTED BY RF-SCORE:    0.00 PKD
ROOT
HETATM    1  N   UNL     1      -8.096  17.420  65.840  1.00  0.00    -0.554 NA 
HETATM    2  H1  UNL     1      -7.379  18.116  66.045  1.00  0.00     0.000 HD 
HETATM    3  C   UNL     1      -9.371  17.694  66.551  1.00  0.00    -0.272 C  
HETATM    4  H2  UNL     1      -8.247  17.333  64.835  1.00  0.00     0.000 HD 
HETATM    5  C   UNL     1     -10.462  16.637  66.240  1.00  0.00    -0.268 C  
HETATM    6  O   UNL     1     -10.175  15.384  66.856  1.00  0.00    -0.263 OA 
HETATM    7  O   UNL     1     -10.551  16.408  64.839  1.00  0.00    -0.677 OA 
HETATM    8  H   UNL     1     -11.219  15.760  64.649  1.00  0.00     0.000 HD 
HETATM    9  C   UNL     1     -10.123  15.433  68.297  1.00  0.00    -0.218 C  
HETATM   10  H   UNL     1     -10.184  18.563  69.575  1.00  0.00     0.000 HD 
HETATM   11  C   UNL     1      -9.049  16.428  68.771  1.00  0.00    -0.244 C  
HETATM   12  C   UNL     1      -9.179  17.798  68.081  1.00  0.00    -0.277 C  
HETATM   13  H   UNL     1      -7.085  16.489  68.832  1.00  0.00     0.000 HD 
HETATM   14  O   UNL     1      -7.748  15.875  68.539  1.00  0.00    -0.135 OA 
HETATM   15  O   UNL     1     -10.302  18.500  68.634  1.00  0.00    -0.357 OA 
ENDROOT
BRANCH   9  16
HETATM   16  C   UNL     1     -11.506  15.682  68.921  1.00  0.00    -0.361 C  
HETATM   17  O   UNL     1     -11.738  14.759  69.984  1.00  0.00    -0.263 OA 
HETATM   18  H   UNL     1     -12.592  14.913  70.370  1.00  0.00     0.000 HD 
ENDBRANCH   9  16
TORSDOF 1
ENDMDL
MODEL       72
REMARK 921   NORMALIZED FREE ENERGY PREDICTED BY IDOCK:   -3.67 KCAL/MOL
REMARK 922        TOTAL FREE ENERGY PREDICTED BY IDOCK:   -3.91 KCAL/MOL
REMARK 923 INTER-LIGAND FREE ENERGY PREDICTED BY IDOCK:   -3.65 KCAL/MOL
REMARK 924 INTRA-LIGAND FREE ENERGY PREDICTED BY IDOCK:   -0.27 KCAL/MOL
REMARK 927      BINDING AFFINITY PREDICTED BY RF-SCORE:    0.00 PKD
ROOT
HETATM    1  N   UNL     1     -12.118  12.592  66.239  1.00  0.00    -0.605 NA 
HETATM    2  H1  UNL     1     -13.094  12.799  66.027  1.00  0.00     0.000 HD 
HETATM    3  C   UNL     1     -11.600  13.403  67.370  1.00  0.00    -0.354 C  
HETATM    4  H2  UNL     1     -11.982  11.596  66.408  1.00  0.00     0.000 HD 
HETATM    5  C   UNL     1     -10.116  13.089  67.693  1.00  0.00    -0.217 C  
HETATM    6  O   UNL     1      -9.238  13.593  66.689  1.00  0.00    -0.249 OA 
HETATM    7  O   UNL     1      -9.908  11.684  67.769  1.00  0.00    -0.173 OA 
HETATM    8  H   UNL     1      -8.999  11.492  67.967  1.00  0.00     0.000 HD 
HETATM    9  C   UNL     1      -9.277  15.028  66.537  1.00  0.00    -0.290 C  
HETATM   10  H   UNL     1     -11.784  16.528  68.240  1.00  0.00     0.000 HD 
HETATM   11  C   UNL     1     -10.697  15.500  66.178  1.00  0.00    -0.313 C  
HETATM   12  C   UNL     1     -11.761  14.921  67.126  1.00  0.00    -0.277 C  
HETATM   13  H   UNL     1     -11.867  15.436  64.599  1.00  0.00     0.000 HD 
HETATM   14  O   UNL     1     -10.991  15.144  64.821  1.00  0.00    -0.399 OA 
HETATM   15  O   UNL     1     -11.684  15.595  68.391  1.00  0.00    -0.367 OA 
ENDROOT
BRANCH   9  16
HETATM   16  C   UNL     1      -8.679  15.758  67.751  1.00  0.00    -0.170 C  
HETATM   17  O   UNL     1      -9.179  17.092  67.817  1.00  0.00    -0.231 OA 
HETATM   18  H   UNL     1      -8.810  17.543  68.567  1.00  0.00     0.000 HD 
ENDBRANCH   9  16
TORSDOF 1
ENDMDL
MODEL       73
REMARK 921   NORMALIZED FREE ENERGY PREDICTED BY IDOCK:   -3.66 KCAL/MOL
REMARK 922        TOTAL FREE ENERGY PREDICTED BY IDOCK:   -3.90 KCAL/MOL
REMARK 923 INTER-LIGAND FREE ENERGY PREDICTED BY IDOCK:   -3.65 KCAL/MOL
REMARK 924 INTRA-LIGAND FREE ENERGY PREDICTED BY IDOCK:   -0.26 KCAL/MOL
REMARK 927      BINDING AFFINITY PREDICTED BY RF-SCORE:    0.00 PKD
ROOT
HETATM    1  N   UNL     1      -9.158  10.423  69.723  1.00  0.00    -0.404 NA 
HETATM    2  H1  UNL     1      -9.153  11.348  70.153  1.00  0.00     0.000 HD 
HETATM    3  C   UNL     1     -10.509   9.804  69.727  1.00  0.00    -0.250 C  
HETATM    4  H2  UNL     1      -8.772  10.454  68.780  1.00  0.00     0.000 HD 
HETATM    5  C   UNL     1     -10.518   8.398  69.073  1.00  0.00    -0.201 C  
HETATM    6  O   UNL     1      -9.871   7.429  69.893  1.00  0.00    -0.177 OA 
HETATM    7  O   UNL     1      -9.834   8.422  67.827  1.00  0.00    -0.159 OA 
HETATM    8  H   UNL     1      -9.840   7.561  67.426  1.00  0.00     0.000 HD 
HETATM    9  C   UNL     1     -10.496   7.231  71.179  1.00  0.00    -0.209 C  
HETATM   10  H   UNL     1     -12.896   9.498  71.910  1.00  0.00     0.000 HD 
HETATM   11  C   UNL     1     -10.533   8.547  71.976  1.00  0.00    -0.336 C  
HETATM   12  C   UNL     1     -11.107   9.712  71.149  1.00  0.00    -0.374 C  
HETATM   13  H   UNL     1      -9.237   9.678  72.929  1.00  0.00     0.000 HD 
HETATM   14  O   UNL     1      -9.215   8.866  72.437  1.00  0.00    -0.362 OA 
HETATM   15  O   UNL     1     -12.529   9.554  71.035  1.00  0.00    -0.304 OA 
ENDROOT
BRANCH   9  16
HETATM   16  C   UNL     1     -11.868   6.549  71.060  1.00  0.00    -0.330 C  
HETATM   17  O   UNL     1     -12.593   6.687  72.282  1.00  0.00    -0.538 OA 
HETATM   18  H   UNL     1     -13.441   6.265  72.209  1.00  0.00     0.000 HD 
ENDBRANCH   9  16
TORSDOF 1
ENDMDL
MODEL       74
REMARK 921   NORMALIZED FREE ENERGY PREDICTED BY IDOCK:   -3.65 KCAL/MOL
REMARK 922        TOTAL FREE ENERGY PREDICTED BY IDOCK:   -3.89 KCAL/MOL
REMARK 923 INTER-LIGAND FREE ENERGY PREDICTED BY IDOCK:   -3.85 KCAL/MOL
REMARK 924 INTRA-LIGAND FREE ENERGY PREDICTED BY IDOCK:   -0.04 KCAL/MOL
REMARK 927      BINDING AFFINITY PREDICTED BY RF-SCORE:    0.00 PKD
ROOT
HETATM    1  N   UNL     1      -9.425  14.017  66.014  1.00  0.00    -0.499 NA 
HETATM    2  H1  UNL     1      -9.676  14.741  66.687  1.00  0.00     0.000 HD 
HETATM    3  C   UNL     1     -10.443  12.937  65.939  1.00  0.00    -0.279 C  
HETATM    4  H2  UNL     1      -9.245  14.417  65.094  1.00  0.00     0.000 HD 
HETATM    5  C   UNL     1     -10.063  11.836  64.916  1.00  0.00    -0.259 C  
HETATM    6  O   UNL     1      -8.980  11.033  65.381  1.00  0.00    -0.198 OA 
HETATM    7  O   UNL     1      -9.659  12.417  63.682  1.00  0.00    -0.659 OA 
HETATM    8  H   UNL     1      -9.426  11.742  63.056  1.00  0.00     0.000 HD 
HETATM    9  C   UNL     1      -9.260  10.312  66.599  1.00  0.00    -0.155 C  
HETATM   10  H   UNL     1     -12.147  11.220  68.108  1.00  0.00     0.000 HD 
HETATM   11  C   UNL     1      -9.627  11.282  67.736  1.00  0.00    -0.174 C  
HETATM   12  C   UNL     1     -10.713  12.289  67.315  1.00  0.00    -0.231 C  
HETATM   13  H   UNL     1      -8.676  12.571  68.876  1.00  0.00     0.000 HD 
HETATM   14  O   UNL     1      -8.450  11.973  68.174  1.00  0.00    -0.157 OA 
HETATM   15  O   UNL     1     -11.981  11.619  67.262  1.00  0.00    -0.627 OA 
ENDROOT
BRANCH   9  16
HETATM   16  C   UNL     1     -10.297   9.196  66.389  1.00  0.00    -0.165 C  
HETATM   17  O   UNL     1      -9.663   8.029  65.867  1.00  0.00    -0.445 OA 
HETATM   18  H   UNL     1     -10.303   7.339  65.738  1.00  0.00     0.000 HD 
ENDBRANCH   9  16
TORSDOF 1
ENDMDL
MODEL       75
REMARK 921   NORMALIZED FREE ENERGY PREDICTED BY IDOCK:   -3.64 KCAL/MOL
REMARK 922        TOTAL FREE ENERGY PREDICTED BY IDOCK:   -3.88 KCAL/MOL
REMARK 923 INTER-LIGAND FREE ENERGY PREDICTED BY IDOCK:   -3.60 KCAL/MOL
REMARK 924 INTRA-LIGAND FREE ENERGY PREDICTED BY IDOCK:   -0.27 KCAL/MOL
REMARK 927      BINDING AFFINITY PREDICTED BY RF-SCORE:    0.00 PKD
ROOT
HETATM    1  N   UNL     1     -11.541   5.767  73.011  1.00  0.00    -0.519 NA 
HETATM    2  H1  UNL     1     -11.608   5.889  74.021  1.00  0.00     0.000 HD 
HETATM    3  C   UNL     1     -10.453   6.582  72.412  1.00  0.00    -0.205 C  
HETATM    4  H2  UNL     1     -11.441   4.783  72.764  1.00  0.00     0.000 HD 
HETATM    5  C   UNL     1     -10.351   6.398  70.876  1.00  0.00    -0.204 C  
HETATM    6  O   UNL     1     -11.439   7.020  70.196  1.00  0.00    -0.290 OA 
HETATM    7  O   UNL     1     -10.373   5.018  70.535  1.00  0.00    -0.254 OA 
HETATM    8  H   UNL     1     -10.312   4.905  69.594  1.00  0.00     0.000 HD 
HETATM    9  C   UNL     1     -11.513   8.449  70.383  1.00  0.00    -0.125 C  
HETATM   10  H   UNL     1      -9.412   9.642  72.749  1.00  0.00     0.000 HD 
HETATM   11  C   UNL     1     -11.652   8.798  71.875  1.00  0.00    -0.361 C  
HETATM   12  C   UNL     1     -10.597   8.086  72.740  1.00  0.00    -0.351 C  
HETATM   13  H   UNL     1     -13.057   8.681  73.245  1.00  0.00     0.000 HD 
HETATM   14  O   UNL     1     -12.972   8.465  72.324  1.00  0.00    -0.336 OA 
HETATM   15  O   UNL     1      -9.323   8.718  72.547  1.00  0.00    -0.326 OA 
ENDROOT
BRANCH   9  16
HETATM   16  C   UNL     1     -10.358   9.187  69.687  1.00  0.00    -0.219 C  
HETATM   17  O   UNL     1     -10.211  10.496  70.235  1.00  0.00    -0.415 OA 
HETATM   18  H   UNL     1      -9.497  10.952  69.805  1.00  0.00     0.000 HD 
ENDBRANCH   9  16
TORSDOF 1
ENDMDL
MODEL       76
REMARK 921   NORMALIZED FREE ENERGY PREDICTED BY IDOCK:   -3.63 KCAL/MOL
REMARK 922        TOTAL FREE ENERGY PREDICTED BY IDOCK:   -3.87 KCAL/MOL
REMARK 923 INTER-LIGAND FREE ENERGY PREDICTED BY IDOCK:   -3.83 KCAL/MOL
REMARK 924 INTRA-LIGAND FREE ENERGY PREDICTED BY IDOCK:   -0.04 KCAL/MOL
REMARK 927      BINDING AFFINITY PREDICTED BY RF-SCORE:    0.00 PKD
ROOT
HETATM    1  N   UNL     1     -11.185  16.002  67.861  1.00  0.00    -0.316 NA 
HETATM    2  H1  UNL     1     -10.905  16.604  67.087  1.00  0.00     0.000 HD 
HETATM    3  C   UNL     1     -10.313  14.807  67.994  1.00  0.00    -0.237 C  
HETATM    4  H2  UNL     1     -11.229  16.525  68.736  1.00  0.00     0.000 HD 
HETATM    5  C   UNL     1     -10.739  13.892  69.172  1.00  0.00    -0.147 C  
HETATM    6  O   UNL     1     -11.954  13.201  68.892  1.00  0.00    -0.309 OA 
HETATM    7  O   UNL     1     -10.951  14.659  70.350  1.00  0.00    -0.467 OA 
HETATM    8  H   UNL     1     -11.212  14.099  71.071  1.00  0.00     0.000 HD 
HETATM    9  C   UNL     1     -11.881  12.315  67.755  1.00  0.00    -0.273 C  
HETATM   10  H   UNL     1      -9.049  12.635  65.935  1.00  0.00     0.000 HD 
HETATM   11  C   UNL     1     -11.496  13.089  66.483  1.00  0.00    -0.340 C  
HETATM   12  C   UNL     1     -10.255  13.975  66.693  1.00  0.00    -0.275 C  
HETATM   13  H   UNL     1     -12.370  14.361  65.265  1.00  0.00     0.000 HD 
HETATM   14  O   UNL     1     -12.608  13.883  66.050  1.00  0.00    -0.467 OA 
HETATM   15  O   UNL     1      -9.085  13.146  66.735  1.00  0.00    -0.234 OA 
ENDROOT
BRANCH   9  16
HETATM   16  C   UNL     1     -10.983  11.096  68.025  1.00  0.00    -0.252 C  
HETATM   17  O   UNL     1     -11.734  10.064  68.661  1.00  0.00    -0.516 OA 
HETATM   18  H   UNL     1     -11.180   9.310  68.828  1.00  0.00     0.000 HD 
ENDBRANCH   9  16
TORSDOF 1
ENDMDL
MODEL       77
REMARK 921   NORMALIZED FREE ENERGY PREDICTED BY IDOCK:   -3.62 KCAL/MOL
REMARK 922        TOTAL FREE ENERGY PREDICTED BY IDOCK:   -3.85 KCAL/MOL
REMARK 923 INTER-LIGAND FREE ENERGY PREDICTED BY IDOCK:   -3.83 KCAL/MOL
REMARK 924 INTRA-LIGAND FREE ENERGY PREDICTED BY IDOCK:   -0.03 KCAL/MOL
REMARK 927      BINDING AFFINITY PREDICTED BY RF-SCORE:    0.00 PKD
ROOT
HETATM    1  N   UNL     1     -10.760   7.464  73.834  1.00  0.00    -0.558 NA 
HETATM    2  H1  UNL     1     -10.025   8.017  74.274  1.00  0.00     0.000 HD 
HETATM    3  C   UNL     1     -10.239   6.582  72.757  1.00  0.00    -0.186 C  
HETATM    4  H2  UNL     1     -11.282   6.928  74.526  1.00  0.00     0.000 HD 
HETATM    5  C   UNL     1     -11.356   5.741  72.088  1.00  0.00    -0.258 C  
HETATM    6  O   UNL     1     -12.205   6.544  71.271  1.00  0.00    -0.340 OA 
HETATM    7  O   UNL     1     -12.177   5.125  73.072  1.00  0.00    -0.472 OA 
HETATM    8  H   UNL     1     -12.861   4.611  72.662  1.00  0.00     0.000 HD 
HETATM    9  C   UNL     1     -11.529   7.186  70.169  1.00  0.00    -0.205 C  
HETATM   10  H   UNL     1      -8.158   6.943  70.288  1.00  0.00     0.000 HD 
HETATM   11  C   UNL     1     -10.397   8.095  70.678  1.00  0.00    -0.199 C  
HETATM   12  C   UNL     1      -9.471   7.371  71.673  1.00  0.00    -0.150 C  
HETATM   13  H   UNL     1     -10.260   9.828  71.598  1.00  0.00     0.000 HD 
HETATM   14  O   UNL     1     -10.959   9.267  71.283  1.00  0.00    -0.294 OA 
HETATM   15  O   UNL     1      -8.630   6.457  70.954  1.00  0.00    -0.133 OA 
ENDROOT
BRANCH   9  16
HETATM   16  C   UNL     1     -11.071   6.179  69.101  1.00  0.00    -0.378 C  
HETATM   17  O   UNL     1     -11.419   6.651  67.801  1.00  0.00    -0.654 OA 
HETATM   18  H   UNL     1     -11.136   6.029  67.140  1.00  0.00     0.000 HD 
ENDBRANCH   9  16
TORSDOF 1
ENDMDL
MODEL       78
REMARK 921   NORMALIZED FREE ENERGY PREDICTED BY IDOCK:   -3.60 KCAL/MOL
REMARK 922        TOTAL FREE ENERGY PREDICTED BY IDOCK:   -3.84 KCAL/MOL
REMARK 923 INTER-LIGAND FREE ENERGY PREDICTED BY IDOCK:   -3.69 KCAL/MOL
REMARK 924 INTRA-LIGAND FREE ENERGY PREDICTED BY IDOCK:   -0.15 KCAL/MOL
REMARK 927      BINDING AFFINITY PREDICTED BY RF-SCORE:    0.00 PKD
ROOT
HETATM    1  N   UNL     1     -11.414   6.825  68.806  1.00  0.00    -0.567 NA 
HETATM    2  H1  UNL     1     -12.392   6.674  68.558  1.00  0.00     0.000 HD 
HETATM    3  C   UNL     1     -11.062   6.222  70.117  1.00  0.00    -0.377 C  
HETATM    4  H2  UNL     1     -10.792   6.493  68.070  1.00  0.00     0.000 HD 
HETATM    5  C   UNL     1      -9.576   6.452  70.495  1.00  0.00    -0.165 C  
HETATM    6  O   UNL     1      -9.324   7.810  70.847  1.00  0.00    -0.152 OA 
HETATM    7  O   UNL     1      -8.727   6.134  69.400  1.00  0.00    -0.122 OA 
HETATM    8  H   UNL     1      -7.816   6.275  69.631  1.00  0.00     0.000 HD 
HETATM    9  C   UNL     1     -10.063   8.269  71.998  1.00  0.00    -0.261 C  
HETATM   10  H   UNL     1     -12.449   6.118  73.054  1.00  0.00     0.000 HD 
HETATM   11  C   UNL     1     -11.578   8.135  71.764  1.00  0.00    -0.291 C  
HETATM   12  C   UNL     1     -11.967   6.733  71.261  1.00  0.00    -0.365 C  
HETATM   13  H   UNL     1     -12.944   9.053  70.688  1.00  0.00     0.000 HD 
HETATM   14  O   UNL     1     -12.009   9.136  70.833  1.00  0.00    -0.285 OA 
HETATM   15  O   UNL     1     -11.892   5.803  72.351  1.00  0.00    -0.293 OA 
ENDROOT
BRANCH   9  16
HETATM   16  C   UNL     1      -9.584   7.605  73.299  1.00  0.00    -0.268 C  
HETATM   17  O   UNL     1     -10.688   7.395  74.178  1.00  0.00    -0.540 OA 
HETATM   18  H   UNL     1     -10.393   6.984  74.982  1.00  0.00     0.000 HD 
ENDBRANCH   9  16
TORSDOF 1
ENDMDL
MODEL       79
REMARK 921   NORMALIZED FREE ENERGY PREDICTED BY IDOCK:   -3.59 KCAL/MOL
REMARK 922        TOTAL FREE ENERGY PREDICTED BY IDOCK:   -3.83 KCAL/MOL
REMARK 923 INTER-LIGAND FREE ENERGY PREDICTED BY IDOCK:   -3.57 KCAL/MOL
REMARK 924 INTRA-LIGAND FREE ENERGY PREDICTED BY IDOCK:   -0.25 KCAL/MOL
REMARK 927      BINDING AFFINITY PREDICTED BY RF-SCORE:    0.00 PKD
ROOT
HETATM    1  N   UNL     1      -9.107  11.346  65.094  1.00  0.00    -0.393 NA 
HETATM    2  H1  UNL     1      -9.111  12.202  64.539  1.00  0.00     0.000 HD 
HETATM    3  C   UNL     1     -10.358  11.172  65.875  1.00  0.00    -0.259 C  
HETATM    4  H2  UNL     1      -8.921  10.531  64.512  1.00  0.00     0.000 HD 
HETATM    5  C   UNL     1     -10.353   9.871  66.719  1.00  0.00    -0.217 C  
HETATM    6  O   UNL     1      -9.460   9.962  67.826  1.00  0.00    -0.140 OA 
HETATM    7  O   UNL     1      -9.937   8.764  65.930  1.00  0.00    -0.466 OA 
HETATM    8  H   UNL     1      -9.933   7.968  66.447  1.00  0.00     0.000 HD 
HETATM    9  C   UNL     1      -9.792  11.003  68.769  1.00  0.00    -0.198 C  
HETATM   10  H   UNL     1     -12.220  13.104  67.709  1.00  0.00     0.000 HD 
HETATM   11  C   UNL     1      -9.806  12.379  68.083  1.00  0.00    -0.213 C  
HETATM   12  C   UNL     1     -10.649  12.379  66.795  1.00  0.00    -0.226 C  
HETATM   13  H   UNL     1      -8.469  13.635  67.373  1.00  0.00     0.000 HD 
HETATM   14  O   UNL     1      -8.461  12.786  67.798  1.00  0.00    -0.153 OA 
HETATM   15  O   UNL     1     -12.041  12.361  67.143  1.00  0.00    -0.532 OA 
ENDROOT
BRANCH   9  16
HETATM   16  C   UNL     1     -11.083  10.693  69.545  1.00  0.00    -0.274 C  
HETATM   17  O   UNL     1     -11.552  11.867  70.206  1.00  0.00    -0.504 OA 
HETATM   18  H   UNL     1     -12.350  11.676  70.685  1.00  0.00     0.000 HD 
ENDBRANCH   9  16
TORSDOF 1
ENDMDL
MODEL       80
REMARK 921   NORMALIZED FREE ENERGY PREDICTED BY IDOCK:   -3.55 KCAL/MOL
REMARK 922        TOTAL FREE ENERGY PREDICTED BY IDOCK:   -3.79 KCAL/MOL
REMARK 923 INTER-LIGAND FREE ENERGY PREDICTED BY IDOCK:   -3.52 KCAL/MOL
REMARK 924 INTRA-LIGAND FREE ENERGY PREDICTED BY IDOCK:   -0.27 KCAL/MOL
REMARK 927      BINDING AFFINITY PREDICTED BY RF-SCORE:    0.00 PKD
ROOT
HETATM    1  N   UNL     1      -9.965  16.281  66.309  1.00  0.00    -0.297 NA 
HETATM    2  H1  UNL     1      -9.457  15.982  65.477  1.00  0.00     0.000 HD 
HETATM    3  C   UNL     1      -9.671  15.428  67.489  1.00  0.00    -0.208 C  
HETATM    4  H2  UNL     1      -9.789  17.264  66.514  1.00  0.00     0.000 HD 
HETATM    5  C   UNL     1     -10.443  15.882  68.755  1.00  0.00    -0.237 C  
HETATM    6  O   UNL     1     -11.834  15.588  68.660  1.00  0.00    -0.362 OA 
HETATM    7  O   UNL     1     -10.320  17.287  68.939  1.00  0.00    -0.331 OA 
HETATM    8  H   UNL     1     -10.793  17.565  69.714  1.00  0.00     0.000 HD 
HETATM    9  C   UNL     1     -12.133  14.181  68.541  1.00  0.00    -0.277 C  
HETATM   10  H   UNL     1      -9.420  12.232  68.019  1.00  0.00     0.000 HD 
HETATM   11  C   UNL     1     -11.457  13.582  67.296  1.00  0.00    -0.339 C  
HETATM   12  C   UNL     1      -9.960  13.934  67.220  1.00  0.00    -0.242 C  
HETATM   13  H   UNL     1     -11.717  13.665  65.349  1.00  0.00     0.000 HD 
HETATM   14  O   UNL     1     -12.135  14.034  66.117  1.00  0.00    -0.402 OA 
HETATM   15  O   UNL     1      -9.242  13.151  68.184  1.00  0.00    -0.206 OA 
ENDROOT
BRANCH   9  16
HETATM   16  C   UNL     1     -11.826  13.409  69.835  1.00  0.00    -0.315 C  
HETATM   17  O   UNL     1     -11.720  12.013  69.561  1.00  0.00    -0.301 OA 
HETATM   18  H   UNL     1     -11.530  11.537  70.360  1.00  0.00     0.000 HD 
ENDBRANCH   9  16
TORSDOF 1
ENDMDL
MODEL       81
REMARK 921   NORMALIZED FREE ENERGY PREDICTED BY IDOCK:   -3.54 KCAL/MOL
REMARK 922        TOTAL FREE ENERGY PREDICTED BY IDOCK:   -3.78 KCAL/MOL
REMARK 923 INTER-LIGAND FREE ENERGY PREDICTED BY IDOCK:   -3.69 KCAL/MOL
REMARK 924 INTRA-LIGAND FREE ENERGY PREDICTED BY IDOCK:   -0.09 KCAL/MOL
REMARK 927      BINDING AFFINITY PREDICTED BY RF-SCORE:    0.00 PKD
ROOT
HETATM    1  N   UNL     1     -11.260  15.036  66.212  1.00  0.00    -0.336 NA 
HETATM    2  H1  UNL     1     -12.067  15.577  66.521  1.00  0.00     0.000 HD 
HETATM    3  C   UNL     1     -11.415  13.583  66.481  1.00  0.00    -0.339 C  
HETATM    4  H2  UNL     1     -11.056  15.208  65.228  1.00  0.00     0.000 HD 
HETATM    5  C   UNL     1     -10.188  12.759  66.012  1.00  0.00    -0.278 C  
HETATM    6  O   UNL     1      -9.054  12.978  66.847  1.00  0.00    -0.222 OA 
HETATM    7  O   UNL     1      -9.816  13.125  64.689  1.00  0.00    -0.583 OA 
HETATM    8  H   UNL     1      -9.064  12.621  64.402  1.00  0.00     0.000 HD 
HETATM    9  C   UNL     1      -9.247  12.585  68.222  1.00  0.00    -0.186 C  
HETATM   10  H   UNL     1     -12.444  11.802  68.996  1.00  0.00     0.000 HD 
HETATM   11  C   UNL     1     -10.426  13.350  68.849  1.00  0.00    -0.113 C  
HETATM   12  C   UNL     1     -11.691  13.289  67.973  1.00  0.00    -0.359 C  
HETATM   13  H   UNL     1     -10.772  15.184  69.465  1.00  0.00     0.000 HD 
HETATM   14  O   UNL     1     -10.045  14.712  69.079  1.00  0.00    -0.229 OA 
HETATM   15  O   UNL     1     -12.275  11.982  68.079  1.00  0.00    -0.454 OA 
ENDROOT
BRANCH   9  16
HETATM   16  C   UNL     1      -9.355  11.059  68.380  1.00  0.00    -0.179 C  
HETATM   17  O   UNL     1      -9.443  10.714  69.762  1.00  0.00    -0.415 OA 
HETATM   18  H   UNL     1      -9.510   9.772  69.860  1.00  0.00     0.000 HD 
ENDBRANCH   9  16
TORSDOF 1
ENDMDL
MODEL       82
REMARK 921   NORMALIZED FREE ENERGY PREDICTED BY IDOCK:   -3.52 KCAL/MOL
REMARK 922        TOTAL FREE ENERGY PREDICTED BY IDOCK:   -3.76 KCAL/MOL
REMARK 923 INTER-LIGAND FREE ENERGY PREDICTED BY IDOCK:   -3.48 KCAL/MOL
REMARK 924 INTRA-LIGAND FREE ENERGY PREDICTED BY IDOCK:   -0.27 KCAL/MOL
REMARK 927      BINDING AFFINITY PREDICTED BY RF-SCORE:    0.00 PKD
ROOT
HETATM    1  N   UNL     1     -12.060  15.664  68.838  1.00  0.00    -0.584 NA 
HETATM    2  H1  UNL     1     -13.079  15.706  68.879  1.00  0.00     0.000 HD 
HETATM    3  C   UNL     1     -11.571  14.933  67.640  1.00  0.00    -0.339 C  
HETATM    4  H2  UNL     1     -11.650  16.596  68.892  1.00  0.00     0.000 HD 
HETATM    5  C   UNL     1     -10.023  14.867  67.578  1.00  0.00    -0.219 C  
HETATM    6  O   UNL     1      -9.491  13.983  68.561  1.00  0.00    -0.211 OA 
HETATM    7  O   UNL     1      -9.459  16.151  67.814  1.00  0.00    -0.215 OA 
HETATM    8  H   UNL     1      -8.511  16.111  67.776  1.00  0.00     0.000 HD 
HETATM    9  C   UNL     1      -9.916  12.612  68.413  1.00  0.00    -0.210 C  
HETATM   10  H   UNL     1     -12.379  12.167  66.139  1.00  0.00     0.000 HD 
HETATM   11  C   UNL     1     -11.449  12.503  68.487  1.00  0.00    -0.305 C  
HETATM   12  C   UNL     1     -12.149  13.503  67.549  1.00  0.00    -0.300 C  
HETATM   13  H   UNL     1     -12.824  12.638  69.886  1.00  0.00     0.000 HD 
HETATM   14  O   UNL     1     -11.878  12.704  69.840  1.00  0.00    -0.318 OA 
HETATM   15  O   UNL     1     -12.023  13.046  66.195  1.00  0.00    -0.395 OA 
ENDROOT
BRANCH   9  16
HETATM   16  C   UNL     1      -9.316  11.949  67.162  1.00  0.00    -0.180 C  
HETATM   17  O   UNL     1     -10.089  10.809  66.792  1.00  0.00    -0.206 OA 
HETATM   18  H   UNL     1      -9.719  10.399  66.019  1.00  0.00     0.000 HD 
ENDBRANCH   9  16
TORSDOF 1
ENDMDL
MODEL       83
REMARK 921   NORMALIZED FREE ENERGY PREDICTED BY IDOCK:   -3.52 KCAL/MOL
REMARK 922        TOTAL FREE ENERGY PREDICTED BY IDOCK:   -3.75 KCAL/MOL
REMARK 923 INTER-LIGAND FREE ENERGY PREDICTED BY IDOCK:   -3.50 KCAL/MOL
REMARK 924 INTRA-LIGAND FREE ENERGY PREDICTED BY IDOCK:   -0.25 KCAL/MOL
REMARK 927      BINDING AFFINITY PREDICTED BY RF-SCORE:    0.00 PKD
ROOT
HETATM    1  N   UNL     1      -5.695  17.873  66.290  1.00  0.00    -0.170 NA 
HETATM    2  H1  UNL     1      -5.204  18.618  65.795  1.00  0.00     0.000 HD 
HETATM    3  C   UNL     1      -7.165  17.926  66.078  1.00  0.00    -0.290 C  
HETATM    4  H2  UNL     1      -5.321  16.958  66.041  1.00  0.00     0.000 HD 
HETATM    5  C   UNL     1      -7.912  16.794  66.830  1.00  0.00    -0.240 C  
HETATM    6  O   UNL     1      -7.923  17.012  68.238  1.00  0.00    -0.204 OA 
HETATM    7  O   UNL     1      -7.282  15.541  66.600  1.00  0.00    -0.249 OA 
HETATM    8  H   UNL     1      -7.740  14.848  67.061  1.00  0.00     0.000 HD 
HETATM    9  C   UNL     1      -8.599  18.221  68.644  1.00  0.00    -0.283 C  
HETATM   10  H   UNL     1      -9.411  20.274  66.083  1.00  0.00     0.000 HD 
HETATM   11  C   UNL     1      -7.945  19.455  67.999  1.00  0.00    -0.304 C  
HETATM   12  C   UNL     1      -7.766  19.292  66.479  1.00  0.00    -0.272 C  
HETATM   13  H   UNL     1      -6.277  20.471  68.227  1.00  0.00     0.000 HD 
HETATM   14  O   UNL     1      -6.681  19.709  68.625  1.00  0.00    -0.272 OA 
HETATM   15  O   UNL     1      -9.042  19.434  65.836  1.00  0.00    -0.419 OA 
ENDROOT
BRANCH   9  16
HETATM   16  C   UNL     1     -10.118  18.143  68.414  1.00  0.00    -0.388 C  
HETATM   17  O   UNL     1     -10.655  19.453  68.239  1.00  0.00    -0.407 OA 
HETATM   18  H   UNL     1     -11.593  19.405  68.096  1.00  0.00     0.000 HD 
ENDBRANCH   9  16
TORSDOF 1
ENDMDL
MODEL       84
REMARK 921   NORMALIZED FREE ENERGY PREDICTED BY IDOCK:   -3.52 KCAL/MOL
REMARK 922        TOTAL FREE ENERGY PREDICTED BY IDOCK:   -3.75 KCAL/MOL
REMARK 923 INTER-LIGAND FREE ENERGY PREDICTED BY IDOCK:   -3.50 KCAL/MOL
REMARK 924 INTRA-LIGAND FREE ENERGY PREDICTED BY IDOCK:   -0.25 KCAL/MOL
REMARK 927      BINDING AFFINITY PREDICTED BY RF-SCORE:    0.00 PKD
ROOT
HETATM    1  N   UNL     1      -7.965   8.638  72.837  1.00  0.00    -0.400 NA 
HETATM    2  H1  UNL     1      -8.074   9.449  73.447  1.00  0.00     0.000 HD 
HETATM    3  C   UNL     1      -8.855   8.700  71.649  1.00  0.00    -0.223 C  
HETATM    4  H2  UNL     1      -6.992   8.513  72.561  1.00  0.00     0.000 HD 
HETATM    5  C   UNL     1      -8.690   7.468  70.722  1.00  0.00    -0.140 C  
HETATM    6  O   UNL     1      -9.245   6.291  71.303  1.00  0.00    -0.152 OA 
HETATM    7  O   UNL     1      -7.314   7.210  70.473  1.00  0.00    -0.072 OA 
HETATM    8  H   UNL     1      -7.214   6.455  69.905  1.00  0.00     0.000 HD 
HETATM    9  C   UNL     1     -10.664   6.367  71.552  1.00  0.00    -0.238 C  
HETATM   10  H   UNL     1     -11.973   9.458  71.142  1.00  0.00     0.000 HD 
HETATM   11  C   UNL     1     -10.991   7.537  72.497  1.00  0.00    -0.313 C  
HETATM   12  C   UNL     1     -10.342   8.855  72.038  1.00  0.00    -0.307 C  
HETATM   13  H   UNL     1     -10.770   7.932  74.410  1.00  0.00     0.000 HD 
HETATM   14  O   UNL     1     -10.569   7.210  73.827  1.00  0.00    -0.377 OA 
HETATM   15  O   UNL     1     -11.059   9.363  70.902  1.00  0.00    -0.265 OA 
ENDROOT
BRANCH   9  16
HETATM   16  C   UNL     1     -11.483   6.386  70.251  1.00  0.00    -0.402 C  
HETATM   17  O   UNL     1     -12.733   7.038  70.466  1.00  0.00    -0.606 OA 
HETATM   18  H   UNL     1     -13.239   7.049  69.662  1.00  0.00     0.000 HD 
ENDBRANCH   9  16
TORSDOF 1
ENDMDL
MODEL       85
REMARK 921   NORMALIZED FREE ENERGY PREDICTED BY IDOCK:   -3.50 KCAL/MOL
REMARK 922        TOTAL FREE ENERGY PREDICTED BY IDOCK:   -3.73 KCAL/MOL
REMARK 923 INTER-LIGAND FREE ENERGY PREDICTED BY IDOCK:   -3.46 KCAL/MOL
REMARK 924 INTRA-LIGAND FREE ENERGY PREDICTED BY IDOCK:   -0.27 KCAL/MOL
REMARK 927      BINDING AFFINITY PREDICTED BY RF-SCORE:    0.00 PKD
ROOT
HETATM    1  N   UNL     1      -8.728  13.886  66.530  1.00  0.00    -0.452 NA 
HETATM    2  H1  UNL     1      -8.976  13.200  65.818  1.00  0.00     0.000 HD 
HETATM    3  C   UNL     1      -9.379  13.608  67.837  1.00  0.00    -0.206 C  
HETATM    4  H2  UNL     1      -7.717  13.962  66.632  1.00  0.00     0.000 HD 
HETATM    5  C   UNL     1      -9.002  14.651  68.920  1.00  0.00    -0.136 C  
HETATM    6  O   UNL     1      -9.618  15.913  68.676  1.00  0.00    -0.196 OA 
HETATM    7  O   UNL     1      -7.596  14.864  68.942  1.00  0.00    -0.126 OA 
HETATM    8  H   UNL     1      -7.366  15.504  69.605  1.00  0.00     0.000 HD 
HETATM    9  C   UNL     1     -11.061  15.879  68.694  1.00  0.00    -0.337 C  
HETATM   10  H   UNL     1     -12.368  12.762  68.790  1.00  0.00     0.000 HD 
HETATM   11  C   UNL     1     -11.598  14.900  67.636  1.00  0.00    -0.339 C  
HETATM   12  C   UNL     1     -10.917  13.522  67.720  1.00  0.00    -0.266 C  
HETATM   13  H   UNL     1     -11.756  14.858  65.677  1.00  0.00     0.000 HD 
HETATM   14  O   UNL     1     -11.425  15.463  66.330  1.00  0.00    -0.170 OA 
HETATM   15  O   UNL     1     -11.422  12.815  68.862  1.00  0.00    -0.264 OA 
ENDROOT
BRANCH   9  16
HETATM   16  C   UNL     1     -11.619  15.624  70.104  1.00  0.00    -0.354 C  
HETATM   17  O   UNL     1     -12.976  15.192  70.024  1.00  0.00    -0.618 OA 
HETATM   18  H   UNL     1     -13.321  15.033  70.895  1.00  0.00     0.000 HD 
ENDBRANCH   9  16
TORSDOF 1
ENDMDL
MODEL       86
REMARK 921   NORMALIZED FREE ENERGY PREDICTED BY IDOCK:   -3.49 KCAL/MOL
REMARK 922        TOTAL FREE ENERGY PREDICTED BY IDOCK:   -3.72 KCAL/MOL
REMARK 923 INTER-LIGAND FREE ENERGY PREDICTED BY IDOCK:   -3.44 KCAL/MOL
REMARK 924 INTRA-LIGAND FREE ENERGY PREDICTED BY IDOCK:   -0.27 KCAL/MOL
REMARK 927      BINDING AFFINITY PREDICTED BY RF-SCORE:    0.00 PKD
ROOT
HETATM    1  N   UNL     1      -8.610   6.515  70.930  1.00  0.00    -0.134 NA 
HETATM    2  H1  UNL     1      -8.491   5.543  70.644  1.00  0.00     0.000 HD 
HETATM    3  C   UNL     1      -9.629   6.670  72.000  1.00  0.00    -0.148 C  
HETATM    4  H2  UNL     1      -7.721   6.929  71.207  1.00  0.00     0.000 HD 
HETATM    5  C   UNL     1      -9.812   8.147  72.434  1.00  0.00    -0.276 C  
HETATM    6  O   UNL     1     -10.479   8.913  71.435  1.00  0.00    -0.250 OA 
HETATM    7  O   UNL     1      -8.550   8.760  72.664  1.00  0.00    -0.411 OA 
HETATM    8  H   UNL     1      -8.662   9.665  72.930  1.00  0.00     0.000 HD 
HETATM    9  C   UNL     1     -11.816   8.458  71.136  1.00  0.00    -0.282 C  
HETATM   10  H   UNL     1     -12.606   5.484  72.537  1.00  0.00     0.000 HD 
HETATM   11  C   UNL     1     -11.800   6.998  70.652  1.00  0.00    -0.330 C  
HETATM   12  C   UNL     1     -11.000   6.081  71.595  1.00  0.00    -0.272 C  
HETATM   13  H   UNL     1     -11.254   6.037  69.026  1.00  0.00     0.000 HD 
HETATM   14  O   UNL     1     -11.264   6.939  69.325  1.00  0.00    -0.211 OA 
HETATM   15  O   UNL     1     -11.764   5.846  72.786  1.00  0.00    -0.240 OA 
ENDROOT
BRANCH   9  16
HETATM   16  C   UNL     1     -12.789   8.707  72.300  1.00  0.00    -0.383 C  
HETATM   17  O   UNL     1     -13.929   7.859  72.176  1.00  0.00    -0.508 OA 
HETATM   18  H   UNL     1     -14.531   8.012  72.896  1.00  0.00     0.000 HD 
ENDBRANCH   9  16
TORSDOF 1
ENDMDL
MODEL       87
REMARK 921   NORMALIZED FREE ENERGY PREDICTED BY IDOCK:   -3.48 KCAL/MOL
REMARK 922        TOTAL FREE ENERGY PREDICTED BY IDOCK:   -3.71 KCAL/MOL
REMARK 923 INTER-LIGAND FREE ENERGY PREDICTED BY IDOCK:   -3.44 KCAL/MOL
REMARK 924 INTRA-LIGAND FREE ENERGY PREDICTED BY IDOCK:   -0.27 KCAL/MOL
REMARK 927      BINDING AFFINITY PREDICTED BY RF-SCORE:    0.00 PKD
ROOT
HETATM    1  N   UNL     1     -12.420   7.098  70.510  1.00  0.00    -0.614 NA 
HETATM    2  H1  UNL     1     -12.533   6.349  69.826  1.00  0.00     0.000 HD 
HETATM    3  C   UNL     1     -10.995   7.355  70.840  1.00  0.00    -0.253 C  
HETATM    4  H2  UNL     1     -12.886   7.951  70.202  1.00  0.00     0.000 HD 
HETATM    5  C   UNL     1     -10.824   8.493  71.880  1.00  0.00    -0.322 C  
HETATM    6  O   UNL     1     -11.241   8.087  73.181  1.00  0.00    -0.336 OA 
HETATM    7  O   UNL     1     -11.607   9.623  71.518  1.00  0.00    -0.370 OA 
HETATM    8  H   UNL     1     -11.502  10.319  72.155  1.00  0.00     0.000 HD 
HETATM    9  C   UNL     1     -10.486   6.984  73.726  1.00  0.00    -0.354 C  
HETATM   10  H   UNL     1      -8.412   5.500  71.506  1.00  0.00     0.000 HD 
HETATM   11  C   UNL     1     -10.585   5.750  72.813  1.00  0.00    -0.226 C  
HETATM   12  C   UNL     1     -10.271   6.086  71.344  1.00  0.00    -0.206 C  
HETATM   13  H   UNL     1     -11.954   4.414  72.360  1.00  0.00     0.000 HD 
HETATM   14  O   UNL     1     -11.893   5.176  72.924  1.00  0.00    -0.256 OA 
HETATM   15  O   UNL     1      -8.857   6.281  71.196  1.00  0.00    -0.140 OA 
ENDROOT
BRANCH   9  16
HETATM   16  C   UNL     1      -9.040   7.381  74.065  1.00  0.00    -0.243 C  
HETATM   17  O   UNL     1      -8.218   6.217  74.147  1.00  0.00    -0.114 OA 
HETATM   18  H   UNL     1      -7.324   6.462  74.356  1.00  0.00     0.000 HD 
ENDBRANCH   9  16
TORSDOF 1
ENDMDL
MODEL       88
REMARK 921   NORMALIZED FREE ENERGY PREDICTED BY IDOCK:   -3.47 KCAL/MOL
REMARK 922        TOTAL FREE ENERGY PREDICTED BY IDOCK:   -3.70 KCAL/MOL
REMARK 923 INTER-LIGAND FREE ENERGY PREDICTED BY IDOCK:   -3.43 KCAL/MOL
REMARK 924 INTRA-LIGAND FREE ENERGY PREDICTED BY IDOCK:   -0.27 KCAL/MOL
REMARK 927      BINDING AFFINITY PREDICTED BY RF-SCORE:    0.00 PKD
ROOT
HETATM    1  N   UNL     1      -8.567  10.897  69.554  1.00  0.00    -0.373 NA 
HETATM    2  H1  UNL     1      -8.659  11.328  68.633  1.00  0.00     0.000 HD 
HETATM    3  C   UNL     1      -8.989   9.473  69.558  1.00  0.00    -0.181 C  
HETATM    4  H2  UNL     1      -7.619  11.001  69.915  1.00  0.00     0.000 HD 
HETATM    5  C   UNL     1      -8.850   8.818  70.956  1.00  0.00    -0.211 C  
HETATM    6  O   UNL     1      -9.833   9.302  71.867  1.00  0.00    -0.235 OA 
HETATM    7  O   UNL     1      -7.575   9.106  71.518  1.00  0.00    -0.318 OA 
HETATM    8  H   UNL     1      -7.490   8.705  72.375  1.00  0.00     0.000 HD 
HETATM    9  C   UNL     1     -11.193   9.021  71.473  1.00  0.00    -0.348 C  
HETATM   10  H   UNL     1     -11.495   7.808  68.331  1.00  0.00     0.000 HD 
HETATM   11  C   UNL     1     -11.502   9.642  70.099  1.00  0.00    -0.189 C  
HETATM   12  C   UNL     1     -10.436   9.288  69.047  1.00  0.00    -0.216 C  
HETATM   13  H   UNL     1     -11.809  11.448  69.384  1.00  0.00     0.000 HD 
HETATM   14  O   UNL     1     -11.618  11.064  70.232  1.00  0.00    -0.306 OA 
HETATM   15  O   UNL     1     -10.606   7.921  68.645  1.00  0.00    -0.190 OA 
ENDROOT
BRANCH   9  16
HETATM   16  C   UNL     1     -11.525   7.522  71.555  1.00  0.00    -0.265 C  
HETATM   17  O   UNL     1     -12.627   7.216  70.703  1.00  0.00    -0.602 OA 
HETATM   18  H   UNL     1     -12.832   6.290  70.753  1.00  0.00     0.000 HD 
ENDBRANCH   9  16
TORSDOF 1
ENDMDL
MODEL       89
REMARK 921   NORMALIZED FREE ENERGY PREDICTED BY IDOCK:   -3.42 KCAL/MOL
REMARK 922        TOTAL FREE ENERGY PREDICTED BY IDOCK:   -3.65 KCAL/MOL
REMARK 923 INTER-LIGAND FREE ENERGY PREDICTED BY IDOCK:   -3.67 KCAL/MOL
REMARK 924 INTRA-LIGAND FREE ENERGY PREDICTED BY IDOCK:    0.02 KCAL/MOL
REMARK 927      BINDING AFFINITY PREDICTED BY RF-SCORE:    0.00 PKD
ROOT
HETATM    1  N   UNL     1     -10.130   9.376  68.642  1.00  0.00    -0.184 NA 
HETATM    2  H1  UNL     1      -9.474   8.737  68.193  1.00  0.00     0.000 HD 
HETATM    3  C   UNL     1     -10.828  10.250  67.665  1.00  0.00    -0.307 C  
HETATM    4  H2  UNL     1     -10.796   8.870  69.225  1.00  0.00     0.000 HD 
HETATM    5  C   UNL     1     -11.826  11.222  68.347  1.00  0.00    -0.261 C  
HETATM    6  O   UNL     1     -11.152  12.253  69.065  1.00  0.00    -0.238 OA 
HETATM    7  O   UNL     1     -12.645  10.525  69.278  1.00  0.00    -0.726 OA 
HETATM    8  H   UNL     1     -13.256  11.121  69.695  1.00  0.00     0.000 HD 
HETATM    9  C   UNL     1     -10.327  13.103  68.241  1.00  0.00    -0.252 C  
HETATM   10  H   UNL     1      -9.928  11.990  65.073  1.00  0.00     0.000 HD 
HETATM   11  C   UNL     1      -9.251  12.280  67.512  1.00  0.00    -0.181 C  
HETATM   12  C   UNL     1      -9.843  11.057  66.790  1.00  0.00    -0.197 C  
HETATM   13  H   UNL     1      -7.582  11.360  68.000  1.00  0.00     0.000 HD 
HETATM   14  O   UNL     1      -8.247  11.869  68.449  1.00  0.00    -0.156 OA 
HETATM   15  O   UNL     1     -10.534  11.494  65.611  1.00  0.00    -0.251 OA 
ENDROOT
BRANCH   9  16
HETATM   16  C   UNL     1     -11.161  13.988  67.300  1.00  0.00    -0.312 C  
HETATM   17  O   UNL     1     -12.314  14.480  67.982  1.00  0.00    -0.606 OA 
HETATM   18  H   UNL     1     -12.829  15.027  67.401  1.00  0.00     0.000 HD 
ENDBRANCH   9  16
TORSDOF 1
ENDMDL
MODEL       90
REMARK 921   NORMALIZED FREE ENERGY PREDICTED BY IDOCK:   -3.42 KCAL/MOL
REMARK 922        TOTAL FREE ENERGY PREDICTED BY IDOCK:   -3.65 KCAL/MOL
REMARK 923 INTER-LIGAND FREE ENERGY PREDICTED BY IDOCK:   -3.41 KCAL/MOL
REMARK 924 INTRA-LIGAND FREE ENERGY PREDICTED BY IDOCK:   -0.24 KCAL/MOL
REMARK 927      BINDING AFFINITY PREDICTED BY RF-SCORE:    0.00 PKD
ROOT
HETATM    1  N   UNL     1      -9.928  15.395  69.155  1.00  0.00    -0.226 NA 
HETATM    2  H1  UNL     1     -10.001  14.401  68.936  1.00  0.00     0.000 HD 
HETATM    3  C   UNL     1     -10.033  16.250  67.945  1.00  0.00    -0.241 C  
HETATM    4  H2  UNL     1     -10.615  15.668  69.858  1.00  0.00     0.000 HD 
HETATM    5  C   UNL     1      -9.922  17.761  68.277  1.00  0.00    -0.355 C  
HETATM    6  O   UNL     1      -8.595  18.126  68.644  1.00  0.00    -0.307 OA 
HETATM    7  O   UNL     1     -10.771  18.097  69.368  1.00  0.00    -0.238 OA 
HETATM    8  H   UNL     1     -10.703  19.022  69.571  1.00  0.00     0.000 HD 
HETATM    9  C   UNL     1      -7.615  17.913  67.606  1.00  0.00    -0.212 C  
HETATM   10  H   UNL     1      -8.774  16.171  64.950  1.00  0.00     0.000 HD 
HETATM   11  C   UNL     1      -7.578  16.434  67.185  1.00  0.00    -0.189 C  
HETATM   12  C   UNL     1      -8.981  15.882  66.874  1.00  0.00    -0.231 C  
HETATM   13  H   UNL     1      -6.932  14.745  67.956  1.00  0.00     0.000 HD 
HETATM   14  O   UNL     1      -6.954  15.658  68.215  1.00  0.00    -0.108 OA 
HETATM   15  O   UNL     1      -9.421  16.397  65.609  1.00  0.00    -0.486 OA 
ENDROOT
BRANCH   9  16
HETATM   16  C   UNL     1      -7.798  18.881  66.426  1.00  0.00    -0.280 C  
HETATM   17  O   UNL     1      -7.025  18.445  65.308  1.00  0.00    -0.534 OA 
HETATM   18  H   UNL     1      -7.139  19.043  64.579  1.00  0.00     0.000 HD 
ENDBRANCH   9  16
TORSDOF 1
ENDMDL
MODEL       91
REMARK 921   NORMALIZED FREE ENERGY PREDICTED BY IDOCK:   -3.40 KCAL/MOL
REMARK 922        TOTAL FREE ENERGY PREDICTED BY IDOCK:   -3.63 KCAL/MOL
REMARK 923 INTER-LIGAND FREE ENERGY PREDICTED BY IDOCK:   -3.58 KCAL/MOL
REMARK 924 INTRA-LIGAND FREE ENERGY PREDICTED BY IDOCK:   -0.04 KCAL/MOL
REMARK 927      BINDING AFFINITY PREDICTED BY RF-SCORE:    0.00 PKD
ROOT
HETATM    1  N   UNL     1     -10.894   8.798  68.325  1.00  0.00    -0.457 NA 
HETATM    2  H1  UNL     1     -10.926   8.650  69.334  1.00  0.00     0.000 HD 
HETATM    3  C   UNL     1      -9.795   9.713  67.922  1.00  0.00    -0.154 C  
HETATM    4  H2  UNL     1     -10.836   7.912  67.825  1.00  0.00     0.000 HD 
HETATM    5  C   UNL     1      -9.745   9.939  66.389  1.00  0.00    -0.212 C  
HETATM    6  O   UNL     1     -10.829  10.747  65.938  1.00  0.00    -0.138 OA 
HETATM    7  O   UNL     1      -9.826   8.698  65.698  1.00  0.00    -0.443 OA 
HETATM    8  H   UNL     1      -9.796   8.837  64.759  1.00  0.00     0.000 HD 
HETATM    9  C   UNL     1     -10.847  12.077  66.497  1.00  0.00    -0.277 C  
HETATM   10  H   UNL     1      -8.637  12.547  69.012  1.00  0.00     0.000 HD 
HETATM   11  C   UNL     1     -10.930  12.023  68.032  1.00  0.00    -0.223 C  
HETATM   12  C   UNL     1      -9.876  11.080  68.639  1.00  0.00    -0.193 C  
HETATM   13  H   UNL     1     -12.298  11.585  69.375  1.00  0.00     0.000 HD 
HETATM   14  O   UNL     1     -12.247  11.619  68.427  1.00  0.00    -0.498 OA 
HETATM   15  O   UNL     1      -8.587  11.706  68.571  1.00  0.00    -0.159 OA 
ENDROOT
BRANCH   9  16
HETATM   16  C   UNL     1      -9.687  12.942  65.977  1.00  0.00    -0.223 C  
HETATM   17  O   UNL     1      -9.998  13.451  64.680  1.00  0.00    -0.607 OA 
HETATM   18  H   UNL     1      -9.281  13.986  64.359  1.00  0.00     0.000 HD 
ENDBRANCH   9  16
TORSDOF 1
ENDMDL
MODEL       92
REMARK 921   NORMALIZED FREE ENERGY PREDICTED BY IDOCK:   -3.39 KCAL/MOL
REMARK 922        TOTAL FREE ENERGY PREDICTED BY IDOCK:   -3.61 KCAL/MOL
REMARK 923 INTER-LIGAND FREE ENERGY PREDICTED BY IDOCK:   -3.36 KCAL/MOL
REMARK 924 INTRA-LIGAND FREE ENERGY PREDICTED BY IDOCK:   -0.25 KCAL/MOL
REMARK 927      BINDING AFFINITY PREDICTED BY RF-SCORE:    0.00 PKD
ROOT
HETATM    1  N   UNL     1     -12.123  15.572  68.467  1.00  0.00    -0.535 NA 
HETATM    2  H1  UNL     1     -12.909  15.098  68.021  1.00  0.00     0.000 HD 
HETATM    3  C   UNL     1     -10.981  15.775  67.539  1.00  0.00    -0.293 C  
HETATM    4  H2  UNL     1     -12.416  16.454  68.887  1.00  0.00     0.000 HD 
HETATM    5  C   UNL     1      -9.787  16.495  68.217  1.00  0.00    -0.243 C  
HETATM    6  O   UNL     1      -9.118  15.647  69.147  1.00  0.00    -0.220 OA 
HETATM    7  O   UNL     1     -10.235  17.639  68.934  1.00  0.00    -0.360 OA 
HETATM    8  H   UNL     1      -9.503  18.079  69.349  1.00  0.00     0.000 HD 
HETATM    9  C   UNL     1      -8.537  14.465  68.557  1.00  0.00    -0.175 C  
HETATM   10  H   UNL     1      -9.444  13.940  65.342  1.00  0.00     0.000 HD 
HETATM   11  C   UNL     1      -9.616  13.615  67.863  1.00  0.00    -0.223 C  
HETATM   12  C   UNL     1     -10.493  14.449  66.912  1.00  0.00    -0.269 C  
HETATM   13  H   UNL     1     -11.093  12.445  68.425  1.00  0.00     0.000 HD 
HETATM   14  O   UNL     1     -10.427  12.970  68.853  1.00  0.00    -0.192 OA 
HETATM   15  O   UNL     1      -9.744  14.755  65.727  1.00  0.00    -0.325 OA 
ENDROOT
BRANCH   9  16
HETATM   16  C   UNL     1      -7.341  14.796  67.649  1.00  0.00    -0.186 C  
HETATM   17  O   UNL     1      -7.009  13.666  66.843  1.00  0.00    -0.341 OA 
HETATM   18  H   UNL     1      -6.271  13.870  66.282  1.00  0.00     0.000 HD 
ENDBRANCH   9  16
TORSDOF 1
ENDMDL
MODEL       93
REMARK 921   NORMALIZED FREE ENERGY PREDICTED BY IDOCK:   -3.37 KCAL/MOL
REMARK 922        TOTAL FREE ENERGY PREDICTED BY IDOCK:   -3.59 KCAL/MOL
REMARK 923 INTER-LIGAND FREE ENERGY PREDICTED BY IDOCK:   -3.35 KCAL/MOL
REMARK 924 INTRA-LIGAND FREE ENERGY PREDICTED BY IDOCK:   -0.24 KCAL/MOL
REMARK 927      BINDING AFFINITY PREDICTED BY RF-SCORE:    0.00 PKD
ROOT
HETATM    1  N   UNL     1      -9.521  11.492  69.020  1.00  0.00    -0.412 NA 
HETATM    2  H1  UNL     1     -10.211  11.266  69.737  1.00  0.00     0.000 HD 
HETATM    3  C   UNL     1     -10.100  12.293  67.910  1.00  0.00    -0.200 C  
HETATM    4  H2  UNL     1      -8.709  11.957  69.424  1.00  0.00     0.000 HD 
HETATM    5  C   UNL     1      -9.052  12.636  66.820  1.00  0.00    -0.214 C  
HETATM    6  O   UNL     1      -8.694  11.491  66.051  1.00  0.00    -0.176 OA 
HETATM    7  O   UNL     1      -7.860  13.137  67.411  1.00  0.00    -0.171 OA 
HETATM    8  H   UNL     1      -7.218  13.347  66.743  1.00  0.00     0.000 HD 
HETATM    9  C   UNL     1      -9.792  10.902  65.322  1.00  0.00    -0.265 C  
HETATM   10  H   UNL     1     -12.824  12.155  66.144  1.00  0.00     0.000 HD 
HETATM   11  C   UNL     1     -10.916  10.471  66.281  1.00  0.00     0.101 C  
HETATM   12  C   UNL     1     -11.313  11.596  67.255  1.00  0.00    -0.305 C  
HETATM   13  H   UNL     1     -11.199   9.040  67.600  1.00  0.00     0.000 HD 
HETATM   14  O   UNL     1     -10.505   9.306  67.008  1.00  0.00    -0.253 OA 
HETATM   15  O   UNL     1     -12.077  12.584  66.547  1.00  0.00    -0.572 OA 
ENDROOT
BRANCH   9  16
HETATM   16  C   UNL     1     -10.279  11.803  64.175  1.00  0.00    -0.322 C  
HETATM   17  O   UNL     1     -11.534  11.335  63.682  1.00  0.00    -0.560 OA 
HETATM   18  H   UNL     1     -11.835  11.892  62.974  1.00  0.00     0.000 HD 
ENDBRANCH   9  16
TORSDOF 1
ENDMDL
MODEL       94
REMARK 921   NORMALIZED FREE ENERGY PREDICTED BY IDOCK:   -3.33 KCAL/MOL
REMARK 922        TOTAL FREE ENERGY PREDICTED BY IDOCK:   -3.56 KCAL/MOL
REMARK 923 INTER-LIGAND FREE ENERGY PREDICTED BY IDOCK:   -3.31 KCAL/MOL
REMARK 924 INTRA-LIGAND FREE ENERGY PREDICTED BY IDOCK:   -0.25 KCAL/MOL
REMARK 927      BINDING AFFINITY PREDICTED BY RF-SCORE:    0.00 PKD
ROOT
HETATM    1  N   UNL     1      -8.694   7.128  68.594  1.00  0.00    -0.127 NA 
HETATM    2  H1  UNL     1      -7.821   7.651  68.651  1.00  0.00     0.000 HD 
HETATM    3  C   UNL     1      -9.831   7.853  69.219  1.00  0.00    -0.177 C  
HETATM    4  H2  UNL     1      -8.908   6.871  67.630  1.00  0.00     0.000 HD 
HETATM    5  C   UNL     1     -11.159   7.057  69.133  1.00  0.00    -0.101 C  
HETATM    6  O   UNL     1     -11.159   5.932  70.007  1.00  0.00    -0.359 OA 
HETATM    7  O   UNL     1     -11.365   6.568  67.813  1.00  0.00    -0.609 OA 
HETATM    8  H   UNL     1     -12.178   6.081  67.761  1.00  0.00     0.000 HD 
HETATM    9  C   UNL     1     -11.031   6.269  71.404  1.00  0.00    -0.275 C  
HETATM   10  H   UNL     1     -10.269   9.513  71.977  1.00  0.00     0.000 HD 
HETATM   11  C   UNL     1      -9.727   7.043  71.662  1.00  0.00    -0.160 C  
HETATM   12  C   UNL     1      -9.550   8.225  70.692  1.00  0.00    -0.171 C  
HETATM   13  H   UNL     1      -7.806   6.627  71.724  1.00  0.00     0.000 HD 
HETATM   14  O   UNL     1      -8.611   6.149  71.566  1.00  0.00    -0.130 OA 
HETATM   15  O   UNL     1     -10.442   9.284  71.071  1.00  0.00    -0.263 OA 
ENDROOT
BRANCH   9  16
HETATM   16  C   UNL     1     -12.281   6.978  71.948  1.00  0.00    -0.327 C  
HETATM   17  O   UNL     1     -11.932   7.813  73.052  1.00  0.00    -0.610 OA 
HETATM   18  H   UNL     1     -12.704   8.251  73.388  1.00  0.00     0.000 HD 
ENDBRANCH   9  16
TORSDOF 1
ENDMDL
MODEL       95
REMARK 921   NORMALIZED FREE ENERGY PREDICTED BY IDOCK:   -3.33 KCAL/MOL
REMARK 922        TOTAL FREE ENERGY PREDICTED BY IDOCK:   -3.56 KCAL/MOL
REMARK 923 INTER-LIGAND FREE ENERGY PREDICTED BY IDOCK:   -3.28 KCAL/MOL
REMARK 924 INTRA-LIGAND FREE ENERGY PREDICTED BY IDOCK:   -0.27 KCAL/MOL
REMARK 927      BINDING AFFINITY PREDICTED BY RF-SCORE:    0.00 PKD
ROOT
HETATM    1  N   UNL     1     -11.465   7.189  69.309  1.00  0.00    -0.490 NA 
HETATM    2  H1  UNL     1     -11.445   6.786  70.246  1.00  0.00     0.000 HD 
HETATM    3  C   UNL     1     -10.218   7.928  68.984  1.00  0.00    -0.209 C  
HETATM    4  H2  UNL     1     -11.664   6.477  68.606  1.00  0.00     0.000 HD 
HETATM    5  C   UNL     1     -10.248   8.541  67.560  1.00  0.00    -0.242 C  
HETATM    6  O   UNL     1     -11.142   9.648  67.479  1.00  0.00    -0.206 OA 
HETATM    7  O   UNL     1     -10.682   7.577  66.609  1.00  0.00    -0.485 OA 
HETATM    8  H   UNL     1     -10.700   7.953  65.737  1.00  0.00     0.000 HD 
HETATM    9  C   UNL     1     -10.793  10.753  68.339  1.00  0.00    -0.232 C  
HETATM   10  H   UNL     1      -8.326  10.058  70.546  1.00  0.00     0.000 HD 
HETATM   11  C   UNL     1     -10.754  10.308  69.812  1.00  0.00    -0.285 C  
HETATM   12  C   UNL     1      -9.908   9.038  70.014  1.00  0.00    -0.184 C  
HETATM   13  H   UNL     1     -12.066   9.821  71.193  1.00  0.00     0.000 HD 
HETATM   14  O   UNL     1     -12.090  10.097  70.284  1.00  0.00    -0.258 OA 
HETATM   15  O   UNL     1      -8.517   9.376  69.913  1.00  0.00    -0.141 OA 
ENDROOT
BRANCH   9  16
HETATM   16  C   UNL     1      -9.509  11.464  67.881  1.00  0.00    -0.174 C  
HETATM   17  O   UNL     1      -8.962  12.230  68.954  1.00  0.00    -0.378 OA 
HETATM   18  H   UNL     1      -8.169  12.669  68.671  1.00  0.00     0.000 HD 
ENDBRANCH   9  16
TORSDOF 1
ENDMDL
MODEL       96
REMARK 921   NORMALIZED FREE ENERGY PREDICTED BY IDOCK:   -3.32 KCAL/MOL
REMARK 922        TOTAL FREE ENERGY PREDICTED BY IDOCK:   -3.54 KCAL/MOL
REMARK 923 INTER-LIGAND FREE ENERGY PREDICTED BY IDOCK:   -3.51 KCAL/MOL
REMARK 924 INTRA-LIGAND FREE ENERGY PREDICTED BY IDOCK:   -0.03 KCAL/MOL
REMARK 927      BINDING AFFINITY PREDICTED BY RF-SCORE:    0.00 PKD
ROOT
HETATM    1  N   UNL     1     -12.102  15.994  68.748  1.00  0.00    -0.399 NA 
HETATM    2  H1  UNL     1     -12.646  16.696  68.247  1.00  0.00     0.000 HD 
HETATM    3  C   UNL     1     -10.720  15.862  68.217  1.00  0.00    -0.291 C  
HETATM    4  H2  UNL     1     -12.094  16.182  69.751  1.00  0.00     0.000 HD 
HETATM    5  C   UNL     1      -9.893  14.795  68.980  1.00  0.00    -0.206 C  
HETATM    6  O   UNL     1     -10.331  13.473  68.679  1.00  0.00    -0.241 OA 
HETATM    7  O   UNL     1     -10.020  14.974  70.385  1.00  0.00    -0.474 OA 
HETATM    8  H   UNL     1      -9.513  14.320  70.851  1.00  0.00     0.000 HD 
HETATM    9  C   UNL     1     -10.196  13.107  67.289  1.00  0.00    -0.243 C  
HETATM   10  H   UNL     1      -9.397  15.687  65.255  1.00  0.00     0.000 HD 
HETATM   11  C   UNL     1     -10.999  14.066  66.392  1.00  0.00    -0.308 C  
HETATM   12  C   UNL     1     -10.701  15.543  66.705  1.00  0.00    -0.305 C  
HETATM   13  H   UNL     1     -12.895  14.390  65.985  1.00  0.00     0.000 HD 
HETATM   14  O   UNL     1     -12.399  13.798  66.539  1.00  0.00    -0.428 OA 
HETATM   15  O   UNL     1      -9.408  15.884  66.185  1.00  0.00    -0.294 OA 
ENDROOT
BRANCH   9  16
HETATM   16  C   UNL     1      -8.725  12.961  66.866  1.00  0.00    -0.161 C  
HETATM   17  O   UNL     1      -8.324  11.595  66.950  1.00  0.00    -0.159 OA 
HETATM   18  H   UNL     1      -7.415  11.505  66.688  1.00  0.00     0.000 HD 
ENDBRANCH   9  16
TORSDOF 1
ENDMDL
MODEL       97
REMARK 921   NORMALIZED FREE ENERGY PREDICTED BY IDOCK:   -3.32 KCAL/MOL
REMARK 922        TOTAL FREE ENERGY PREDICTED BY IDOCK:   -3.54 KCAL/MOL
REMARK 923 INTER-LIGAND FREE ENERGY PREDICTED BY IDOCK:   -3.46 KCAL/MOL
REMARK 924 INTRA-LIGAND FREE ENERGY PREDICTED BY IDOCK:   -0.08 KCAL/MOL
REMARK 927      BINDING AFFINITY PREDICTED BY RF-SCORE:    0.00 PKD
ROOT
HETATM    1  N   UNL     1      -9.922  10.225  69.023  1.00  0.00    -0.202 NA 
HETATM    2  H1  UNL     1      -9.212   9.508  69.169  1.00  0.00     0.000 HD 
HETATM    3  C   UNL     1     -10.509  10.172  67.658  1.00  0.00    -0.245 C  
HETATM    4  H2  UNL     1     -10.648  10.176  69.737  1.00  0.00     0.000 HD 
HETATM    5  C   UNL     1     -11.588  11.262  67.435  1.00  0.00    -0.130 C  
HETATM    6  O   UNL     1     -11.013  12.563  67.335  1.00  0.00    -0.242 OA 
HETATM    7  O   UNL     1     -12.506  11.288  68.521  1.00  0.00    -0.518 OA 
HETATM    8  H   UNL     1     -13.166  11.956  68.384  1.00  0.00     0.000 HD 
HETATM    9  C   UNL     1     -10.105  12.723  66.226  1.00  0.00    -0.259 C  
HETATM   10  H   UNL     1      -9.324   9.834  64.652  1.00  0.00     0.000 HD 
HETATM   11  C   UNL     1      -8.942  11.720  66.322  1.00  0.00    -0.176 C  
HETATM   12  C   UNL     1      -9.434  10.280  66.553  1.00  0.00    -0.171 C  
HETATM   13  H   UNL     1      -7.335  11.498  67.433  1.00  0.00     0.000 HD 
HETATM   14  O   UNL     1      -8.053  12.117  67.373  1.00  0.00    -0.153 OA 
HETATM   15  O   UNL     1      -9.985   9.768  65.331  1.00  0.00    -0.320 OA 
ENDROOT
BRANCH   9  16
HETATM   16  C   UNL     1     -10.830  12.691  64.871  1.00  0.00    -0.298 C  
HETATM   17  O   UNL     1      -9.926  13.034  63.822  1.00  0.00    -0.744 OA 
HETATM   18  H   UNL     1     -10.374  13.013  62.984  1.00  0.00     0.000 HD 
ENDBRANCH   9  16
TORSDOF 1
ENDMDL
MODEL       98
REMARK 921   NORMALIZED FREE ENERGY PREDICTED BY IDOCK:   -3.29 KCAL/MOL
REMARK 922        TOTAL FREE ENERGY PREDICTED BY IDOCK:   -3.51 KCAL/MOL
REMARK 923 INTER-LIGAND FREE ENERGY PREDICTED BY IDOCK:   -3.29 KCAL/MOL
REMARK 924 INTRA-LIGAND FREE ENERGY PREDICTED BY IDOCK:   -0.23 KCAL/MOL
REMARK 927      BINDING AFFINITY PREDICTED BY RF-SCORE:    0.00 PKD
ROOT
HETATM    1  N   UNL     1     -11.782   7.675  73.194  1.00  0.00    -0.636 NA 
HETATM    2  H1  UNL     1     -11.520   7.479  74.160  1.00  0.00     0.000 HD 
HETATM    3  C   UNL     1     -11.205   6.695  72.239  1.00  0.00    -0.267 C  
HETATM    4  H2  UNL     1     -12.795   7.733  73.093  1.00  0.00     0.000 HD 
HETATM    5  C   UNL     1     -11.604   6.993  70.771  1.00  0.00    -0.338 C  
HETATM    6  O   UNL     1     -10.941   8.150  70.267  1.00  0.00    -0.248 OA 
HETATM    7  O   UNL     1     -13.002   7.230  70.671  1.00  0.00    -0.601 OA 
HETATM    8  H   UNL     1     -13.246   7.413  69.771  1.00  0.00     0.000 HD 
HETATM    9  C   UNL     1      -9.503   8.038  70.233  1.00  0.00    -0.167 C  
HETATM   10  H   UNL     1      -8.291   5.316  71.831  1.00  0.00     0.000 HD 
HETATM   11  C   UNL     1      -8.942   7.772  71.641  1.00  0.00    -0.129 C  
HETATM   12  C   UNL     1      -9.665   6.609  72.345  1.00  0.00    -0.154 C  
HETATM   13  H   UNL     1      -8.690   8.802  73.297  1.00  0.00     0.000 HD 
HETATM   14  O   UNL     1      -9.036   8.966  72.428  1.00  0.00    -0.383 OA 
HETATM   15  O   UNL     1      -9.237   5.368  71.766  1.00  0.00    -0.141 OA 
ENDROOT
BRANCH   9  16
HETATM   16  C   UNL     1      -9.022   7.025  69.182  1.00  0.00    -0.134 C  
HETATM   17  O   UNL     1      -7.632   6.756  69.358  1.00  0.00    -0.092 OA 
HETATM   18  H   UNL     1      -7.335   6.130  68.709  1.00  0.00     0.000 HD 
ENDBRANCH   9  16
TORSDOF 1
ENDMDL
MODEL       99
REMARK 921   NORMALIZED FREE ENERGY PREDICTED BY IDOCK:   -3.27 KCAL/MOL
REMARK 922        TOTAL FREE ENERGY PREDICTED BY IDOCK:   -3.49 KCAL/MOL
REMARK 923 INTER-LIGAND FREE ENERGY PREDICTED BY IDOCK:   -3.43 KCAL/MOL
REMARK 924 INTRA-LIGAND FREE ENERGY PREDICTED BY IDOCK:   -0.06 KCAL/MOL
REMARK 927      BINDING AFFINITY PREDICTED BY RF-SCORE:    0.00 PKD
ROOT
HETATM    1  N   UNL     1     -10.966  11.864  64.448  1.00  0.00    -0.319 NA 
HETATM    2  H1  UNL     1     -10.270  11.783  63.706  1.00  0.00     0.000 HD 
HETATM    3  C   UNL     1     -10.390  12.398  65.709  1.00  0.00    -0.263 C  
HETATM    4  H2  UNL     1     -11.765  12.421  64.144  1.00  0.00     0.000 HD 
HETATM    5  C   UNL     1     -11.448  12.521  66.837  1.00  0.00    -0.353 C  
HETATM    6  O   UNL     1     -11.836  11.246  67.339  1.00  0.00    -0.590 OA 
HETATM    7  O   UNL     1     -12.623  13.160  66.353  1.00  0.00    -0.332 OA 
HETATM    8  H   UNL     1     -13.270  13.235  67.044  1.00  0.00     0.000 HD 
HETATM    9  C   UNL     1     -10.758  10.494  67.937  1.00  0.00    -0.260 C  
HETATM   10  H   UNL     1      -7.695  11.834  67.433  1.00  0.00     0.000 HD 
HETATM   11  C   UNL     1      -9.629  10.256  66.920  1.00  0.00    -0.173 C  
HETATM   12  C   UNL     1      -9.198  11.554  66.214  1.00  0.00    -0.211 C  
HETATM   13  H   UNL     1      -9.351   9.134  65.329  1.00  0.00     0.000 HD 
HETATM   14  O   UNL     1     -10.048   9.281  65.957  1.00  0.00    -0.297 OA 
HETATM   15  O   UNL     1      -8.428  12.353  67.124  1.00  0.00    -0.175 OA 
ENDROOT
BRANCH   9  16
HETATM   16  C   UNL     1     -10.273  11.119  69.255  1.00  0.00    -0.083 C  
HETATM   17  O   UNL     1      -9.495  10.176  69.989  1.00  0.00    -0.375 OA 
HETATM   18  H   UNL     1      -9.194  10.562  70.803  1.00  0.00     0.000 HD 
ENDBRANCH   9  16
TORSDOF 1
ENDMDL
MODEL      100
REMARK 921   NORMALIZED FREE ENERGY PREDICTED BY IDOCK:   -3.27 KCAL/MOL
REMARK 922        TOTAL FREE ENERGY PREDICTED BY IDOCK:   -3.49 KCAL/MOL
REMARK 923 INTER-LIGAND FREE ENERGY PREDICTED BY IDOCK:   -3.23 KCAL/MOL
REMARK 924 INTRA-LIGAND FREE ENERGY PREDICTED BY IDOCK:   -0.26 KCAL/MOL
REMARK 927      BINDING AFFINITY PREDICTED BY RF-SCORE:    0.00 PKD
ROOT
HETATM    1  N   UNL     1     -10.164  11.938  66.548  1.00  0.00    -0.200 NA 
HETATM    2  H1  UNL     1     -10.835  11.171  66.523  1.00  0.00     0.000 HD 
HETATM    3  C   UNL     1     -10.177  12.660  67.847  1.00  0.00    -0.220 C  
HETATM    4  H2  UNL     1      -9.225  11.614  66.318  1.00  0.00     0.000 HD 
HETATM    5  C   UNL     1      -9.157  13.827  67.886  1.00  0.00    -0.193 C  
HETATM    6  O   UNL     1      -9.570  14.918  67.068  1.00  0.00    -0.225 OA 
HETATM    7  O   UNL     1      -7.887  13.398  67.410  1.00  0.00    -0.161 OA 
HETATM    8  H   UNL     1      -7.263  14.113  67.434  1.00  0.00     0.000 HD 
HETATM    9  C   UNL     1     -10.819  15.518  67.470  1.00  0.00    -0.306 C  
HETATM   10  H   UNL     1     -12.487  13.777  69.840  1.00  0.00     0.000 HD 
HETATM   11  C   UNL     1     -11.955  14.481  67.450  1.00  0.00    -0.335 C  
HETATM   12  C   UNL     1     -11.582  13.194  68.207  1.00  0.00    -0.335 C  
HETATM   13  H   UNL     1     -13.004  13.537  66.080  1.00  0.00     0.000 HD 
HETATM   14  O   UNL     1     -12.303  14.178  66.093  1.00  0.00    -0.450 OA 
HETATM   15  O   UNL     1     -11.623  13.449  69.619  1.00  0.00    -0.285 OA 
ENDROOT
BRANCH   9  16
HETATM   16  C   UNL     1     -10.700  16.269  68.806  1.00  0.00    -0.309 C  
HETATM   17  O   UNL     1     -11.971  16.332  69.450  1.00  0.00    -0.213 OA 
HETATM   18  H   UNL     1     -11.898  16.795  70.275  1.00  0.00     0.000 HD 
ENDBRANCH   9  16
TORSDOF 1
ENDMDL
MODEL      101
REMARK 921   NORMALIZED FREE ENERGY PREDICTED BY IDOCK:   -3.27 KCAL/MOL
REMARK 922        TOTAL FREE ENERGY PREDICTED BY IDOCK:   -3.48 KCAL/MOL
REMARK 923 INTER-LIGAND FREE ENERGY PREDICTED BY IDOCK:   -3.21 KCAL/MOL
REMARK 924 INTRA-LIGAND FREE ENERGY PREDICTED BY IDOCK:   -0.27 KCAL/MOL
REMARK 927      BINDING AFFINITY PREDICTED BY RF-SCORE:    0.00 PKD
ROOT
HETATM    1  N   UNL     1      -9.160   9.443  68.648  1.00  0.00    -0.131 NA 
HETATM    2  H1  UNL     1      -8.210   9.140  68.436  1.00  0.00     0.000 HD 
HETATM    3  C   UNL     1      -9.381   9.637  70.104  1.00  0.00    -0.251 C  
HETATM    4  H2  UNL     1      -9.404  10.284  68.124  1.00  0.00     0.000 HD 
HETATM    5  C   UNL     1     -10.826  10.098  70.427  1.00  0.00    -0.301 C  
HETATM    6  O   UNL     1     -11.771   9.048  70.238  1.00  0.00    -0.147 OA 
HETATM    7  O   UNL     1     -11.211  11.172  69.577  1.00  0.00    -0.244 OA 
HETATM    8  H   UNL     1     -12.096  11.453  69.775  1.00  0.00     0.000 HD 
HETATM    9  C   UNL     1     -11.560   7.903  71.090  1.00  0.00    -0.280 C  
HETATM   10  H   UNL     1      -8.638   7.968  72.791  1.00  0.00     0.000 HD 
HETATM   11  C   UNL     1     -10.162   7.302  70.861  1.00  0.00    -0.196 C  
HETATM   12  C   UNL     1      -9.053   8.368  70.922  1.00  0.00    -0.160 C  
HETATM   13  H   UNL     1      -9.271   6.253  69.456  1.00  0.00     0.000 HD 
HETATM   14  O   UNL     1     -10.134   6.624  69.598  1.00  0.00    -0.175 OA 
HETATM   15  O   UNL     1      -8.840   8.749  72.289  1.00  0.00    -0.367 OA 
ENDROOT
BRANCH   9  16
HETATM   16  C   UNL     1     -11.858   8.213  72.566  1.00  0.00    -0.376 C  
HETATM   17  O   UNL     1     -11.189   7.277  73.409  1.00  0.00    -0.584 OA 
HETATM   18  H   UNL     1     -11.372   7.469  74.321  1.00  0.00     0.000 HD 
ENDBRANCH   9  16
TORSDOF 1
ENDMDL
MODEL      102
REMARK 921   NORMALIZED FREE ENERGY PREDICTED BY IDOCK:   -3.26 KCAL/MOL
REMARK 922        TOTAL FREE ENERGY PREDICTED BY IDOCK:   -3.48 KCAL/MOL
REMARK 923 INTER-LIGAND FREE ENERGY PREDICTED BY IDOCK:   -3.45 KCAL/MOL
REMARK 924 INTRA-LIGAND FREE ENERGY PREDICTED BY IDOCK:   -0.03 KCAL/MOL
REMARK 927      BINDING AFFINITY PREDICTED BY RF-SCORE:    0.00 PKD
ROOT
HETATM    1  N   UNL     1     -10.036   6.820  74.511  1.00  0.00    -0.472 NA 
HETATM    2  H1  UNL     1     -10.675   7.165  75.228  1.00  0.00     0.000 HD 
HETATM    3  C   UNL     1     -10.042   7.671  73.293  1.00  0.00    -0.334 C  
HETATM    4  H2  UNL     1      -9.092   6.713  74.880  1.00  0.00     0.000 HD 
HETATM    5  C   UNL     1      -9.072   7.149  72.202  1.00  0.00    -0.129 C  
HETATM    6  O   UNL     1      -9.555   5.955  71.592  1.00  0.00    -0.152 OA 
HETATM    7  O   UNL     1      -7.800   6.851  72.764  1.00  0.00    -0.097 OA 
HETATM    8  H   UNL     1      -7.206   6.531  72.096  1.00  0.00     0.000 HD 
HETATM    9  C   UNL     1     -10.817   6.110  70.908  1.00  0.00    -0.281 C  
HETATM   10  H   UNL     1     -12.337   9.077  71.473  1.00  0.00     0.000 HD 
HETATM   11  C   UNL     1     -11.907   6.599  71.877  1.00  0.00    -0.332 C  
HETATM   12  C   UNL     1     -11.457   7.825  72.691  1.00  0.00    -0.375 C  
HETATM   13  H   UNL     1     -12.955   5.830  73.353  1.00  0.00     0.000 HD 
HETATM   14  O   UNL     1     -12.282   5.529  72.754  1.00  0.00    -0.133 OA 
HETATM   15  O   UNL     1     -11.467   8.983  71.843  1.00  0.00    -0.348 OA 
ENDROOT
BRANCH   9  16
HETATM   16  C   UNL     1     -10.690   6.976  69.644  1.00  0.00    -0.241 C  
HETATM   17  O   UNL     1     -11.480   6.426  68.591  1.00  0.00    -0.560 OA 
HETATM   18  H   UNL     1     -11.403   6.961  67.810  1.00  0.00     0.000 HD 
ENDBRANCH   9  16
TORSDOF 1
ENDMDL
MODEL      103
REMARK 921   NORMALIZED FREE ENERGY PREDICTED BY IDOCK:   -3.24 KCAL/MOL
REMARK 922        TOTAL FREE ENERGY PREDICTED BY IDOCK:   -3.46 KCAL/MOL
REMARK 923 INTER-LIGAND FREE ENERGY PREDICTED BY IDOCK:   -3.19 KCAL/MOL
REMARK 924 INTRA-LIGAND FREE ENERGY PREDICTED BY IDOCK:   -0.27 KCAL/MOL
REMARK 927      BINDING AFFINITY PREDICTED BY RF-SCORE:    0.00 PKD
ROOT
HETATM    1  N   UNL     1     -11.862  10.821  67.869  1.00  0.00    -0.742 NA 
HETATM    2  H1  UNL     1     -12.669  10.516  67.325  1.00  0.00     0.000 HD 
HETATM    3  C   UNL     1     -10.886  11.588  67.054  1.00  0.00    -0.273 C  
HETATM    4  H2  UNL     1     -12.152  11.352  68.691  1.00  0.00     0.000 HD 
HETATM    5  C   UNL     1      -9.659  12.052  67.881  1.00  0.00    -0.196 C  
HETATM    6  O   UNL     1      -8.802  10.963  68.213  1.00  0.00    -0.129 OA 
HETATM    7  O   UNL     1     -10.076  12.650  69.102  1.00  0.00    -0.412 OA 
HETATM    8  H   UNL     1      -9.324  12.934  69.608  1.00  0.00     0.000 HD 
HETATM    9  C   UNL     1      -8.232  10.290  67.071  1.00  0.00    -0.122 C  
HETATM   10  H   UNL     1      -9.561  11.234  64.108  1.00  0.00     0.000 HD 
HETATM   11  C   UNL     1      -9.338   9.735  66.156  1.00  0.00    -0.191 C  
HETATM   12  C   UNL     1     -10.402  10.795  65.819  1.00  0.00    -0.230 C  
HETATM   13  H   UNL     1     -10.632   8.255  66.214  1.00  0.00     0.000 HD 
HETATM   14  O   UNL     1      -9.949   8.598  66.779  1.00  0.00    -0.223 OA 
HETATM   15  O   UNL     1      -9.858  11.722  64.867  1.00  0.00    -0.249 OA 
ENDROOT
BRANCH   9  16
HETATM   16  C   UNL     1      -7.209  11.166  66.330  1.00  0.00    -0.094 C  
HETATM   17  O   UNL     1      -7.044  10.703  64.991  1.00  0.00    -0.332 OA 
HETATM   18  H   UNL     1      -6.412  11.244  64.533  1.00  0.00     0.000 HD 
ENDBRANCH   9  16
TORSDOF 1
ENDMDL
MODEL      104
REMARK 921   NORMALIZED FREE ENERGY PREDICTED BY IDOCK:   -3.20 KCAL/MOL
REMARK 922        TOTAL FREE ENERGY PREDICTED BY IDOCK:   -3.41 KCAL/MOL
REMARK 923 INTER-LIGAND FREE ENERGY PREDICTED BY IDOCK:   -3.39 KCAL/MOL
REMARK 924 INTRA-LIGAND FREE ENERGY PREDICTED BY IDOCK:   -0.03 KCAL/MOL
REMARK 927      BINDING AFFINITY PREDICTED BY RF-SCORE:    0.00 PKD
ROOT
HETATM    1  N   UNL     1      -6.536  15.948  67.160  1.00  0.00    -0.300 NA 
HETATM    2  H1  UNL     1      -5.861  15.681  67.876  1.00  0.00     0.000 HD 
HETATM    3  C   UNL     1      -7.871  16.265  67.730  1.00  0.00    -0.142 C  
HETATM    4  H2  UNL     1      -6.186  16.720  66.594  1.00  0.00     0.000 HD 
HETATM    5  C   UNL     1      -8.898  16.671  66.642  1.00  0.00    -0.248 C  
HETATM    6  O   UNL     1      -9.299  15.556  65.851  1.00  0.00    -0.338 OA 
HETATM    7  O   UNL     1      -8.337  17.636  65.760  1.00  0.00    -0.537 OA 
HETATM    8  H   UNL     1      -8.967  17.884  65.094  1.00  0.00     0.000 HD 
HETATM    9  C   UNL     1      -9.957  14.510  66.595  1.00  0.00    -0.270 C  
HETATM   10  H   UNL     1      -9.812  14.902  69.951  1.00  0.00     0.000 HD 
HETATM   11  C   UNL     1      -9.041  13.971  67.708  1.00  0.00    -0.192 C  
HETATM   12  C   UNL     1      -8.443  15.099  68.567  1.00  0.00    -0.160 C  
HETATM   13  H   UNL     1      -7.431  12.848  67.813  1.00  0.00     0.000 HD 
HETATM   14  O   UNL     1      -7.997  13.180  67.127  1.00  0.00    -0.157 OA 
HETATM   15  O   UNL     1      -9.460  15.619  69.436  1.00  0.00    -0.251 OA 
ENDROOT
BRANCH   9  16
HETATM   16  C   UNL     1     -11.344  14.940  67.100  1.00  0.00    -0.343 C  
HETATM   17  O   UNL     1     -12.365  14.293  66.342  1.00  0.00    -0.448 OA 
HETATM   18  H   UNL     1     -13.222  14.558  66.654  1.00  0.00     0.000 HD 
ENDBRANCH   9  16
TORSDOF 1
ENDMDL
MODEL      105
REMARK 921   NORMALIZED FREE ENERGY PREDICTED BY IDOCK:   -3.20 KCAL/MOL
REMARK 922        TOTAL FREE ENERGY PREDICTED BY IDOCK:   -3.41 KCAL/MOL
REMARK 923 INTER-LIGAND FREE ENERGY PREDICTED BY IDOCK:   -3.15 KCAL/MOL
REMARK 924 INTRA-LIGAND FREE ENERGY PREDICTED BY IDOCK:   -0.26 KCAL/MOL
REMARK 927      BINDING AFFINITY PREDICTED BY RF-SCORE:    0.00 PKD
ROOT
HETATM    1  N   UNL     1     -11.395   6.616  66.720  1.00  0.00    -0.795 NA 
HETATM    2  H1  UNL     1     -11.590   7.189  67.541  1.00  0.00     0.000 HD 
HETATM    3  C   UNL     1     -10.653   5.374  67.059  1.00  0.00    -0.226 C  
HETATM    4  H2  UNL     1     -12.250   6.405  66.207  1.00  0.00     0.000 HD 
HETATM    5  C   UNL     1     -10.356   4.502  65.811  1.00  0.00    -0.258 C  
HETATM    6  O   UNL     1      -9.357   5.090  64.982  1.00  0.00    -0.122 OA 
HETATM    7  O   UNL     1     -11.527   4.348  65.019  1.00  0.00    -1.090 OA 
HETATM    8  H   UNL     1     -11.345   3.815  64.254  1.00  0.00     0.000 HD 
HETATM    9  C   UNL     1      -8.075   5.248  65.624  1.00  0.00    -0.117 C  
HETATM   10  H   UNL     1      -8.114   4.649  68.951  1.00  0.00     0.000 HD 
HETATM   11  C   UNL     1      -8.197   6.129  66.879  1.00  0.00    -0.106 C  
HETATM   12  C   UNL     1      -9.333   5.664  67.808  1.00  0.00    -0.110 C  
HETATM   13  H   UNL     1      -8.475   8.037  67.264  1.00  0.00     0.000 HD 
HETATM   14  O   UNL     1      -8.399   7.493  66.489  1.00  0.00    -0.117 OA 
HETATM   15  O   UNL     1      -8.925   4.470  68.491  1.00  0.00    -0.103 OA 
ENDROOT
BRANCH   9  16
HETATM   16  C   UNL     1      -7.386   3.899  65.888  1.00  0.00    -0.073 C  
HETATM   17  O   UNL     1      -6.327   4.065  66.830  1.00  0.00    -0.035 OA 
HETATM   18  H   UNL     1      -5.902   3.231  66.994  1.00  0.00     0.000 HD 
ENDBRANCH   9  16
TORSDOF 1
ENDMDL
MODEL      106
REMARK 921   NORMALIZED FREE ENERGY PREDICTED BY IDOCK:   -3.19 KCAL/MOL
REMARK 922        TOTAL FREE ENERGY PREDICTED BY IDOCK:   -3.40 KCAL/MOL
REMARK 923 INTER-LIGAND FREE ENERGY PREDICTED BY IDOCK:   -3.35 KCAL/MOL
REMARK 924 INTRA-LIGAND FREE ENERGY PREDICTED BY IDOCK:   -0.05 KCAL/MOL
REMARK 927      BINDING AFFINITY PREDICTED BY RF-SCORE:    0.00 PKD
ROOT
HETATM    1  N   UNL     1     -10.185   6.887  71.889  1.00  0.00    -0.189 NA 
HETATM    2  H1  UNL     1      -9.539   6.578  72.616  1.00  0.00     0.000 HD 
HETATM    3  C   UNL     1     -10.542   5.796  70.946  1.00  0.00    -0.262 C  
HETATM    4  H2  UNL     1     -11.019   7.310  72.294  1.00  0.00     0.000 HD 
HETATM    5  C   UNL     1     -11.523   6.266  69.841  1.00  0.00    -0.389 C  
HETATM    6  O   UNL     1     -10.886   7.122  68.897  1.00  0.00    -0.200 OA 
HETATM    7  O   UNL     1     -12.604   6.995  70.410  1.00  0.00    -0.618 OA 
HETATM    8  H   UNL     1     -13.205   7.283  69.733  1.00  0.00     0.000 HD 
HETATM    9  C   UNL     1      -9.802   6.500  68.175  1.00  0.00    -0.131 C  
HETATM   10  H   UNL     1      -8.897   3.473  69.379  1.00  0.00     0.000 HD 
HETATM   11  C   UNL     1      -8.714   6.004  69.143  1.00  0.00    -0.120 C  
HETATM   12  C   UNL     1      -9.297   5.158  70.289  1.00  0.00    -0.156 C  
HETATM   13  H   UNL     1      -7.321   6.818  70.266  1.00  0.00     0.000 HD 
HETATM   14  O   UNL     1      -7.992   7.125  69.668  1.00  0.00    -0.119 OA 
HETATM   15  O   UNL     1      -9.662   3.865  69.783  1.00  0.00    -0.205 OA 
ENDROOT
BRANCH   9  16
HETATM   16  C   UNL     1     -10.296   5.417  67.202  1.00  0.00    -0.236 C  
HETATM   17  O   UNL     1     -11.294   5.954  66.335  1.00  0.00    -0.730 OA 
HETATM   18  H   UNL     1     -11.599   5.284  65.734  1.00  0.00     0.000 HD 
ENDBRANCH   9  16
TORSDOF 1
ENDMDL
MODEL      107
REMARK 921   NORMALIZED FREE ENERGY PREDICTED BY IDOCK:   -3.18 KCAL/MOL
REMARK 922        TOTAL FREE ENERGY PREDICTED BY IDOCK:   -3.39 KCAL/MOL
REMARK 923 INTER-LIGAND FREE ENERGY PREDICTED BY IDOCK:   -3.12 KCAL/MOL
REMARK 924 INTRA-LIGAND FREE ENERGY PREDICTED BY IDOCK:   -0.27 KCAL/MOL
REMARK 927      BINDING AFFINITY PREDICTED BY RF-SCORE:    0.00 PKD
ROOT
HETATM    1  N   UNL     1     -10.427   9.847  68.206  1.00  0.00    -0.198 NA 
HETATM    2  H1  UNL     1     -11.177   9.164  68.306  1.00  0.00     0.000 HD 
HETATM    3  C   UNL     1     -10.561  10.979  69.159  1.00  0.00    -0.219 C  
HETATM    4  H2  UNL     1      -9.512   9.404  68.289  1.00  0.00     0.000 HD 
HETATM    5  C   UNL     1      -9.421  12.019  69.007  1.00  0.00     0.284 C  
HETATM    6  O   UNL     1      -9.550  12.775  67.806  1.00  0.00    -0.192 OA 
HETATM    7  O   UNL     1      -8.156  11.371  68.965  1.00  0.00    -0.304 OA 
HETATM    8  H   UNL     1      -7.457  12.008  68.872  1.00  0.00     0.000 HD 
HETATM    9  C   UNL     1     -10.761  13.556  67.727  1.00  0.00    -0.252 C  
HETATM   10  H   UNL     1     -13.006  12.870  70.161  1.00  0.00     0.000 HD 
HETATM   11  C   UNL     1     -12.002  12.651  67.829  1.00  0.00    -0.243 C  
HETATM   12  C   UNL     1     -11.926  11.693  69.032  1.00  0.00    -0.305 C  
HETATM   13  H   UNL     1     -12.922  11.353  66.675  1.00  0.00     0.000 HD 
HETATM   14  O   UNL     1     -12.157  11.911  66.612  1.00  0.00    -0.587 OA 
HETATM   15  O   UNL     1     -12.167  12.432  70.239  1.00  0.00    -0.327 OA 
ENDROOT
BRANCH   9  16
HETATM   16  C   UNL     1     -10.769  14.720  68.730  1.00  0.00    -0.253 C  
HETATM   17  O   UNL     1     -12.103  15.183  68.936  1.00  0.00    -0.525 OA 
HETATM   18  H   UNL     1     -12.108  15.902  69.556  1.00  0.00     0.000 HD 
ENDBRANCH   9  16
TORSDOF 1
ENDMDL
MODEL      108
REMARK 921   NORMALIZED FREE ENERGY PREDICTED BY IDOCK:   -3.16 KCAL/MOL
REMARK 922        TOTAL FREE ENERGY PREDICTED BY IDOCK:   -3.37 KCAL/MOL
REMARK 923 INTER-LIGAND FREE ENERGY PREDICTED BY IDOCK:   -3.32 KCAL/MOL
REMARK 924 INTRA-LIGAND FREE ENERGY PREDICTED BY IDOCK:   -0.05 KCAL/MOL
REMARK 927      BINDING AFFINITY PREDICTED BY RF-SCORE:    0.00 PKD
ROOT
HETATM    1  N   UNL     1     -10.258  15.172  65.000  1.00  0.00    -0.346 NA 
HETATM    2  H1  UNL     1     -10.659  16.086  64.791  1.00  0.00     0.000 HD 
HETATM    3  C   UNL     1     -11.287  14.101  65.057  1.00  0.00    -0.350 C  
HETATM    4  H2  UNL     1      -9.518  14.935  64.339  1.00  0.00     0.000 HD 
HETATM    5  C   UNL     1     -10.677  12.711  65.374  1.00  0.00    -0.280 C  
HETATM    6  O   UNL     1     -10.244  12.620  66.729  1.00  0.00    -0.232 OA 
HETATM    7  O   UNL     1      -9.545  12.462  64.550  1.00  0.00    -0.484 OA 
HETATM    8  H   UNL     1      -9.172  11.610  64.745  1.00  0.00     0.000 HD 
HETATM    9  C   UNL     1     -11.301  12.779  67.699  1.00  0.00    -0.310 C  
HETATM   10  H   UNL     1     -14.239  13.811  66.382  1.00  0.00     0.000 HD 
HETATM   11  C   UNL     1     -11.992  14.144  67.535  1.00  0.00    -0.384 C  
HETATM   12  C   UNL     1     -12.405  14.416  66.077  1.00  0.00    -0.318 C  
HETATM   13  H   UNL     1     -11.549  16.024  67.906  1.00  0.00     0.000 HD 
HETATM   14  O   UNL     1     -11.123  15.181  68.008  1.00  0.00    -0.284 OA 
HETATM   15  O   UNL     1     -13.552  13.617  65.755  1.00  0.00    -0.201 OA 
ENDROOT
BRANCH   9  16
HETATM   16  C   UNL     1     -12.279  11.594  67.693  1.00  0.00     0.537 C  
HETATM   17  O   UNL     1     -11.577  10.376  67.934  1.00  0.00    -0.669 OA 
HETATM   18  H   UNL     1     -12.181   9.643  67.931  1.00  0.00     0.000 HD 
ENDBRANCH   9  16
TORSDOF 1
ENDMDL
MODEL      109
REMARK 921   NORMALIZED FREE ENERGY PREDICTED BY IDOCK:   -3.16 KCAL/MOL
REMARK 922        TOTAL FREE ENERGY PREDICTED BY IDOCK:   -3.37 KCAL/MOL
REMARK 923 INTER-LIGAND FREE ENERGY PREDICTED BY IDOCK:   -3.32 KCAL/MOL
REMARK 924 INTRA-LIGAND FREE ENERGY PREDICTED BY IDOCK:   -0.05 KCAL/MOL
REMARK 927      BINDING AFFINITY PREDICTED BY RF-SCORE:    0.00 PKD
ROOT
HETATM    1  N   UNL     1      -9.545  16.048  66.296  1.00  0.00    -0.283 NA 
HETATM    2  H1  UNL     1      -9.455  15.664  65.355  1.00  0.00     0.000 HD 
HETATM    3  C   UNL     1      -9.073  17.454  66.382  1.00  0.00    -0.248 C  
HETATM    4  H2  UNL     1     -10.501  15.960  66.640  1.00  0.00     0.000 HD 
HETATM    5  C   UNL     1      -9.210  18.038  67.812  1.00  0.00    -0.262 C  
HETATM    6  O   UNL     1      -8.257  17.472  68.708  1.00  0.00    -0.273 OA 
HETATM    7  O   UNL     1     -10.502  17.767  68.341  1.00  0.00    -0.369 OA 
HETATM    8  H   UNL     1     -10.585  18.125  69.217  1.00  0.00     0.000 HD 
HETATM    9  C   UNL     1      -6.883  17.724  68.346  1.00  0.00    -0.221 C  
HETATM   10  H   UNL     1      -6.493  19.091  65.278  1.00  0.00     0.000 HD 
HETATM   11  C   UNL     1      -6.576  17.166  66.945  1.00  0.00    -0.205 C  
HETATM   12  C   UNL     1      -7.614  17.613  65.900  1.00  0.00    -0.125 C  
HETATM   13  H   UNL     1      -6.323  15.391  66.138  1.00  0.00     0.000 HD 
HETATM   14  O   UNL     1      -6.512  15.735  67.003  1.00  0.00    -0.299 OA 
HETATM   15  O   UNL     1      -7.390  18.993  65.574  1.00  0.00    -0.477 OA 
ENDROOT
BRANCH   9  16
HETATM   16  C   UNL     1      -6.500  19.203  68.512  1.00  0.00    -0.247 C  
HETATM   17  O   UNL     1      -6.771  19.634  69.845  1.00  0.00    -0.308 OA 
HETATM   18  H   UNL     1      -6.534  20.548  69.949  1.00  0.00     0.000 HD 
ENDBRANCH   9  16
TORSDOF 1
ENDMDL
MODEL      110
REMARK 921   NORMALIZED FREE ENERGY PREDICTED BY IDOCK:   -3.15 KCAL/MOL
REMARK 922        TOTAL FREE ENERGY PREDICTED BY IDOCK:   -3.36 KCAL/MOL
REMARK 923 INTER-LIGAND FREE ENERGY PREDICTED BY IDOCK:   -3.09 KCAL/MOL
REMARK 924 INTRA-LIGAND FREE ENERGY PREDICTED BY IDOCK:   -0.27 KCAL/MOL
REMARK 927      BINDING AFFINITY PREDICTED BY RF-SCORE:    0.00 PKD
ROOT
HETATM    1  N   UNL     1      -9.970   8.305  66.345  1.00  0.00    -0.420 NA 
HETATM    2  H1  UNL     1      -9.880   7.773  65.479  1.00  0.00     0.000 HD 
HETATM    3  C   UNL     1     -10.648   9.611  66.138  1.00  0.00     0.085 C  
HETATM    4  H2  UNL     1     -10.439   7.758  67.066  1.00  0.00     0.000 HD 
HETATM    5  C   UNL     1     -10.786  10.421  67.453  1.00  0.00    -0.286 C  
HETATM    6  O   UNL     1      -9.531  10.935  67.892  1.00  0.00    -0.155 OA 
HETATM    7  O   UNL     1     -11.294   9.599  68.496  1.00  0.00    -0.492 OA 
HETATM    8  H   UNL     1     -11.378  10.095  69.301  1.00  0.00     0.000 HD 
HETATM    9  C   UNL     1      -8.913  11.853  66.966  1.00  0.00    -0.190 C  
HETATM   10  H   UNL     1     -10.429  12.000  63.947  1.00  0.00     0.000 HD 
HETATM   11  C   UNL     1      -8.676  11.179  65.604  1.00  0.00    -0.122 C  
HETATM   12  C   UNL     1      -9.939  10.478  65.073  1.00  0.00    -0.322 C  
HETATM   13  H   UNL     1      -7.449   9.827  64.873  1.00  0.00     0.000 HD 
HETATM   14  O   UNL     1      -7.596  10.244  65.714  1.00  0.00    -0.131 OA 
HETATM   15  O   UNL     1     -10.865  11.468  64.602  1.00  0.00    -0.309 OA 
ENDROOT
BRANCH   9  16
HETATM   16  C   UNL     1      -9.680  13.182  66.866  1.00  0.00    -0.243 C  
HETATM   17  O   UNL     1      -9.314  13.871  65.671  1.00  0.00    -0.503 OA 
HETATM   18  H   UNL     1      -9.788  14.692  65.609  1.00  0.00     0.000 HD 
ENDBRANCH   9  16
TORSDOF 1
ENDMDL
MODEL      111
REMARK 921   NORMALIZED FREE ENERGY PREDICTED BY IDOCK:   -3.11 KCAL/MOL
REMARK 922        TOTAL FREE ENERGY PREDICTED BY IDOCK:   -3.32 KCAL/MOL
REMARK 923 INTER-LIGAND FREE ENERGY PREDICTED BY IDOCK:   -3.28 KCAL/MOL
REMARK 924 INTRA-LIGAND FREE ENERGY PREDICTED BY IDOCK:   -0.04 KCAL/MOL
REMARK 927      BINDING AFFINITY PREDICTED BY RF-SCORE:    0.00 PKD
ROOT
HETATM    1  N   UNL     1     -12.190  10.750  69.029  1.00  0.00    -0.761 NA 
HETATM    2  H1  UNL     1     -12.568   9.823  69.224  1.00  0.00     0.000 HD 
HETATM    3  C   UNL     1     -11.437  10.798  67.749  1.00  0.00    -0.202 C  
HETATM    4  H2  UNL     1     -12.924  11.458  69.049  1.00  0.00     0.000 HD 
HETATM    5  C   UNL     1     -10.863  12.207  67.452  1.00  0.00    -0.245 C  
HETATM    6  O   UNL     1      -9.776  12.528  68.315  1.00  0.00    -0.219 OA 
HETATM    7  O   UNL     1     -11.860  13.203  67.640  1.00  0.00    -0.354 OA 
HETATM    8  H   UNL     1     -11.508  14.066  67.458  1.00  0.00     0.000 HD 
HETATM    9  C   UNL     1      -8.642  11.644  68.191  1.00  0.00    -0.158 C  
HETATM   10  H   UNL     1      -9.230   8.902  66.303  1.00  0.00     0.000 HD 
HETATM   11  C   UNL     1      -9.046  10.191  68.493  1.00  0.00    -0.134 C  
HETATM   12  C   UNL     1     -10.294   9.758  67.703  1.00  0.00    -0.230 C  
HETATM   13  H   UNL     1      -9.520   9.141  70.087  1.00  0.00     0.000 HD 
HETATM   14  O   UNL     1      -9.270  10.038  69.900  1.00  0.00    -0.215 OA 
HETATM   15  O   UNL     1      -9.932   9.541  66.331  1.00  0.00    -0.236 OA 
ENDROOT
BRANCH   9  16
HETATM   16  C   UNL     1      -7.919  11.811  66.844  1.00  0.00    -0.149 C  
HETATM   17  O   UNL     1      -6.958  12.862  66.929  1.00  0.00    -0.377 OA 
HETATM   18  H   UNL     1      -6.511  12.965  66.097  1.00  0.00     0.000 HD 
ENDBRANCH   9  16
TORSDOF 1
ENDMDL
MODEL      112
REMARK 921   NORMALIZED FREE ENERGY PREDICTED BY IDOCK:   -3.09 KCAL/MOL
REMARK 922        TOTAL FREE ENERGY PREDICTED BY IDOCK:   -3.30 KCAL/MOL
REMARK 923 INTER-LIGAND FREE ENERGY PREDICTED BY IDOCK:   -3.03 KCAL/MOL
REMARK 924 INTRA-LIGAND FREE ENERGY PREDICTED BY IDOCK:   -0.27 KCAL/MOL
REMARK 927      BINDING AFFINITY PREDICTED BY RF-SCORE:    0.00 PKD
ROOT
HETATM    1  N   UNL     1      -9.733  12.616  68.659  1.00  0.00    -0.404 NA 
HETATM    2  H1  UNL     1      -9.241  12.876  69.513  1.00  0.00     0.000 HD 
HETATM    3  C   UNL     1     -10.507  11.357  68.813  1.00  0.00    -0.204 C  
HETATM    4  H2  UNL     1     -10.329  13.375  68.332  1.00  0.00     0.000 HD 
HETATM    5  C   UNL     1     -11.256  10.960  67.514  1.00  0.00    -0.293 C  
HETATM    6  O   UNL     1     -10.360  10.501  66.506  1.00  0.00    -0.233 OA 
HETATM    7  O   UNL     1     -11.957  12.076  66.980  1.00  0.00    -0.609 OA 
HETATM    8  H   UNL     1     -12.416  11.833  66.185  1.00  0.00     0.000 HD 
HETATM    9  C   UNL     1      -9.619   9.317  66.869  1.00  0.00    -0.174 C  
HETATM   10  H   UNL     1      -9.927   8.439  70.120  1.00  0.00     0.000 HD 
HETATM   11  C   UNL     1      -8.785   9.563  68.139  1.00  0.00    -0.120 C  
HETATM   12  C   UNL     1      -9.622  10.177  69.275  1.00  0.00    -0.225 C  
HETATM   13  H   UNL     1      -7.159  10.564  68.609  1.00  0.00     0.000 HD 
HETATM   14  O   UNL     1      -7.673  10.412  67.825  1.00  0.00    -0.089 OA 
HETATM   15  O   UNL     1     -10.471   9.164  69.835  1.00  0.00    -0.206 OA 
ENDROOT
BRANCH   9  16
HETATM   16  C   UNL     1     -10.517   8.073  66.959  1.00  0.00    -0.340 C  
HETATM   17  O   UNL     1      -9.897   7.077  67.771  1.00  0.00    -0.132 OA 
HETATM   18  H   UNL     1     -10.452   6.308  67.827  1.00  0.00     0.000 HD 
ENDBRANCH   9  16
TORSDOF 1
ENDMDL
MODEL      113
REMARK 921   NORMALIZED FREE ENERGY PREDICTED BY IDOCK:   -3.08 KCAL/MOL
REMARK 922        TOTAL FREE ENERGY PREDICTED BY IDOCK:   -3.29 KCAL/MOL
REMARK 923 INTER-LIGAND FREE ENERGY PREDICTED BY IDOCK:   -3.13 KCAL/MOL
REMARK 924 INTRA-LIGAND FREE ENERGY PREDICTED BY IDOCK:   -0.16 KCAL/MOL
REMARK 927      BINDING AFFINITY PREDICTED BY RF-SCORE:    0.00 PKD
ROOT
HETATM    1  N   UNL     1     -11.395   6.402  67.275  1.00  0.00    -0.731 NA 
HETATM    2  H1  UNL     1     -11.540   5.394  67.333  1.00  0.00     0.000 HD 
HETATM    3  C   UNL     1     -10.133   6.831  67.931  1.00  0.00    -0.159 C  
HETATM    4  H2  UNL     1     -11.436   6.725  66.309  1.00  0.00     0.000 HD 
HETATM    5  C   UNL     1      -9.913   8.364  67.844  1.00  0.00    -0.184 C  
HETATM    6  O   UNL     1     -10.810   9.076  68.692  1.00  0.00    -0.142 OA 
HETATM    7  O   UNL     1     -10.129   8.826  66.516  1.00  0.00    -0.274 OA 
HETATM    8  H   UNL     1      -9.995   9.764  66.464  1.00  0.00     0.000 HD 
HETATM    9  C   UNL     1     -10.665   8.771  70.095  1.00  0.00    -0.224 C  
HETATM   10  H   UNL     1      -8.639   6.139  70.731  1.00  0.00     0.000 HD 
HETATM   11  C   UNL     1     -10.890   7.271  70.354  1.00  0.00    -0.246 C  
HETATM   12  C   UNL     1     -10.058   6.385  69.408  1.00  0.00    -0.173 C  
HETATM   13  H   UNL     1     -12.424   6.041  70.382  1.00  0.00     0.000 HD 
HETATM   14  O   UNL     1     -12.285   6.967  70.222  1.00  0.00    -0.243 OA 
HETATM   15  O   UNL     1      -8.685   6.413  69.823  1.00  0.00    -0.136 OA 
ENDROOT
BRANCH   9  16
HETATM   16  C   UNL     1      -9.340   9.298  70.671  1.00  0.00    -0.270 C  
HETATM   17  O   UNL     1      -9.178   8.852  72.016  1.00  0.00    -0.348 OA 
HETATM   18  H   UNL     1      -8.359   9.177  72.372  1.00  0.00     0.000 HD 
ENDBRANCH   9  16
TORSDOF 1
ENDMDL
MODEL      114
REMARK 921   NORMALIZED FREE ENERGY PREDICTED BY IDOCK:   -3.06 KCAL/MOL
REMARK 922        TOTAL FREE ENERGY PREDICTED BY IDOCK:   -3.27 KCAL/MOL
REMARK 923 INTER-LIGAND FREE ENERGY PREDICTED BY IDOCK:   -3.00 KCAL/MOL
REMARK 924 INTRA-LIGAND FREE ENERGY PREDICTED BY IDOCK:   -0.27 KCAL/MOL
REMARK 927      BINDING AFFINITY PREDICTED BY RF-SCORE:    0.00 PKD
ROOT
HETATM    1  N   UNL     1      -9.891  13.510  67.175  1.00  0.00    -0.240 NA 
HETATM    2  H1  UNL     1      -9.964  14.142  67.972  1.00  0.00     0.000 HD 
HETATM    3  C   UNL     1     -10.915  12.434  67.210  1.00  0.00    -0.260 C  
HETATM    4  H2  UNL     1      -9.927  14.022  66.294  1.00  0.00     0.000 HD 
HETATM    5  C   UNL     1     -10.804  11.472  65.999  1.00  0.00    -0.276 C  
HETATM    6  O   UNL     1      -9.655  10.634  66.093  1.00  0.00    -0.176 OA 
HETATM    7  O   UNL     1     -10.694  12.206  64.786  1.00  0.00    -0.277 OA 
HETATM    8  H   UNL     1     -10.626  11.616  64.045  1.00  0.00     0.000 HD 
HETATM    9  C   UNL     1      -9.651   9.764  67.244  1.00  0.00    -0.157 C  
HETATM   10  H   UNL     1     -12.084  10.439  69.493  1.00  0.00     0.000 HD 
HETATM   11  C   UNL     1      -9.723  10.581  68.546  1.00  0.00    -0.165 C  
HETATM   12  C   UNL     1     -10.862  11.617  68.521  1.00  0.00    -0.219 C  
HETATM   13  H   UNL     1      -8.510  11.734  69.579  1.00  0.00     0.000 HD 
HETATM   14  O   UNL     1      -8.465  11.229  68.775  1.00  0.00    -0.155 OA 
HETATM   15  O   UNL     1     -12.117  10.941  68.687  1.00  0.00    -0.527 OA 
ENDROOT
BRANCH   9  16
HETATM   16  C   UNL     1     -10.724   8.668  67.150  1.00  0.00    -0.129 C  
HETATM   17  O   UNL     1     -11.039   8.175  68.451  1.00  0.00    -0.414 OA 
HETATM   18  H   UNL     1     -11.703   7.498  68.393  1.00  0.00     0.000 HD 
ENDBRANCH   9  16
TORSDOF 1
ENDMDL
MODEL      115
REMARK 921   NORMALIZED FREE ENERGY PREDICTED BY IDOCK:   -3.06 KCAL/MOL
REMARK 922        TOTAL FREE ENERGY PREDICTED BY IDOCK:   -3.26 KCAL/MOL
REMARK 923 INTER-LIGAND FREE ENERGY PREDICTED BY IDOCK:   -3.24 KCAL/MOL
REMARK 924 INTRA-LIGAND FREE ENERGY PREDICTED BY IDOCK:   -0.02 KCAL/MOL
REMARK 927      BINDING AFFINITY PREDICTED BY RF-SCORE:    0.00 PKD
ROOT
HETATM    1  N   UNL     1     -10.138  11.669  65.352  1.00  0.00    -0.248 NA 
HETATM    2  H1  UNL     1     -10.815  11.310  64.678  1.00  0.00     0.000 HD 
HETATM    3  C   UNL     1      -9.426  10.584  66.074  1.00  0.00    -0.183 C  
HETATM    4  H2  UNL     1      -9.480  12.308  64.907  1.00  0.00     0.000 HD 
HETATM    5  C   UNL     1      -8.398  11.131  67.098  1.00  0.00    -0.136 C  
HETATM    6  O   UNL     1      -9.037  11.714  68.231  1.00  0.00    -0.176 OA 
HETATM    7  O   UNL     1      -7.588  12.138  66.505  1.00  0.00    -0.379 OA 
HETATM    8  H   UNL     1      -6.958  12.472  67.133  1.00  0.00     0.000 HD 
HETATM    9  C   UNL     1      -9.848  10.793  68.991  1.00  0.00    -0.194 C  
HETATM   10  H   UNL     1     -10.305   7.796  67.492  1.00  0.00     0.000 HD 
HETATM   11  C   UNL     1     -10.952  10.182  68.111  1.00  0.00    -0.259 C  
HETATM   12  C   UNL     1     -10.398   9.619  66.789  1.00  0.00    -0.222 C  
HETATM   13  H   UNL     1     -12.639  10.792  67.306  1.00  0.00     0.000 HD 
HETATM   14  O   UNL     1     -11.957  11.169  67.849  1.00  0.00    -0.624 OA 
HETATM   15  O   UNL     1      -9.707   8.389  67.053  1.00  0.00    -0.171 OA 
ENDROOT
BRANCH   9  16
HETATM   16  C   UNL     1      -8.999   9.742  69.725  1.00  0.00    -0.221 C  
HETATM   17  O   UNL     1      -7.901  10.370  70.384  1.00  0.00    -0.431 OA 
HETATM   18  H   UNL     1      -7.377   9.721  70.839  1.00  0.00     0.000 HD 
ENDBRANCH   9  16
TORSDOF 1
ENDMDL
MODEL      116
REMARK 921   NORMALIZED FREE ENERGY PREDICTED BY IDOCK:   -3.06 KCAL/MOL
REMARK 922        TOTAL FREE ENERGY PREDICTED BY IDOCK:   -3.26 KCAL/MOL
REMARK 923 INTER-LIGAND FREE ENERGY PREDICTED BY IDOCK:   -2.99 KCAL/MOL
REMARK 924 INTRA-LIGAND FREE ENERGY PREDICTED BY IDOCK:   -0.27 KCAL/MOL
REMARK 927      BINDING AFFINITY PREDICTED BY RF-SCORE:    0.00 PKD
ROOT
HETATM    1  N   UNL     1      -9.481   4.679  67.938  1.00  0.00    -0.144 NA 
HETATM    2  H1  UNL     1      -8.591   4.180  67.912  1.00  0.00     0.000 HD 
HETATM    3  C   UNL     1      -9.319   6.105  68.324  1.00  0.00    -0.116 C  
HETATM    4  H2  UNL     1      -9.978   4.593  67.053  1.00  0.00     0.000 HD 
HETATM    5  C   UNL     1     -10.670   6.864  68.365  1.00  0.00    -0.211 C  
HETATM    6  O   UNL     1     -11.468   6.465  69.476  1.00  0.00    -0.407 OA 
HETATM    7  O   UNL     1     -11.425   6.605  67.188  1.00  0.00    -0.779 OA 
HETATM    8  H   UNL     1     -12.253   7.070  67.213  1.00  0.00     0.000 HD 
HETATM    9  C   UNL     1     -10.867   6.731  70.761  1.00  0.00    -0.249 C  
HETATM   10  H   UNL     1      -7.632   7.702  70.596  1.00  0.00     0.000 HD 
HETATM   11  C   UNL     1      -9.514   6.009  70.891  1.00  0.00    -0.168 C  
HETATM   12  C   UNL     1      -8.598   6.268  69.681  1.00  0.00    -0.133 C  
HETATM   13  H   UNL     1      -8.900   4.158  71.137  1.00  0.00     0.000 HD 
HETATM   14  O   UNL     1      -9.735   4.603  71.057  1.00  0.00    -0.163 OA 
HETATM   15  O   UNL     1      -8.075   7.602  69.761  1.00  0.00    -0.120 OA 
ENDROOT
BRANCH   9  16
HETATM   16  C   UNL     1     -10.789   8.236  71.066  1.00  0.00    -0.233 C  
HETATM   17  O   UNL     1      -9.846   8.477  72.109  1.00  0.00    -0.268 OA 
HETATM   18  H   UNL     1      -9.797   9.407  72.297  1.00  0.00     0.000 HD 
ENDBRANCH   9  16
TORSDOF 1
ENDMDL
MODEL      117
REMARK 921   NORMALIZED FREE ENERGY PREDICTED BY IDOCK:   -3.02 KCAL/MOL
REMARK 922        TOTAL FREE ENERGY PREDICTED BY IDOCK:   -3.23 KCAL/MOL
REMARK 923 INTER-LIGAND FREE ENERGY PREDICTED BY IDOCK:   -2.97 KCAL/MOL
REMARK 924 INTRA-LIGAND FREE ENERGY PREDICTED BY IDOCK:   -0.25 KCAL/MOL
REMARK 927      BINDING AFFINITY PREDICTED BY RF-SCORE:    0.00 PKD
ROOT
HETATM    1  N   UNL     1     -12.133   6.828  69.880  1.00  0.00    -0.625 NA 
HETATM    2  H1  UNL     1     -12.234   6.507  70.843  1.00  0.00     0.000 HD 
HETATM    3  C   UNL     1     -10.782   6.549  69.328  1.00  0.00    -0.280 C  
HETATM    4  H2  UNL     1     -12.862   6.437  69.283  1.00  0.00     0.000 HD 
HETATM    5  C   UNL     1     -10.628   7.038  67.864  1.00  0.00    -0.218 C  
HETATM    6  O   UNL     1     -10.568   8.459  67.784  1.00  0.00    -0.229 OA 
HETATM    7  O   UNL     1     -11.735   6.617  67.078  1.00  0.00    -0.599 OA 
HETATM    8  H   UNL     1     -11.641   6.916  66.181  1.00  0.00     0.000 HD 
HETATM    9  C   UNL     1      -9.445   9.042  68.478  1.00  0.00    -0.143 C  
HETATM   10  H   UNL     1      -7.738   6.862  70.419  1.00  0.00     0.000 HD 
HETATM   11  C   UNL     1      -9.474   8.673  69.972  1.00  0.00    -0.166 C  
HETATM   12  C   UNL     1      -9.658   7.161  70.194  1.00  0.00    -0.168 C  
HETATM   13  H   UNL     1     -10.537   9.175  71.548  1.00  0.00     0.000 HD 
HETATM   14  O   UNL     1     -10.519   9.404  70.626  1.00  0.00    -0.245 OA 
HETATM   15  O   UNL     1      -8.429   6.486  69.887  1.00  0.00    -0.132 OA 
ENDROOT
BRANCH   9  16
HETATM   16  C   UNL     1      -8.106   8.719  67.794  1.00  0.00    -0.107 C  
HETATM   17  O   UNL     1      -7.045   8.762  68.747  1.00  0.00    -0.062 OA 
HETATM   18  H   UNL     1      -6.218   8.562  68.324  1.00  0.00     0.000 HD 
ENDBRANCH   9  16
TORSDOF 1
ENDMDL
MODEL      118
REMARK 921   NORMALIZED FREE ENERGY PREDICTED BY IDOCK:   -3.02 KCAL/MOL
REMARK 922        TOTAL FREE ENERGY PREDICTED BY IDOCK:   -3.22 KCAL/MOL
REMARK 923 INTER-LIGAND FREE ENERGY PREDICTED BY IDOCK:   -3.17 KCAL/MOL
REMARK 924 INTRA-LIGAND FREE ENERGY PREDICTED BY IDOCK:   -0.05 KCAL/MOL
REMARK 927      BINDING AFFINITY PREDICTED BY RF-SCORE:    0.00 PKD
ROOT
HETATM    1  N   UNL     1      -8.914   5.185  71.269  1.00  0.00    -0.137 NA 
HETATM    2  H1  UNL     1      -8.210   4.870  71.937  1.00  0.00     0.000 HD 
HETATM    3  C   UNL     1      -9.079   6.661  71.275  1.00  0.00    -0.151 C  
HETATM    4  H2  UNL     1      -8.711   4.841  70.331  1.00  0.00     0.000 HD 
HETATM    5  C   UNL     1     -10.150   7.141  70.260  1.00  0.00    -0.188 C  
HETATM    6  O   UNL     1     -11.468   6.808  70.686  1.00  0.00    -0.306 OA 
HETATM    7  O   UNL     1      -9.947   6.528  68.993  1.00  0.00    -0.140 OA 
HETATM    8  H   UNL     1     -10.603   6.822  68.372  1.00  0.00     0.000 HD 
HETATM    9  C   UNL     1     -11.858   7.418  71.934  1.00  0.00    -0.297 C  
HETATM   10  H   UNL     1      -9.324   8.945  73.573  1.00  0.00     0.000 HD 
HETATM   11  C   UNL     1     -10.899   7.007  73.065  1.00  0.00    -0.309 C  
HETATM   12  C   UNL     1      -9.422   7.208  72.679  1.00  0.00    -0.147 C  
HETATM   13  H   UNL     1     -10.547   5.386  74.121  1.00  0.00     0.000 HD 
HETATM   14  O   UNL     1     -11.139   5.640  73.423  1.00  0.00    -0.269 OA 
HETATM   15  O   UNL     1      -9.113   8.609  72.710  1.00  0.00    -0.327 OA 
ENDROOT
BRANCH   9  16
HETATM   16  C   UNL     1     -12.037   8.940  71.807  1.00  0.00    -0.362 C  
HETATM   17  O   UNL     1     -13.072   9.236  70.872  1.00  0.00    -0.539 OA 
HETATM   18  H   UNL     1     -13.183  10.176  70.794  1.00  0.00     0.000 HD 
ENDBRANCH   9  16
TORSDOF 1
ENDMDL
MODEL      119
REMARK 921   NORMALIZED FREE ENERGY PREDICTED BY IDOCK:   -2.97 KCAL/MOL
REMARK 922        TOTAL FREE ENERGY PREDICTED BY IDOCK:   -3.18 KCAL/MOL
REMARK 923 INTER-LIGAND FREE ENERGY PREDICTED BY IDOCK:   -2.90 KCAL/MOL
REMARK 924 INTRA-LIGAND FREE ENERGY PREDICTED BY IDOCK:   -0.27 KCAL/MOL
REMARK 927      BINDING AFFINITY PREDICTED BY RF-SCORE:    0.00 PKD
ROOT
HETATM    1  N   UNL     1     -10.201   4.795  72.853  1.00  0.00    -0.167 NA 
HETATM    2  H1  UNL     1      -9.489   4.080  72.703  1.00  0.00     0.000 HD 
HETATM    3  C   UNL     1     -10.355   5.695  71.681  1.00  0.00    -0.215 C  
HETATM    4  H2  UNL     1     -11.093   4.376  73.115  1.00  0.00     0.000 HD 
HETATM    5  C   UNL     1     -11.437   6.782  71.908  1.00  0.00    -0.282 C  
HETATM    6  O   UNL     1     -11.007   7.770  72.841  1.00  0.00    -0.361 OA 
HETATM    7  O   UNL     1     -12.628   6.202  72.426  1.00  0.00    -0.542 OA 
HETATM    8  H   UNL     1     -13.290   6.868  72.565  1.00  0.00     0.000 HD 
HETATM    9  C   UNL     1      -9.838   8.507  72.424  1.00  0.00    -0.288 C  
HETATM   10  H   UNL     1      -8.316   7.244  69.681  1.00  0.00     0.000 HD 
HETATM   11  C   UNL     1      -8.650   7.558  72.187  1.00  0.00    -0.114 C  
HETATM   12  C   UNL     1      -9.024   6.371  71.282  1.00  0.00    -0.142 C  
HETATM   13  H   UNL     1      -7.421   6.502  73.301  1.00  0.00     0.000 HD 
HETATM   14  O   UNL     1      -8.154   7.087  73.447  1.00  0.00    -0.099 OA 
HETATM   15  O   UNL     1      -9.135   6.828  69.926  1.00  0.00    -0.144 OA 
ENDROOT
BRANCH   9  16
HETATM   16  C   UNL     1     -10.129   9.432  71.231  1.00  0.00    -0.238 C  
HETATM   17  O   UNL     1      -8.918   9.738  70.541  1.00  0.00    -0.313 OA 
HETATM   18  H   UNL     1      -9.098  10.310  69.803  1.00  0.00     0.000 HD 
ENDBRANCH   9  16
TORSDOF 1
ENDMDL
MODEL      120
REMARK 921   NORMALIZED FREE ENERGY PREDICTED BY IDOCK:   -2.96 KCAL/MOL
REMARK 922        TOTAL FREE ENERGY PREDICTED BY IDOCK:   -3.16 KCAL/MOL
REMARK 923 INTER-LIGAND FREE ENERGY PREDICTED BY IDOCK:   -3.14 KCAL/MOL
REMARK 924 INTRA-LIGAND FREE ENERGY PREDICTED BY IDOCK:   -0.03 KCAL/MOL
REMARK 927      BINDING AFFINITY PREDICTED BY RF-SCORE:    0.00 PKD
ROOT
HETATM    1  N   UNL     1     -10.245  16.284  69.915  1.00  0.00    -0.167 NA 
HETATM    2  H1  UNL     1      -9.446  16.761  70.334  1.00  0.00     0.000 HD 
HETATM    3  C   UNL     1      -9.838  15.305  68.874  1.00  0.00    -0.221 C  
HETATM    4  H2  UNL     1     -10.825  15.843  70.628  1.00  0.00     0.000 HD 
HETATM    5  C   UNL     1     -11.052  14.580  68.237  1.00  0.00    -0.261 C  
HETATM    6  O   UNL     1     -11.801  15.448  67.389  1.00  0.00    -0.152 OA 
HETATM    7  O   UNL     1     -11.937  14.107  69.244  1.00  0.00    -0.309 OA 
HETATM    8  H   UNL     1     -12.680  13.663  68.854  1.00  0.00     0.000 HD 
HETATM    9  C   UNL     1     -11.057  15.960  66.264  1.00  0.00    -0.014 C  
HETATM   10  H   UNL     1      -7.740  15.316  66.393  1.00  0.00     0.000 HD 
HETATM   11  C   UNL     1      -9.821  16.745  66.738  1.00  0.00    -0.276 C  
HETATM   12  C   UNL     1      -8.985  15.954  67.760  1.00  0.00    -0.176 C  
HETATM   13  H   UNL     1      -9.472  18.483  67.589  1.00  0.00     0.000 HD 
HETATM   14  O   UNL     1     -10.235  17.998  67.296  1.00  0.00    -0.333 OA 
HETATM   15  O   UNL     1      -8.264  14.917  67.078  1.00  0.00    -0.206 OA 
ENDROOT
BRANCH   9  16
HETATM   16  C   UNL     1     -10.728  14.865  65.236  1.00  0.00    -0.393 C  
HETATM   17  O   UNL     1     -11.528  15.034  64.066  1.00  0.00    -0.626 OA 
HETATM   18  H   UNL     1     -11.325  14.358  63.431  1.00  0.00     0.000 HD 
ENDBRANCH   9  16
TORSDOF 1
ENDMDL
MODEL      121
REMARK 921   NORMALIZED FREE ENERGY PREDICTED BY IDOCK:   -2.94 KCAL/MOL
REMARK 922        TOTAL FREE ENERGY PREDICTED BY IDOCK:   -3.14 KCAL/MOL
REMARK 923 INTER-LIGAND FREE ENERGY PREDICTED BY IDOCK:   -2.87 KCAL/MOL
REMARK 924 INTRA-LIGAND FREE ENERGY PREDICTED BY IDOCK:   -0.27 KCAL/MOL
REMARK 927      BINDING AFFINITY PREDICTED BY RF-SCORE:    0.00 PKD
ROOT
HETATM    1  N   UNL     1      -7.755   8.682  72.476  1.00  0.00    -0.351 NA 
HETATM    2  H1  UNL     1      -7.497   9.644  72.258  1.00  0.00     0.000 HD 
HETATM    3  C   UNL     1      -8.012   7.874  71.256  1.00  0.00    -0.092 C  
HETATM    4  H2  UNL     1      -7.055   8.238  73.070  1.00  0.00     0.000 HD 
HETATM    5  C   UNL     1      -8.405   6.411  71.587  1.00  0.00    -0.125 C  
HETATM    6  O   UNL     1      -9.715   6.327  72.140  1.00  0.00    -0.155 OA 
HETATM    7  O   UNL     1      -7.507   5.855  72.541  1.00  0.00    -0.093 OA 
HETATM    8  H   UNL     1      -7.748   4.959  72.743  1.00  0.00     0.000 HD 
HETATM    9  C   UNL     1     -10.759   6.789  71.257  1.00  0.00    -0.226 C  
HETATM   10  H   UNL     1      -9.627   8.345  68.477  1.00  0.00     0.000 HD 
HETATM   11  C   UNL     1     -10.528   8.257  70.859  1.00  0.00    -0.196 C  
HETATM   12  C   UNL     1      -9.095   8.504  70.352  1.00  0.00    -0.152 C  
HETATM   13  H   UNL     1     -10.672  10.014  71.730  1.00  0.00     0.000 HD 
HETATM   14  O   UNL     1     -10.815   9.107  71.976  1.00  0.00    -0.352 OA 
HETATM   15  O   UNL     1      -8.961   7.957  69.032  1.00  0.00    -0.144 OA 
ENDROOT
BRANCH   9  16
HETATM   16  C   UNL     1     -10.960   5.853  70.054  1.00  0.00    -0.360 C  
HETATM   17  O   UNL     1     -11.634   6.542  69.002  1.00  0.00    -0.619 OA 
HETATM   18  H   UNL     1     -11.758   5.964  68.259  1.00  0.00     0.000 HD 
ENDBRANCH   9  16
TORSDOF 1
ENDMDL
MODEL      122
REMARK 921   NORMALIZED FREE ENERGY PREDICTED BY IDOCK:   -2.89 KCAL/MOL
REMARK 922        TOTAL FREE ENERGY PREDICTED BY IDOCK:   -3.09 KCAL/MOL
REMARK 923 INTER-LIGAND FREE ENERGY PREDICTED BY IDOCK:   -3.04 KCAL/MOL
REMARK 924 INTRA-LIGAND FREE ENERGY PREDICTED BY IDOCK:   -0.05 KCAL/MOL
REMARK 927      BINDING AFFINITY PREDICTED BY RF-SCORE:    0.00 PKD
ROOT
HETATM    1  N   UNL     1      -9.062  10.873  69.442  1.00  0.00    -0.400 NA 
HETATM    2  H1  UNL     1      -8.131  11.257  69.603  1.00  0.00     0.000 HD 
HETATM    3  C   UNL     1      -9.072   9.387  69.456  1.00  0.00    -0.165 C  
HETATM    4  H2  UNL     1      -9.736  11.251  70.107  1.00  0.00     0.000 HD 
HETATM    5  C   UNL     1     -10.487   8.802  69.211  1.00  0.00    -0.219 C  
HETATM    6  O   UNL     1     -10.904   8.974  67.860  1.00  0.00    -0.178 OA 
HETATM    7  O   UNL     1     -11.446   9.453  70.036  1.00  0.00    -0.390 OA 
HETATM    8  H   UNL     1     -12.313   9.094  69.885  1.00  0.00     0.000 HD 
HETATM    9  C   UNL     1     -10.066   8.305  66.894  1.00  0.00    -0.296 C  
HETATM   10  H   UNL     1      -7.200   7.057  68.183  1.00  0.00     0.000 HD 
HETATM   11  C   UNL     1      -8.615   8.807  66.988  1.00  0.00    -0.116 C  
HETATM   12  C   UNL     1      -8.083   8.784  68.433  1.00  0.00    -0.117 C  
HETATM   13  H   UNL     1      -7.635  10.443  66.506  1.00  0.00     0.000 HD 
HETATM   14  O   UNL     1      -8.530  10.132  66.448  1.00  0.00    -0.128 OA 
HETATM   15  O   UNL     1      -7.807   7.428  68.812  1.00  0.00    -0.116 OA 
ENDROOT
BRANCH   9  16
HETATM   16  C   UNL     1     -10.190   6.775  66.977  1.00  0.00    -0.237 C  
HETATM   17  O   UNL     1     -11.560   6.387  66.882  1.00  0.00    -0.677 OA 
HETATM   18  H   UNL     1     -11.636   5.442  66.933  1.00  0.00     0.000 HD 
ENDBRANCH   9  16
TORSDOF 1
ENDMDL
MODEL      123
REMARK 921   NORMALIZED FREE ENERGY PREDICTED BY IDOCK:   -2.87 KCAL/MOL
REMARK 922        TOTAL FREE ENERGY PREDICTED BY IDOCK:   -3.07 KCAL/MOL
REMARK 923 INTER-LIGAND FREE ENERGY PREDICTED BY IDOCK:   -3.03 KCAL/MOL
REMARK 924 INTRA-LIGAND FREE ENERGY PREDICTED BY IDOCK:   -0.04 KCAL/MOL
REMARK 927      BINDING AFFINITY PREDICTED BY RF-SCORE:    0.00 PKD
ROOT
HETATM    1  N   UNL     1      -9.579   8.714  72.288  1.00  0.00    -0.300 NA 
HETATM    2  H1  UNL     1      -9.648   8.216  73.176  1.00  0.00     0.000 HD 
HETATM    3  C   UNL     1     -10.726   8.429  71.388  1.00  0.00    -0.237 C  
HETATM    4  H2  UNL     1      -9.469   9.717  72.436  1.00  0.00     0.000 HD 
HETATM    5  C   UNL     1     -10.620   9.185  70.038  1.00  0.00    -0.227 C  
HETATM    6  O   UNL     1      -9.597   8.644  69.207  1.00  0.00    -0.163 OA 
HETATM    7  O   UNL     1     -10.308  10.555  70.255  1.00  0.00    -0.434 OA 
HETATM    8  H   UNL     1     -10.243  11.018  69.428  1.00  0.00     0.000 HD 
HETATM    9  C   UNL     1      -9.807   7.266  68.832  1.00  0.00    -0.158 C  
HETATM   10  H   UNL     1     -12.340   5.757  70.488  1.00  0.00     0.000 HD 
HETATM   11  C   UNL     1      -9.901   6.369  70.079  1.00  0.00    -0.168 C  
HETATM   12  C   UNL     1     -10.897   6.917  71.117  1.00  0.00    -0.240 C  
HETATM   13  H   UNL     1      -8.658   5.671  71.433  1.00  0.00     0.000 HD 
HETATM   14  O   UNL     1      -8.601   6.224  70.664  1.00  0.00    -0.135 OA 
HETATM   15  O   UNL     1     -12.235   6.686  70.654  1.00  0.00    -0.377 OA 
ENDROOT
BRANCH   9  16
HETATM   16  C   UNL     1     -10.994   7.100  67.869  1.00  0.00    -0.084 C  
HETATM   17  O   UNL     1     -10.591   7.410  66.536  1.00  0.00    -0.503 OA 
HETATM   18  H   UNL     1     -11.324   7.307  65.940  1.00  0.00     0.000 HD 
ENDBRANCH   9  16
TORSDOF 1
ENDMDL
MODEL      124
REMARK 921   NORMALIZED FREE ENERGY PREDICTED BY IDOCK:   -2.86 KCAL/MOL
REMARK 922        TOTAL FREE ENERGY PREDICTED BY IDOCK:   -3.05 KCAL/MOL
REMARK 923 INTER-LIGAND FREE ENERGY PREDICTED BY IDOCK:   -3.60 KCAL/MOL
REMARK 924 INTRA-LIGAND FREE ENERGY PREDICTED BY IDOCK:    0.54 KCAL/MOL
REMARK 927      BINDING AFFINITY PREDICTED BY RF-SCORE:    0.00 PKD
ROOT
HETATM    1  N   UNL     1     -11.335  14.755  66.441  1.00  0.00    -0.348 NA 
HETATM    2  H1  UNL     1     -12.340  14.924  66.494  1.00  0.00     0.000 HD 
HETATM    3  C   UNL     1     -10.591  15.420  67.542  1.00  0.00    -0.283 C  
HETATM    4  H2  UNL     1     -11.130  13.757  66.410  1.00  0.00     0.000 HD 
HETATM    5  C   UNL     1      -9.064  15.165  67.463  1.00  0.00    -0.183 C  
HETATM    6  O   UNL     1      -8.464  15.876  66.383  1.00  0.00    -0.291 OA 
HETATM    7  O   UNL     1      -8.797  13.783  67.260  1.00  0.00    -0.200 OA 
HETATM    8  H   UNL     1      -7.862  13.627  67.211  1.00  0.00     0.000 HD 
HETATM    9  C   UNL     1      -8.584  17.310  66.481  1.00  0.00    -0.264 C  
HETATM   10  H   UNL     1     -10.667  18.357  68.931  1.00  0.00     0.000 HD 
HETATM   11  C   UNL     1     -10.063  17.732  66.535  1.00  0.00    -0.358 C  
HETATM   12  C   UNL     1     -10.855  16.942  67.593  1.00  0.00    -0.244 C  
HETATM   13  H   UNL     1     -11.570  17.825  65.275  1.00  0.00     0.000 HD 
HETATM   14  O   UNL     1     -10.656  17.566  65.242  1.00  0.00    -0.664 OA 
HETATM   15  O   UNL     1     -10.504  17.421  68.900  1.00  0.00    -0.345 OA 
ENDROOT
BRANCH   9  16
HETATM   16  C   UNL     1      -7.741  17.888  67.629  1.00  0.00    -0.213 C  
HETATM   17  O   UNL     1      -7.499  16.885  68.614  1.00  0.00    -0.202 OA 
HETATM   18  H   UNL     1      -6.978  17.242  69.324  1.00  0.00     0.000 HD 
ENDBRANCH   9  16
TORSDOF 1
ENDMDL
MODEL      125
REMARK 921   NORMALIZED FREE ENERGY PREDICTED BY IDOCK:   -2.82 KCAL/MOL
REMARK 922        TOTAL FREE ENERGY PREDICTED BY IDOCK:   -3.02 KCAL/MOL
REMARK 923 INTER-LIGAND FREE ENERGY PREDICTED BY IDOCK:   -2.99 KCAL/MOL
REMARK 924 INTRA-LIGAND FREE ENERGY PREDICTED BY IDOCK:   -0.03 KCAL/MOL
REMARK 927      BINDING AFFINITY PREDICTED BY RF-SCORE:    0.00 PKD
ROOT
HETATM    1  N   UNL     1      -9.242   7.731  69.899  1.00  0.00    -0.147 NA 
HETATM    2  H1  UNL     1      -8.514   8.428  70.058  1.00  0.00     0.000 HD 
HETATM    3  C   UNL     1     -10.173   7.612  71.051  1.00  0.00    -0.194 C  
HETATM    4  H2  UNL     1      -9.749   7.919  69.035  1.00  0.00     0.000 HD 
HETATM    5  C   UNL     1     -11.279   6.552  70.810  1.00  0.00    -0.321 C  
HETATM    6  O   UNL     1     -10.761   5.226  70.857  1.00  0.00    -0.212 OA 
HETATM    7  O   UNL     1     -11.872   6.730  69.529  1.00  0.00    -0.635 OA 
HETATM    8  H   UNL     1     -12.549   6.081  69.382  1.00  0.00     0.000 HD 
HETATM    9  C   UNL     1     -10.185   4.861  72.129  1.00  0.00    -0.196 C  
HETATM   10  H   UNL     1      -9.837   7.448  74.278  1.00  0.00     0.000 HD 
HETATM   11  C   UNL     1      -9.033   5.812  72.499  1.00  0.00    -0.133 C  
HETATM   12  C   UNL     1      -9.435   7.292  72.371  1.00  0.00    -0.149 C  
HETATM   13  H   UNL     1      -7.185   6.118  71.901  1.00  0.00     0.000 HD 
HETATM   14  O   UNL     1      -7.896   5.531  71.673  1.00  0.00    -0.107 OA 
HETATM   15  O   UNL     1     -10.291   7.645  73.467  1.00  0.00    -0.336 OA 
ENDROOT
BRANCH   9  16
HETATM   16  C   UNL     1     -11.247   4.729  73.232  1.00  0.00    -0.340 C  
HETATM   17  O   UNL     1     -11.180   3.433  73.825  1.00  0.00    -0.222 OA 
HETATM   18  H   UNL     1     -11.836   3.352  74.508  1.00  0.00     0.000 HD 
ENDBRANCH   9  16
TORSDOF 1
ENDMDL
MODEL      126
REMARK 921   NORMALIZED FREE ENERGY PREDICTED BY IDOCK:   -2.81 KCAL/MOL
REMARK 922        TOTAL FREE ENERGY PREDICTED BY IDOCK:   -3.00 KCAL/MOL
REMARK 923 INTER-LIGAND FREE ENERGY PREDICTED BY IDOCK:   -2.96 KCAL/MOL
REMARK 924 INTRA-LIGAND FREE ENERGY PREDICTED BY IDOCK:   -0.04 KCAL/MOL
REMARK 927      BINDING AFFINITY PREDICTED BY RF-SCORE:    0.00 PKD
ROOT
HETATM    1  N   UNL     1      -7.910  11.045  65.633  1.00  0.00    -0.364 NA 
HETATM    2  H1  UNL     1      -7.352  11.776  66.074  1.00  0.00     0.000 HD 
HETATM    3  C   UNL     1      -9.155  10.751  66.388  1.00  0.00    -0.171 C  
HETATM    4  H2  UNL     1      -8.115  11.274  64.661  1.00  0.00     0.000 HD 
HETATM    5  C   UNL     1     -10.005   9.639  65.718  1.00  0.00    -0.272 C  
HETATM    6  O   UNL     1      -9.400   8.356  65.856  1.00  0.00    -0.200 OA 
HETATM    7  O   UNL     1     -10.149   9.891  64.326  1.00  0.00    -0.443 OA 
HETATM    8  H   UNL     1     -10.669   9.210  63.916  1.00  0.00     0.000 HD 
HETATM    9  C   UNL     1      -9.249   7.919  67.223  1.00  0.00    -0.142 C  
HETATM   10  H   UNL     1      -9.905  10.313  69.519  1.00  0.00     0.000 HD 
HETATM   11  C   UNL     1      -8.390   8.913  68.023  1.00  0.00    -0.121 C  
HETATM   12  C   UNL     1      -8.874  10.365  67.858  1.00  0.00    -0.125 C  
HETATM   13  H   UNL     1      -6.489   9.410  68.113  1.00  0.00     0.000 HD 
HETATM   14  O   UNL     1      -7.020   8.796  67.619  1.00  0.00    -0.073 OA 
HETATM   15  O   UNL     1     -10.078  10.550  68.615  1.00  0.00    -0.165 OA 
ENDROOT
BRANCH   9  16
HETATM   16  C   UNL     1     -10.600   7.606  67.887  1.00  0.00    -0.168 C  
HETATM   17  O   UNL     1     -11.355   6.714  67.068  1.00  0.00    -0.710 OA 
HETATM   18  H   UNL     1     -12.190   6.521  67.478  1.00  0.00     0.000 HD 
ENDBRANCH   9  16
TORSDOF 1
ENDMDL
MODEL      127
REMARK 921   NORMALIZED FREE ENERGY PREDICTED BY IDOCK:   -2.79 KCAL/MOL
REMARK 922        TOTAL FREE ENERGY PREDICTED BY IDOCK:   -2.98 KCAL/MOL
REMARK 923 INTER-LIGAND FREE ENERGY PREDICTED BY IDOCK:   -2.93 KCAL/MOL
REMARK 924 INTRA-LIGAND FREE ENERGY PREDICTED BY IDOCK:   -0.05 KCAL/MOL
REMARK 927      BINDING AFFINITY PREDICTED BY RF-SCORE:    0.00 PKD
ROOT
HETATM    1  N   UNL     1     -12.046   7.220  71.936  1.00  0.00    -0.305 NA 
HETATM    2  H1  UNL     1     -12.398   6.278  71.769  1.00  0.00     0.000 HD 
HETATM    3  C   UNL     1     -11.403   7.806  70.731  1.00  0.00    -0.279 C  
HETATM    4  H2  UNL     1     -12.780   7.830  72.294  1.00  0.00     0.000 HD 
HETATM    5  C   UNL     1     -10.866   9.239  70.984  1.00  0.00    -0.314 C  
HETATM    6  O   UNL     1      -9.713   9.231  71.821  1.00  0.00    -0.269 OA 
HETATM    7  O   UNL     1     -11.852  10.035  71.630  1.00  0.00    -0.365 OA 
HETATM    8  H   UNL     1     -11.523  10.912  71.785  1.00  0.00     0.000 HD 
HETATM    9  C   UNL     1      -8.587   8.518  71.268  1.00  0.00    -0.176 C  
HETATM   10  H   UNL     1      -9.312   6.739  68.485  1.00  0.00     0.000 HD 
HETATM   11  C   UNL     1      -8.954   7.050  70.989  1.00  0.00    -0.151 C  
HETATM   12  C   UNL     1     -10.261   6.919  70.186  1.00  0.00    -0.192 C  
HETATM   13  H   UNL     1      -9.284   5.432  72.056  1.00  0.00     0.000 HD 
HETATM   14  O   UNL     1      -9.057   6.338  72.228  1.00  0.00    -0.141 OA 
HETATM   15  O   UNL     1     -10.014   7.284  68.820  1.00  0.00    -0.158 OA 
ENDROOT
BRANCH   9  16
HETATM   16  C   UNL     1      -7.981   9.239  70.052  1.00  0.00    -0.121 C  
HETATM   17  O   UNL     1      -7.389  10.472  70.457  1.00  0.00    -0.456 OA 
HETATM   18  H   UNL     1      -7.015  10.917  69.706  1.00  0.00     0.000 HD 
ENDBRANCH   9  16
TORSDOF 1
ENDMDL
MODEL      128
REMARK 921   NORMALIZED FREE ENERGY PREDICTED BY IDOCK:   -2.75 KCAL/MOL
REMARK 922        TOTAL FREE ENERGY PREDICTED BY IDOCK:   -2.94 KCAL/MOL
REMARK 923 INTER-LIGAND FREE ENERGY PREDICTED BY IDOCK:   -2.66 KCAL/MOL
REMARK 924 INTRA-LIGAND FREE ENERGY PREDICTED BY IDOCK:   -0.27 KCAL/MOL
REMARK 927      BINDING AFFINITY PREDICTED BY RF-SCORE:    0.00 PKD
ROOT
HETATM    1  N   UNL     1     -10.596   9.455  70.129  1.00  0.00    -0.223 NA 
HETATM    2  H1  UNL     1     -11.403   9.187  69.566  1.00  0.00     0.000 HD 
HETATM    3  C   UNL     1      -9.580   8.373  70.213  1.00  0.00    -0.165 C  
HETATM    4  H2  UNL     1     -10.181  10.322  69.788  1.00  0.00     0.000 HD 
HETATM    5  C   UNL     1      -8.352   8.779  71.068  1.00  0.00    -0.171 C  
HETATM    6  O   UNL     1      -8.670   8.838  72.456  1.00  0.00    -0.406 OA 
HETATM    7  O   UNL     1      -7.881  10.066  70.687  1.00  0.00    -0.412 OA 
HETATM    8  H   UNL     1      -7.129  10.314  71.211  1.00  0.00     0.000 HD 
HETATM    9  C   UNL     1      -9.100   7.580  73.017  1.00  0.00    -0.172 C  
HETATM   10  H   UNL     1      -9.667   5.165  70.720  1.00  0.00     0.000 HD 
HETATM   11  C   UNL     1     -10.348   7.054  72.288  1.00  0.00    -0.193 C  
HETATM   12  C   UNL     1     -10.172   7.054  70.759  1.00  0.00    -0.194 C  
HETATM   13  H   UNL     1     -12.258   7.518  72.208  1.00  0.00     0.000 HD 
HETATM   14  O   UNL     1     -11.487   7.842  72.658  1.00  0.00    -0.354 OA 
HETATM   15  O   UNL     1      -9.303   5.976  70.384  1.00  0.00    -0.157 OA 
ENDROOT
BRANCH   9  16
HETATM   16  C   UNL     1      -7.957   6.555  73.090  1.00  0.00    -0.103 C  
HETATM   17  O   UNL     1      -8.487   5.233  73.174  1.00  0.00    -0.114 OA 
HETATM   18  H   UNL     1      -7.781   4.600  73.218  1.00  0.00     0.000 HD 
ENDBRANCH   9  16
TORSDOF 1
ENDMDL
MODEL      129
REMARK 921   NORMALIZED FREE ENERGY PREDICTED BY IDOCK:   -2.73 KCAL/MOL
REMARK 922        TOTAL FREE ENERGY PREDICTED BY IDOCK:   -2.92 KCAL/MOL
REMARK 923 INTER-LIGAND FREE ENERGY PREDICTED BY IDOCK:   -2.64 KCAL/MOL
REMARK 924 INTRA-LIGAND FREE ENERGY PREDICTED BY IDOCK:   -0.27 KCAL/MOL
REMARK 927      BINDING AFFINITY PREDICTED BY RF-SCORE:    0.00 PKD
ROOT
HETATM    1  N   UNL     1      -7.411   6.435  70.029  1.00  0.00    -0.089 NA 
HETATM    2  H1  UNL     1      -7.026   6.803  69.159  1.00  0.00     0.000 HD 
HETATM    3  C   UNL     1      -8.894   6.520  70.073  1.00  0.00    -0.144 C  
HETATM    4  H2  UNL     1      -7.092   5.482  70.199  1.00  0.00     0.000 HD 
HETATM    5  C   UNL     1      -9.480   5.961  71.395  1.00  0.00    -0.150 C  
HETATM    6  O   UNL     1      -9.216   6.825  72.497  1.00  0.00    -0.138 OA 
HETATM    7  O   UNL     1      -8.906   4.697  71.702  1.00  0.00    -0.121 OA 
HETATM    8  H   UNL     1      -9.265   4.355  72.512  1.00  0.00     0.000 HD 
HETATM    9  C   UNL     1      -9.800   8.139  72.371  1.00  0.00    -0.276 C  
HETATM   10  H   UNL     1     -11.097   8.785  69.316  1.00  0.00     0.000 HD 
HETATM   11  C   UNL     1      -9.285   8.847  71.106  1.00  0.00    -0.256 C  
HETATM   12  C   UNL     1      -9.406   7.961  69.853  1.00  0.00    -0.156 C  
HETATM   13  H   UNL     1      -7.605   9.685  70.522  1.00  0.00     0.000 HD 
HETATM   14  O   UNL     1      -7.923   9.248  71.303  1.00  0.00    -0.322 OA 
HETATM   15  O   UNL     1     -10.782   7.899  69.451  1.00  0.00    -0.228 OA 
ENDROOT
BRANCH   9  16
HETATM   16  C   UNL     1     -11.334   8.105  72.471  1.00  0.00    -0.401 C  
HETATM   17  O   UNL     1     -11.891   9.275  71.873  1.00  0.00    -0.365 OA 
HETATM   18  H   UNL     1     -12.839   9.254  71.934  1.00  0.00     0.000 HD 
ENDBRANCH   9  16
TORSDOF 1
ENDMDL
MODEL      130
REMARK 921   NORMALIZED FREE ENERGY PREDICTED BY IDOCK:   -2.68 KCAL/MOL
REMARK 922        TOTAL FREE ENERGY PREDICTED BY IDOCK:   -2.86 KCAL/MOL
REMARK 923 INTER-LIGAND FREE ENERGY PREDICTED BY IDOCK:   -2.61 KCAL/MOL
REMARK 924 INTRA-LIGAND FREE ENERGY PREDICTED BY IDOCK:   -0.26 KCAL/MOL
REMARK 927      BINDING AFFINITY PREDICTED BY RF-SCORE:    0.00 PKD
ROOT
HETATM    1  N   UNL     1     -10.244   4.551  70.737  1.00  0.00    -0.157 NA 
HETATM    2  H1  UNL     1     -11.153   4.094  70.662  1.00  0.00     0.000 HD 
HETATM    3  C   UNL     1     -10.305   5.809  71.525  1.00  0.00    -0.220 C  
HETATM    4  H2  UNL     1      -9.542   3.915  71.114  1.00  0.00     0.000 HD 
HETATM    5  C   UNL     1      -8.924   6.504  71.639  1.00  0.00    -0.143 C  
HETATM    6  O   UNL     1      -8.520   7.084  70.402  1.00  0.00    -0.137 OA 
HETATM    7  O   UNL     1      -7.922   5.566  72.014  1.00  0.00    -0.107 OA 
HETATM    8  H   UNL     1      -7.076   5.992  72.083  1.00  0.00     0.000 HD 
HETATM    9  C   UNL     1      -9.403   8.117  69.918  1.00  0.00    -0.159 C  
HETATM   10  H   UNL     1     -12.306   8.366  71.633  1.00  0.00     0.000 HD 
HETATM   11  C   UNL     1     -10.827   7.569  69.718  1.00  0.00    -0.225 C  
HETATM   12  C   UNL     1     -11.337   6.808  70.956  1.00  0.00    -0.309 C  
HETATM   13  H   UNL     1     -11.735   6.380  68.441  1.00  0.00     0.000 HD 
HETATM   14  O   UNL     1     -10.856   6.719  68.564  1.00  0.00    -0.230 OA 
HETATM   15  O   UNL     1     -11.672   7.752  71.984  1.00  0.00    -0.278 OA 
ENDROOT
BRANCH   9  16
HETATM   16  C   UNL     1      -9.352   9.382  70.789  1.00  0.00    -0.226 C  
HETATM   17  O   UNL     1     -10.461  10.229  70.493  1.00  0.00    -0.416 OA 
HETATM   18  H   UNL     1     -10.430  11.010  71.032  1.00  0.00     0.000 HD 
ENDBRANCH   9  16
TORSDOF 1
ENDMDL
MODEL      131
REMARK 921   NORMALIZED FREE ENERGY PREDICTED BY IDOCK:   -2.65 KCAL/MOL
REMARK 922        TOTAL FREE ENERGY PREDICTED BY IDOCK:   -2.83 KCAL/MOL
REMARK 923 INTER-LIGAND FREE ENERGY PREDICTED BY IDOCK:   -2.60 KCAL/MOL
REMARK 924 INTRA-LIGAND FREE ENERGY PREDICTED BY IDOCK:   -0.23 KCAL/MOL
REMARK 927      BINDING AFFINITY PREDICTED BY RF-SCORE:    0.00 PKD
ROOT
HETATM    1  N   UNL     1      -8.603  11.440  68.998  1.00  0.00    -0.373 NA 
HETATM    2  H1  UNL     1      -8.595  12.094  69.780  1.00  0.00     0.000 HD 
HETATM    3  C   UNL     1      -9.907  10.741  68.857  1.00  0.00    -0.199 C  
HETATM    4  H2  UNL     1      -8.339  11.902  68.128  1.00  0.00     0.000 HD 
HETATM    5  C   UNL     1      -9.920   9.746  67.668  1.00  0.00    -0.174 C  
HETATM    6  O   UNL     1      -9.124   8.594  67.934  1.00  0.00    -0.139 OA 
HETATM    7  O   UNL     1      -9.398  10.360  66.497  1.00  0.00    -0.158 OA 
HETATM    8  H   UNL     1      -9.406   9.750  65.769  1.00  0.00     0.000 HD 
HETATM    9  C   UNL     1      -9.573   7.814  69.062  1.00  0.00    -0.155 C  
HETATM   10  H   UNL     1     -11.985   9.306  70.902  1.00  0.00     0.000 HD 
HETATM   11  C   UNL     1      -9.584   8.663  70.345  1.00  0.00    -0.173 C  
HETATM   12  C   UNL     1     -10.318  10.002  70.150  1.00  0.00    -0.266 C  
HETATM   13  H   UNL     1      -8.243   9.417  71.570  1.00  0.00     0.000 HD 
HETATM   14  O   UNL     1      -8.237   8.892  70.778  1.00  0.00    -0.135 OA 
HETATM   15  O   UNL     1     -11.733   9.761  70.107  1.00  0.00    -0.221 OA 
ENDROOT
BRANCH   9  16
HETATM   16  C   UNL     1     -10.910   7.107  68.785  1.00  0.00    -0.120 C  
HETATM   17  O   UNL     1     -11.629   6.921  70.003  1.00  0.00    -0.485 OA 
HETATM   18  H   UNL     1     -12.455   6.485  69.832  1.00  0.00     0.000 HD 
ENDBRANCH   9  16
TORSDOF 1
ENDMDL
MODEL      132
REMARK 921   NORMALIZED FREE ENERGY PREDICTED BY IDOCK:   -2.64 KCAL/MOL
REMARK 922        TOTAL FREE ENERGY PREDICTED BY IDOCK:   -2.83 KCAL/MOL
REMARK 923 INTER-LIGAND FREE ENERGY PREDICTED BY IDOCK:   -2.57 KCAL/MOL
REMARK 924 INTRA-LIGAND FREE ENERGY PREDICTED BY IDOCK:   -0.26 KCAL/MOL
REMARK 927      BINDING AFFINITY PREDICTED BY RF-SCORE:    0.00 PKD
ROOT
HETATM    1  N   UNL     1     -11.965   8.559  70.489  1.00  0.00    -0.487 NA 
HETATM    2  H1  UNL     1     -12.881   8.251  70.162  1.00  0.00     0.000 HD 
HETATM    3  C   UNL     1     -10.857   8.028  69.654  1.00  0.00    -0.169 C  
HETATM    4  H2  UNL     1     -11.921   9.575  70.555  1.00  0.00     0.000 HD 
HETATM    5  C   UNL     1      -9.465   8.496  70.151  1.00  0.00    -0.165 C  
HETATM    6  O   UNL     1      -9.096   7.857  71.370  1.00  0.00    -0.131 OA 
HETATM    7  O   UNL     1      -9.465   9.898  70.391  1.00  0.00    -0.358 OA 
HETATM    8  H   UNL     1      -8.612  10.184  70.696  1.00  0.00     0.000 HD 
HETATM    9  C   UNL     1      -8.980   6.422  71.273  1.00  0.00    -0.142 C  
HETATM   10  H   UNL     1     -10.125   5.138  68.362  1.00  0.00     0.000 HD 
HETATM   11  C   UNL     1     -10.309   5.795  70.817  1.00  0.00    -0.237 C  
HETATM   12  C   UNL     1     -10.878   6.485  69.563  1.00  0.00    -0.304 C  
HETATM   13  H   UNL     1     -12.079   5.465  71.608  1.00  0.00     0.000 HD 
HETATM   14  O   UNL     1     -11.258   5.851  71.889  1.00  0.00    -0.268 OA 
HETATM   15  O   UNL     1     -10.112   6.086  68.417  1.00  0.00    -0.142 OA 
ENDROOT
BRANCH   9  16
HETATM   16  C   UNL     1      -7.776   5.992  70.418  1.00  0.00    -0.097 C  
HETATM   17  O   UNL     1      -8.000   4.693  69.873  1.00  0.00    -0.066 OA 
HETATM   18  H   UNL     1      -7.257   4.428  69.344  1.00  0.00     0.000 HD 
ENDBRANCH   9  16
TORSDOF 1
ENDMDL
MODEL      133
REMARK 921   NORMALIZED FREE ENERGY PREDICTED BY IDOCK:   -2.64 KCAL/MOL
REMARK 922        TOTAL FREE ENERGY PREDICTED BY IDOCK:   -2.82 KCAL/MOL
REMARK 923 INTER-LIGAND FREE ENERGY PREDICTED BY IDOCK:   -2.80 KCAL/MOL
REMARK 924 INTRA-LIGAND FREE ENERGY PREDICTED BY IDOCK:   -0.03 KCAL/MOL
REMARK 927      BINDING AFFINITY PREDICTED BY RF-SCORE:    0.00 PKD
ROOT
HETATM    1  N   UNL     1     -10.869   6.117  66.526  1.00  0.00    -0.635 NA 
HETATM    2  H1  UNL     1     -11.008   6.194  65.518  1.00  0.00     0.000 HD 
HETATM    3  C   UNL     1     -10.982   7.428  67.215  1.00  0.00    -0.164 C  
HETATM    4  H2  UNL     1     -11.503   5.431  66.934  1.00  0.00     0.000 HD 
HETATM    5  C   UNL     1     -10.770   7.311  68.747  1.00  0.00    -0.139 C  
HETATM    6  O   UNL     1      -9.407   7.051  69.074  1.00  0.00    -0.138 OA 
HETATM    7  O   UNL     1     -11.544   6.244  69.279  1.00  0.00    -0.555 OA 
HETATM    8  H   UNL     1     -11.414   6.173  70.217  1.00  0.00     0.000 HD 
HETATM    9  C   UNL     1      -8.492   8.088  68.662  1.00  0.00    -0.128 C  
HETATM   10  H   UNL     1      -9.876  10.431  66.654  1.00  0.00     0.000 HD 
HETATM   11  C   UNL     1      -8.560   8.303  67.140  1.00  0.00    -0.123 C  
HETATM   12  C   UNL     1     -10.006   8.479  66.641  1.00  0.00    -0.293 C  
HETATM   13  H   UNL     1      -7.975   7.334  65.532  1.00  0.00     0.000 HD 
HETATM   14  O   UNL     1      -7.933   7.201  66.472  1.00  0.00    -0.106 OA 
HETATM   15  O   UNL     1     -10.476   9.785  67.007  1.00  0.00    -0.238 OA 
ENDROOT
BRANCH   9  16
HETATM   16  C   UNL     1      -8.677   9.382  69.471  1.00  0.00    -0.161 C  
HETATM   17  O   UNL     1      -7.414   9.855  69.936  1.00  0.00    -0.117 OA 
HETATM   18  H   UNL     1      -7.528  10.655  70.436  1.00  0.00     0.000 HD 
ENDBRANCH   9  16
TORSDOF 1
ENDMDL
MODEL      134
REMARK 921   NORMALIZED FREE ENERGY PREDICTED BY IDOCK:   -2.64 KCAL/MOL
REMARK 922        TOTAL FREE ENERGY PREDICTED BY IDOCK:   -2.82 KCAL/MOL
REMARK 923 INTER-LIGAND FREE ENERGY PREDICTED BY IDOCK:   -2.78 KCAL/MOL
REMARK 924 INTRA-LIGAND FREE ENERGY PREDICTED BY IDOCK:   -0.04 KCAL/MOL
REMARK 927      BINDING AFFINITY PREDICTED BY RF-SCORE:    0.00 PKD
ROOT
HETATM    1  N   UNL     1     -11.855   7.297  69.733  1.00  0.00    -0.422 NA 
HETATM    2  H1  UNL     1     -12.235   7.362  70.678  1.00  0.00     0.000 HD 
HETATM    3  C   UNL     1     -11.239   5.973  69.460  1.00  0.00    -0.346 C  
HETATM    4  H2  UNL     1     -12.562   7.524  69.036  1.00  0.00     0.000 HD 
HETATM    5  C   UNL     1     -10.660   5.874  68.024  1.00  0.00    -0.252 C  
HETATM    6  O   UNL     1      -9.480   6.659  67.875  1.00  0.00    -0.120 OA 
HETATM    7  O   UNL     1     -11.605   6.346  67.071  1.00  0.00    -0.696 OA 
HETATM    8  H   UNL     1     -11.250   6.285  66.192  1.00  0.00     0.000 HD 
HETATM    9  C   UNL     1      -8.390   6.255  68.730  1.00  0.00    -0.120 C  
HETATM   10  H   UNL     1      -9.249   3.978  71.078  1.00  0.00     0.000 HD 
HETATM   11  C   UNL     1      -8.801   6.332  70.211  1.00  0.00    -0.153 C  
HETATM   12  C   UNL     1     -10.136   5.616  70.483  1.00  0.00    -0.217 C  
HETATM   13  H   UNL     1      -9.133   7.752  71.530  1.00  0.00     0.000 HD 
HETATM   14  O   UNL     1      -8.879   7.704  70.616  1.00  0.00    -0.143 OA 
HETATM   15  O   UNL     1      -9.927   4.197  70.449  1.00  0.00    -0.200 OA 
ENDROOT
BRANCH   9  16
HETATM   16  C   UNL     1      -7.809   4.890  68.327  1.00  0.00    -0.082 C  
HETATM   17  O   UNL     1      -6.417   4.838  68.638  1.00  0.00    -0.035 OA 
HETATM   18  H   UNL     1      -6.058   3.994  68.389  1.00  0.00     0.000 HD 
ENDBRANCH   9  16
TORSDOF 1
ENDMDL
MODEL      135
REMARK 921   NORMALIZED FREE ENERGY PREDICTED BY IDOCK:   -2.64 KCAL/MOL
REMARK 922        TOTAL FREE ENERGY PREDICTED BY IDOCK:   -2.82 KCAL/MOL
REMARK 923 INTER-LIGAND FREE ENERGY PREDICTED BY IDOCK:   -2.63 KCAL/MOL
REMARK 924 INTRA-LIGAND FREE ENERGY PREDICTED BY IDOCK:   -0.19 KCAL/MOL
REMARK 927      BINDING AFFINITY PREDICTED BY RF-SCORE:    0.00 PKD
ROOT
HETATM    1  N   UNL     1      -8.192   7.071  71.327  1.00  0.00    -0.112 NA 
HETATM    2  H1  UNL     1      -8.501   7.792  71.978  1.00  0.00     0.000 HD 
HETATM    3  C   UNL     1      -8.523   7.402  69.916  1.00  0.00    -0.139 C  
HETATM    4  H2  UNL     1      -7.196   6.880  71.435  1.00  0.00     0.000 HD 
HETATM    5  C   UNL     1      -8.053   6.307  68.925  1.00  0.00    -0.110 C  
HETATM    6  O   UNL     1      -8.846   5.127  69.026  1.00  0.00    -0.092 OA 
HETATM    7  O   UNL     1      -6.706   5.935  69.192  1.00  0.00    -0.055 OA 
HETATM    8  H   UNL     1      -6.419   5.264  68.585  1.00  0.00     0.000 HD 
HETATM    9  C   UNL     1     -10.240   5.324  68.710  1.00  0.00    -0.161 C  
HETATM   10  H   UNL     1     -11.135   8.567  68.374  1.00  0.00     0.000 HD 
HETATM   11  C   UNL     1     -10.869   6.374  69.643  1.00  0.00    -0.320 C  
HETATM   12  C   UNL     1     -10.032   7.664  69.714  1.00  0.00    -0.184 C  
HETATM   13  H   UNL     1     -11.421   6.462  71.528  1.00  0.00     0.000 HD 
HETATM   14  O   UNL     1     -11.033   5.814  70.952  1.00  0.00    -0.276 OA 
HETATM   15  O   UNL     1     -10.207   8.406  68.498  1.00  0.00    -0.194 OA 
ENDROOT
BRANCH   9  16
HETATM   16  C   UNL     1     -10.463   5.620  67.218  1.00  0.00    -0.258 C  
HETATM   17  O   UNL     1     -11.579   6.492  67.052  1.00  0.00    -0.729 OA 
HETATM   18  H   UNL     1     -11.717   6.675  66.130  1.00  0.00     0.000 HD 
ENDBRANCH   9  16
TORSDOF 1
ENDMDL
MODEL      136
REMARK 921   NORMALIZED FREE ENERGY PREDICTED BY IDOCK:   -2.62 KCAL/MOL
REMARK 922        TOTAL FREE ENERGY PREDICTED BY IDOCK:   -2.80 KCAL/MOL
REMARK 923 INTER-LIGAND FREE ENERGY PREDICTED BY IDOCK:   -2.76 KCAL/MOL
REMARK 924 INTRA-LIGAND FREE ENERGY PREDICTED BY IDOCK:   -0.04 KCAL/MOL
REMARK 927      BINDING AFFINITY PREDICTED BY RF-SCORE:    0.00 PKD
ROOT
HETATM    1  N   UNL     1      -8.874   8.624  71.865  1.00  0.00    -0.264 NA 
HETATM    2  H1  UNL     1      -7.980   9.054  72.105  1.00  0.00     0.000 HD 
HETATM    3  C   UNL     1      -8.727   7.535  70.865  1.00  0.00    -0.142 C  
HETATM    4  H2  UNL     1      -9.360   8.294  72.698  1.00  0.00     0.000 HD 
HETATM    5  C   UNL     1     -10.084   6.881  70.499  1.00  0.00    -0.187 C  
HETATM    6  O   UNL     1     -10.892   7.747  69.707  1.00  0.00    -0.249 OA 
HETATM    7  O   UNL     1     -10.823   6.570  71.674  1.00  0.00    -0.228 OA 
HETATM    8  H   UNL     1     -11.655   6.170  71.449  1.00  0.00     0.000 HD 
HETATM    9  C   UNL     1     -10.309   8.101  68.435  1.00  0.00    -0.199 C  
HETATM   10  H   UNL     1      -7.079   7.160  68.090  1.00  0.00     0.000 HD 
HETATM   11  C   UNL     1      -8.952   8.800  68.632  1.00  0.00    -0.138 C  
HETATM   12  C   UNL     1      -8.023   8.014  69.575  1.00  0.00    -0.115 C  
HETATM   13  H   UNL     1      -8.328  10.557  69.256  1.00  0.00     0.000 HD 
HETATM   14  O   UNL     1      -9.165  10.125  69.134  1.00  0.00    -0.174 OA 
HETATM   15  O   UNL     1      -7.512   6.865  68.883  1.00  0.00    -0.091 OA 
ENDROOT
BRANCH   9  16
HETATM   16  C   UNL     1     -10.246   6.905  67.471  1.00  0.00    -0.194 C  
HETATM   17  O   UNL     1     -11.535   6.654  66.915  1.00  0.00    -0.777 OA 
HETATM   18  H   UNL     1     -11.497   5.916  66.319  1.00  0.00     0.000 HD 
ENDBRANCH   9  16
TORSDOF 1
ENDMDL
MODEL      137
REMARK 921   NORMALIZED FREE ENERGY PREDICTED BY IDOCK:   -2.62 KCAL/MOL
REMARK 922        TOTAL FREE ENERGY PREDICTED BY IDOCK:   -2.80 KCAL/MOL
REMARK 923 INTER-LIGAND FREE ENERGY PREDICTED BY IDOCK:   -2.71 KCAL/MOL
REMARK 924 INTRA-LIGAND FREE ENERGY PREDICTED BY IDOCK:   -0.09 KCAL/MOL
REMARK 927      BINDING AFFINITY PREDICTED BY RF-SCORE:    0.00 PKD
ROOT
HETATM    1  N   UNL     1      -9.614   8.313  72.338  1.00  0.00    -0.265 NA 
HETATM    2  H1  UNL     1      -8.882   7.631  72.541  1.00  0.00     0.000 HD 
HETATM    3  C   UNL     1     -10.331   8.014  71.071  1.00  0.00    -0.201 C  
HETATM    4  H2  UNL     1     -10.265   8.397  73.118  1.00  0.00     0.000 HD 
HETATM    5  C   UNL     1     -11.443   9.050  70.762  1.00  0.00    -0.282 C  
HETATM    6  O   UNL     1     -10.899  10.308  70.372  1.00  0.00    -0.294 OA 
HETATM    7  O   UNL     1     -12.249   9.276  71.912  1.00  0.00    -0.356 OA 
HETATM    8  H   UNL     1     -12.929   9.911  71.722  1.00  0.00     0.000 HD 
HETATM    9  C   UNL     1     -10.107  10.261  69.167  1.00  0.00    -0.218 C  
HETATM   10  H   UNL     1      -9.444   7.130  68.073  1.00  0.00     0.000 HD 
HETATM   11  C   UNL     1      -8.926   9.287  69.327  1.00  0.00    -0.147 C  
HETATM   12  C   UNL     1      -9.372   7.915  69.864  1.00  0.00    -0.156 C  
HETATM   13  H   UNL     1      -7.214   9.265  70.294  1.00  0.00     0.000 HD 
HETATM   14  O   UNL     1      -7.943   9.866  70.195  1.00  0.00    -0.177 OA 
HETATM   15  O   UNL     1     -10.034   7.191  68.816  1.00  0.00    -0.156 OA 
ENDROOT
BRANCH   9  16
HETATM   16  C   UNL     1     -10.961   9.985  67.919  1.00  0.00    -0.252 C  
HETATM   17  O   UNL     1     -10.145  10.011  66.749  1.00  0.00    -0.205 OA 
HETATM   18  H   UNL     1     -10.673   9.840  65.978  1.00  0.00     0.000 HD 
ENDBRANCH   9  16
TORSDOF 1
ENDMDL
MODEL      138
REMARK 921   NORMALIZED FREE ENERGY PREDICTED BY IDOCK:   -2.59 KCAL/MOL
REMARK 922        TOTAL FREE ENERGY PREDICTED BY IDOCK:   -2.76 KCAL/MOL
REMARK 923 INTER-LIGAND FREE ENERGY PREDICTED BY IDOCK:   -2.50 KCAL/MOL
REMARK 924 INTRA-LIGAND FREE ENERGY PREDICTED BY IDOCK:   -0.26 KCAL/MOL
REMARK 927      BINDING AFFINITY PREDICTED BY RF-SCORE:    0.00 PKD
ROOT
HETATM    1  N   UNL     1     -10.763   7.003  66.608  1.00  0.00    -0.532 NA 
HETATM    2  H1  UNL     1     -11.778   6.981  66.503  1.00  0.00     0.000 HD 
HETATM    3  C   UNL     1     -10.298   6.219  67.781  1.00  0.00    -0.195 C  
HETATM    4  H2  UNL     1     -10.298   6.698  65.754  1.00  0.00     0.000 HD 
HETATM    5  C   UNL     1      -8.756   6.252  67.942  1.00  0.00    -0.114 C  
HETATM    6  O   UNL     1      -8.298   7.527  68.383  1.00  0.00    -0.124 OA 
HETATM    7  O   UNL     1      -8.118   5.979  66.700  1.00  0.00    -0.104 OA 
HETATM    8  H   UNL     1      -7.174   6.000  66.799  1.00  0.00     0.000 HD 
HETATM    9  C   UNL     1      -8.803   7.921  69.676  1.00  0.00    -0.138 C  
HETATM   10  H   UNL     1     -11.246   5.914  70.874  1.00  0.00     0.000 HD 
HETATM   11  C   UNL     1     -10.341   7.969  69.670  1.00  0.00    -0.220 C  
HETATM   12  C   UNL     1     -10.961   6.682  69.098  1.00  0.00    -0.287 C  
HETATM   13  H   UNL     1     -11.731   9.140  68.919  1.00  0.00     0.000 HD 
HETATM   14  O   UNL     1     -10.781   9.110  68.923  1.00  0.00    -0.212 OA 
HETATM   15  O   UNL     1     -10.838   5.629  70.065  1.00  0.00    -0.325 OA 
ENDROOT
BRANCH   9  16
HETATM   16  C   UNL     1      -8.222   7.065  70.813  1.00  0.00    -0.121 C  
HETATM   17  O   UNL     1      -9.004   7.223  71.996  1.00  0.00    -0.129 OA 
HETATM   18  H   UNL     1      -8.645   6.694  72.698  1.00  0.00     0.000 HD 
ENDBRANCH   9  16
TORSDOF 1
ENDMDL
MODEL      139
REMARK 921   NORMALIZED FREE ENERGY PREDICTED BY IDOCK:   -2.57 KCAL/MOL
REMARK 922        TOTAL FREE ENERGY PREDICTED BY IDOCK:   -2.75 KCAL/MOL
REMARK 923 INTER-LIGAND FREE ENERGY PREDICTED BY IDOCK:   -2.72 KCAL/MOL
REMARK 924 INTRA-LIGAND FREE ENERGY PREDICTED BY IDOCK:   -0.03 KCAL/MOL
REMARK 927      BINDING AFFINITY PREDICTED BY RF-SCORE:    0.00 PKD
ROOT
HETATM    1  N   UNL     1     -10.465  11.079  65.740  1.00  0.00    -0.246 NA 
HETATM    2  H1  UNL     1     -10.928  11.968  65.548  1.00  0.00     0.000 HD 
HETATM    3  C   UNL     1     -10.721  10.593  67.120  1.00  0.00    -0.272 C  
HETATM    4  H2  UNL     1     -10.721  10.375  65.048  1.00  0.00     0.000 HD 
HETATM    5  C   UNL     1     -10.017   9.242  67.412  1.00  0.00    -0.199 C  
HETATM    6  O   UNL     1      -8.605   9.397  67.532  1.00  0.00    -0.122 OA 
HETATM    7  O   UNL     1     -10.253   8.317  66.357  1.00  0.00    -0.432 OA 
HETATM    8  H   UNL     1      -9.821   7.491  66.536  1.00  0.00     0.000 HD 
HETATM    9  C   UNL     1      -8.196  10.258  68.616  1.00  0.00    -0.116 C  
HETATM   10  H   UNL     1     -10.738  11.944  70.075  1.00  0.00     0.000 HD 
HETATM   11  C   UNL     1      -8.794  11.666  68.451  1.00  0.00    -0.161 C  
HETATM   12  C   UNL     1     -10.311  11.627  68.192  1.00  0.00    -0.194 C  
HETATM   13  H   UNL     1      -8.493  13.218  67.282  1.00  0.00     0.000 HD 
HETATM   14  O   UNL     1      -8.124  12.349  67.384  1.00  0.00    -0.159 OA 
HETATM   15  O   UNL     1     -10.990  11.308  69.416  1.00  0.00    -0.242 OA 
ENDROOT
BRANCH   9  16
HETATM   16  C   UNL     1      -8.474   9.632  69.992  1.00  0.00    -0.204 C  
HETATM   17  O   UNL     1      -7.453  10.005  70.917  1.00  0.00    -0.371 OA 
HETATM   18  H   UNL     1      -7.625   9.619  71.767  1.00  0.00     0.000 HD 
ENDBRANCH   9  16
TORSDOF 1
ENDMDL
MODEL      140
REMARK 921   NORMALIZED FREE ENERGY PREDICTED BY IDOCK:   -2.56 KCAL/MOL
REMARK 922        TOTAL FREE ENERGY PREDICTED BY IDOCK:   -2.74 KCAL/MOL
REMARK 923 INTER-LIGAND FREE ENERGY PREDICTED BY IDOCK:   -2.71 KCAL/MOL
REMARK 924 INTRA-LIGAND FREE ENERGY PREDICTED BY IDOCK:   -0.03 KCAL/MOL
REMARK 927      BINDING AFFINITY PREDICTED BY RF-SCORE:    0.00 PKD
ROOT
HETATM    1  N   UNL     1     -11.168   7.115  68.560  1.00  0.00    -0.470 NA 
HETATM    2  H1  UNL     1     -12.150   7.153  68.834  1.00  0.00     0.000 HD 
HETATM    3  C   UNL     1     -10.250   7.321  69.710  1.00  0.00    -0.210 C  
HETATM    4  H2  UNL     1     -10.956   6.246  68.072  1.00  0.00     0.000 HD 
HETATM    5  C   UNL     1      -8.758   7.264  69.293  1.00  0.00    -0.137 C  
HETATM    6  O   UNL     1      -8.373   8.414  68.545  1.00  0.00    -0.128 OA 
HETATM    7  O   UNL     1      -8.510   6.126  68.477  1.00  0.00    -0.113 OA 
HETATM    8  H   UNL     1      -7.596   6.091  68.222  1.00  0.00     0.000 HD 
HETATM    9  C   UNL     1      -8.497   9.657  69.267  1.00  0.00    -0.150 C  
HETATM   10  H   UNL     1     -10.124   9.382  72.218  1.00  0.00     0.000 HD 
HETATM   11  C   UNL     1      -9.949   9.880  69.726  1.00  0.00    -0.243 C  
HETATM   12  C   UNL     1     -10.526   8.650  70.450  1.00  0.00    -0.208 C  
HETATM   13  H   UNL     1     -11.658  10.356  68.878  1.00  0.00     0.000 HD 
HETATM   14  O   UNL     1     -10.762  10.218  68.595  1.00  0.00    -0.200 OA 
HETATM   15  O   UNL     1      -9.955   8.565  71.764  1.00  0.00    -0.220 OA 
ENDROOT
BRANCH   9  16
HETATM   16  C   UNL     1      -7.471   9.774  70.406  1.00  0.00    -0.149 C  
HETATM   17  O   UNL     1      -6.795  11.028  70.332  1.00  0.00    -0.481 OA 
HETATM   18  H   UNL     1      -6.161  11.100  71.036  1.00  0.00     0.000 HD 
ENDBRANCH   9  16
TORSDOF 1
ENDMDL
MODEL      141
REMARK 921   NORMALIZED FREE ENERGY PREDICTED BY IDOCK:   -2.53 KCAL/MOL
REMARK 922        TOTAL FREE ENERGY PREDICTED BY IDOCK:   -2.71 KCAL/MOL
REMARK 923 INTER-LIGAND FREE ENERGY PREDICTED BY IDOCK:   -2.93 KCAL/MOL
REMARK 924 INTRA-LIGAND FREE ENERGY PREDICTED BY IDOCK:    0.22 KCAL/MOL
REMARK 927      BINDING AFFINITY PREDICTED BY RF-SCORE:    0.00 PKD
ROOT
HETATM    1  N   UNL     1      -8.854   7.500  70.745  1.00  0.00    -0.147 NA 
HETATM    2  H1  UNL     1      -8.216   6.763  70.446  1.00  0.00     0.000 HD 
HETATM    3  C   UNL     1      -9.999   7.670  69.814  1.00  0.00    -0.184 C  
HETATM    4  H2  UNL     1      -9.177   7.342  71.699  1.00  0.00     0.000 HD 
HETATM    5  C   UNL     1     -10.970   8.790  70.268  1.00  0.00    -0.235 C  
HETATM    6  O   UNL     1     -10.401  10.085  70.095  1.00  0.00    -0.263 OA 
HETATM    7  O   UNL     1     -11.287   8.649  71.647  1.00  0.00    -0.265 OA 
HETATM    8  H   UNL     1     -11.882   9.335  71.925  1.00  0.00     0.000 HD 
HETATM    9  C   UNL     1     -10.088  10.414  68.725  1.00  0.00    -0.187 C  
HETATM   10  H   UNL     1     -10.345   7.808  66.586  1.00  0.00     0.000 HD 
HETATM   11  C   UNL     1      -9.094   9.399  68.133  1.00  0.00    -0.127 C  
HETATM   12  C   UNL     1      -9.541   7.945  68.364  1.00  0.00    -0.150 C  
HETATM   13  H   UNL     1      -7.181   8.990  68.332  1.00  0.00     0.000 HD 
HETATM   14  O   UNL     1      -7.794   9.617  68.697  1.00  0.00    -0.080 OA 
HETATM   15  O   UNL     1     -10.627   7.639  67.477  1.00  0.00    -0.255 OA 
ENDROOT
BRANCH   9  16
HETATM   16  C   UNL     1     -11.350  10.604  67.868  1.00  0.00    -0.268 C  
HETATM   17  O   UNL     1     -12.473  10.882  68.704  1.00  0.00    -0.772 OA 
HETATM   18  H   UNL     1     -13.253  11.000  68.175  1.00  0.00     0.000 HD 
ENDBRANCH   9  16
TORSDOF 1
ENDMDL
MODEL      142
REMARK 921   NORMALIZED FREE ENERGY PREDICTED BY IDOCK:   -2.51 KCAL/MOL
REMARK 922        TOTAL FREE ENERGY PREDICTED BY IDOCK:   -2.68 KCAL/MOL
REMARK 923 INTER-LIGAND FREE ENERGY PREDICTED BY IDOCK:   -2.63 KCAL/MOL
REMARK 924 INTRA-LIGAND FREE ENERGY PREDICTED BY IDOCK:   -0.05 KCAL/MOL
REMARK 927      BINDING AFFINITY PREDICTED BY RF-SCORE:    0.00 PKD
ROOT
HETATM    1  N   UNL     1      -6.941  10.418  70.801  1.00  0.00    -0.418 NA 
HETATM    2  H1  UNL     1      -6.145  10.740  70.250  1.00  0.00     0.000 HD 
HETATM    3  C   UNL     1      -7.443   9.094  70.353  1.00  0.00    -0.106 C  
HETATM    4  H2  UNL     1      -6.721  10.410  71.797  1.00  0.00     0.000 HD 
HETATM    5  C   UNL     1      -8.653   8.605  71.189  1.00  0.00    -0.181 C  
HETATM    6  O   UNL     1      -9.832   9.352  70.901  1.00  0.00    -0.276 OA 
HETATM    7  O   UNL     1      -8.391   8.748  72.579  1.00  0.00    -0.398 OA 
HETATM    8  H   UNL     1      -9.133   8.449  73.091  1.00  0.00     0.000 HD 
HETATM    9  C   UNL     1     -10.276   9.250  69.531  1.00  0.00    -0.207 C  
HETATM   10  H   UNL     1      -8.070   7.720  67.476  1.00  0.00     0.000 HD 
HETATM   11  C   UNL     1      -9.182   9.737  68.565  1.00  0.00    -0.134 C  
HETATM   12  C   UNL     1      -7.818   9.085  68.853  1.00  0.00    -0.095 C  
HETATM   13  H   UNL     1      -8.403  11.465  68.042  1.00  0.00     0.000 HD 
HETATM   14  O   UNL     1      -9.078  11.164  68.639  1.00  0.00    -0.170 OA 
HETATM   15  O   UNL     1      -7.839   7.725  68.397  1.00  0.00    -0.116 OA 
ENDROOT
BRANCH   9  16
HETATM   16  C   UNL     1     -10.809   7.848  69.195  1.00  0.00    -0.038 C  
HETATM   17  O   UNL     1     -11.837   7.481  70.113  1.00  0.00    -0.496 OA 
HETATM   18  H   UNL     1     -12.167   6.614  69.906  1.00  0.00     0.000 HD 
ENDBRANCH   9  16
TORSDOF 1
ENDMDL
MODEL      143
REMARK 921   NORMALIZED FREE ENERGY PREDICTED BY IDOCK:   -2.48 KCAL/MOL
REMARK 922        TOTAL FREE ENERGY PREDICTED BY IDOCK:   -2.66 KCAL/MOL
REMARK 923 INTER-LIGAND FREE ENERGY PREDICTED BY IDOCK:   -2.39 KCAL/MOL
REMARK 924 INTRA-LIGAND FREE ENERGY PREDICTED BY IDOCK:   -0.27 KCAL/MOL
REMARK 927      BINDING AFFINITY PREDICTED BY RF-SCORE:    0.00 PKD
ROOT
HETATM    1  N   UNL     1      -9.192   8.148  69.804  1.00  0.00    -0.151 NA 
HETATM    2  H1  UNL     1      -8.645   7.317  70.029  1.00  0.00     0.000 HD 
HETATM    3  C   UNL     1      -9.932   8.011  68.523  1.00  0.00    -0.192 C  
HETATM    4  H2  UNL     1      -9.822   8.392  70.568  1.00  0.00     0.000 HD 
HETATM    5  C   UNL     1     -10.763   9.274  68.181  1.00  0.00    -0.151 C  
HETATM    6  O   UNL     1      -9.932  10.365  67.794  1.00  0.00    -0.168 OA 
HETATM    7  O   UNL     1     -11.518   9.697  69.309  1.00  0.00    -0.448 OA 
HETATM    8  H   UNL     1     -12.027  10.471  69.100  1.00  0.00     0.000 HD 
HETATM    9  C   UNL     1      -9.147  10.119  66.608  1.00  0.00    -0.144 C  
HETATM   10  H   UNL     1      -9.213   6.907  65.553  1.00  0.00     0.000 HD 
HETATM   11  C   UNL     1      -8.231   8.898  66.804  1.00  0.00    -0.111 C  
HETATM   12  C   UNL     1      -8.998   7.675  67.339  1.00  0.00    -0.126 C  
HETATM   13  H   UNL     1      -6.593   8.487  67.811  1.00  0.00     0.000 HD 
HETATM   14  O   UNL     1      -7.159   9.241  67.690  1.00  0.00    -0.080 OA 
HETATM   15  O   UNL     1      -9.788   7.114  66.281  1.00  0.00    -0.094 OA 
ENDROOT
BRANCH   9  16
HETATM   16  C   UNL     1     -10.016  10.036  65.343  1.00  0.00    -0.294 C  
HETATM   17  O   UNL     1      -9.319   9.334  64.314  1.00  0.00    -0.426 OA 
HETATM   18  H   UNL     1      -9.856   9.282  63.532  1.00  0.00     0.000 HD 
ENDBRANCH   9  16
TORSDOF 1
ENDMDL
MODEL      144
REMARK 921   NORMALIZED FREE ENERGY PREDICTED BY IDOCK:   -2.48 KCAL/MOL
REMARK 922        TOTAL FREE ENERGY PREDICTED BY IDOCK:   -2.65 KCAL/MOL
REMARK 923 INTER-LIGAND FREE ENERGY PREDICTED BY IDOCK:   -2.62 KCAL/MOL
REMARK 924 INTRA-LIGAND FREE ENERGY PREDICTED BY IDOCK:   -0.03 KCAL/MOL
REMARK 927      BINDING AFFINITY PREDICTED BY RF-SCORE:    0.00 PKD
ROOT
HETATM    1  N   UNL     1      -7.931   8.235  67.523  1.00  0.00    -0.109 NA 
HETATM    2  H1  UNL     1      -7.054   7.714  67.519  1.00  0.00     0.000 HD 
HETATM    3  C   UNL     1      -8.663   8.123  66.235  1.00  0.00    -0.150 C  
HETATM    4  H2  UNL     1      -8.521   7.955  68.306  1.00  0.00     0.000 HD 
HETATM    5  C   UNL     1      -9.997   8.914  66.241  1.00  0.00    -0.266 C  
HETATM    6  O   UNL     1      -9.777  10.322  66.204  1.00  0.00    -0.189 OA 
HETATM    7  O   UNL     1     -10.739   8.633  67.421  1.00  0.00    -0.413 OA 
HETATM    8  H   UNL     1     -11.556   9.118  67.424  1.00  0.00     0.000 HD 
HETATM    9  C   UNL     1      -9.091  10.781  65.020  1.00  0.00    -0.203 C  
HETATM   10  H   UNL     1      -7.843   8.296  63.096  1.00  0.00     0.000 HD 
HETATM   11  C   UNL     1      -7.716  10.103  64.887  1.00  0.00    -0.143 C  
HETATM   12  C   UNL     1      -7.805   8.573  65.032  1.00  0.00    -0.112 C  
HETATM   13  H   UNL     1      -5.970  10.227  65.784  1.00  0.00     0.000 HD 
HETATM   14  O   UNL     1      -6.819  10.645  65.865  1.00  0.00    -0.129 OA 
HETATM   15  O   UNL     1      -8.371   8.019  63.835  1.00  0.00    -0.088 OA 
ENDROOT
BRANCH   9  16
HETATM   16  C   UNL     1      -9.960  10.653  63.758  1.00  0.00    -0.317 C  
HETATM   17  O   UNL     1     -10.348  11.946  63.296  1.00  0.00    -0.503 OA 
HETATM   18  H   UNL     1     -10.885  11.868  62.516  1.00  0.00     0.000 HD 
ENDBRANCH   9  16
TORSDOF 1
ENDMDL
MODEL      145
REMARK 921   NORMALIZED FREE ENERGY PREDICTED BY IDOCK:   -2.45 KCAL/MOL
REMARK 922        TOTAL FREE ENERGY PREDICTED BY IDOCK:   -2.62 KCAL/MOL
REMARK 923 INTER-LIGAND FREE ENERGY PREDICTED BY IDOCK:   -2.40 KCAL/MOL
REMARK 924 INTRA-LIGAND FREE ENERGY PREDICTED BY IDOCK:   -0.22 KCAL/MOL
REMARK 927      BINDING AFFINITY PREDICTED BY RF-SCORE:    0.00 PKD
ROOT
HETATM    1  N   UNL     1      -7.919  10.258  70.148  1.00  0.00    -0.390 NA 
HETATM    2  H1  UNL     1      -7.788  10.962  70.874  1.00  0.00     0.000 HD 
HETATM    3  C   UNL     1      -9.227   9.563  70.263  1.00  0.00    -0.258 C  
HETATM    4  H2  UNL     1      -7.797  10.659  69.218  1.00  0.00     0.000 HD 
HETATM    5  C   UNL     1      -9.427   8.492  69.159  1.00  0.00    -0.154 C  
HETATM    6  O   UNL     1      -8.597   7.353  69.371  1.00  0.00    -0.132 OA 
HETATM    7  O   UNL     1      -9.100   9.022  67.882  1.00  0.00    -0.135 OA 
HETATM    8  H   UNL     1      -9.222   8.366  67.206  1.00  0.00     0.000 HD 
HETATM    9  C   UNL     1      -8.859   6.652  70.605  1.00  0.00    -0.148 C  
HETATM   10  H   UNL     1     -10.951   8.283  72.702  1.00  0.00     0.000 HD 
HETATM   11  C   UNL     1      -8.667   7.584  71.814  1.00  0.00    -0.115 C  
HETATM   12  C   UNL     1      -9.426   8.913  71.651  1.00  0.00    -0.281 C  
HETATM   13  H   UNL     1      -7.151   8.405  72.759  1.00  0.00     0.000 HD 
HETATM   14  O   UNL     1      -7.270   7.829  72.012  1.00  0.00    -0.063 OA 
HETATM   15  O   UNL     1     -10.829   8.683  71.848  1.00  0.00    -0.297 OA 
ENDROOT
BRANCH   9  16
HETATM   16  C   UNL     1     -10.222   5.940  70.592  1.00  0.00    -0.209 C  
HETATM   17  O   UNL     1     -10.545   5.473  71.901  1.00  0.00    -0.222 OA 
HETATM   18  H   UNL     1     -11.387   5.034  71.893  1.00  0.00     0.000 HD 
ENDBRANCH   9  16
TORSDOF 1
ENDMDL
MODEL      146
REMARK 921   NORMALIZED FREE ENERGY PREDICTED BY IDOCK:   -2.37 KCAL/MOL
REMARK 922        TOTAL FREE ENERGY PREDICTED BY IDOCK:   -2.53 KCAL/MOL
REMARK 923 INTER-LIGAND FREE ENERGY PREDICTED BY IDOCK:   -2.29 KCAL/MOL
REMARK 924 INTRA-LIGAND FREE ENERGY PREDICTED BY IDOCK:   -0.25 KCAL/MOL
REMARK 927      BINDING AFFINITY PREDICTED BY RF-SCORE:    0.00 PKD
ROOT
HETATM    1  N   UNL     1      -9.352   9.183  65.798  1.00  0.00    -0.234 NA 
HETATM    2  H1  UNL     1     -10.135   8.826  65.251  1.00  0.00     0.000 HD 
HETATM    3  C   UNL     1      -9.131   8.404  67.045  1.00  0.00    -0.144 C  
HETATM    4  H2  UNL     1      -8.501   9.228  65.238  1.00  0.00     0.000 HD 
HETATM    5  C   UNL     1      -7.940   8.946  67.877  1.00  0.00    -0.102 C  
HETATM    6  O   UNL     1      -8.250  10.193  68.494  1.00  0.00    -0.104 OA 
HETATM    7  O   UNL     1      -6.804   9.155  67.048  1.00  0.00    -0.078 OA 
HETATM    8  H   UNL     1      -6.075   9.487  67.559  1.00  0.00     0.000 HD 
HETATM    9  C   UNL     1      -9.347  10.133  69.431  1.00  0.00    -0.219 C  
HETATM   10  H   UNL     1     -11.042   7.207  69.384  1.00  0.00     0.000 HD 
HETATM   11  C   UNL     1     -10.629   9.638  68.739  1.00  0.00    -0.216 C  
HETATM   12  C   UNL     1     -10.395   8.348  67.932  1.00  0.00    -0.221 C  
HETATM   13  H   UNL     1     -11.935  10.365  67.462  1.00  0.00     0.000 HD 
HETATM   14  O   UNL     1     -11.144  10.670  67.889  1.00  0.00    -0.269 OA 
HETATM   15  O   UNL     1     -10.265   7.242  68.838  1.00  0.00    -0.182 OA 
ENDROOT
BRANCH   9  16
HETATM   16  C   UNL     1      -8.988   9.336  70.696  1.00  0.00    -0.243 C  
HETATM   17  O   UNL     1     -10.168   9.040  71.441  1.00  0.00    -0.275 OA 
HETATM   18  H   UNL     1      -9.946   8.548  72.223  1.00  0.00     0.000 HD 
ENDBRANCH   9  16
TORSDOF 1
ENDMDL
MODEL      147
REMARK 921   NORMALIZED FREE ENERGY PREDICTED BY IDOCK:   -2.35 KCAL/MOL
REMARK 922        TOTAL FREE ENERGY PREDICTED BY IDOCK:   -2.51 KCAL/MOL
REMARK 923 INTER-LIGAND FREE ENERGY PREDICTED BY IDOCK:   -2.44 KCAL/MOL
REMARK 924 INTRA-LIGAND FREE ENERGY PREDICTED BY IDOCK:   -0.08 KCAL/MOL
REMARK 927      BINDING AFFINITY PREDICTED BY RF-SCORE:    0.00 PKD
ROOT
HETATM    1  N   UNL     1      -9.050   8.818  69.957  1.00  0.00    -0.153 NA 
HETATM    2  H1  UNL     1      -8.922   8.641  70.954  1.00  0.00     0.000 HD 
HETATM    3  C   UNL     1     -10.205   8.073  69.394  1.00  0.00    -0.210 C  
HETATM    4  H2  UNL     1      -9.128   9.816  69.767  1.00  0.00     0.000 HD 
HETATM    5  C   UNL     1     -10.400   8.341  67.879  1.00  0.00    -0.219 C  
HETATM    6  O   UNL     1      -9.384   7.719  67.097  1.00  0.00    -0.139 OA 
HETATM    7  O   UNL     1     -10.348   9.736  67.607  1.00  0.00    -0.198 OA 
HETATM    8  H   UNL     1     -10.468   9.899  66.679  1.00  0.00     0.000 HD 
HETATM    9  C   UNL     1      -9.352   6.280  67.207  1.00  0.00    -0.118 C  
HETATM   10  H   UNL     1     -11.337   5.038  69.647  1.00  0.00     0.000 HD 
HETATM   11  C   UNL     1      -9.129   5.849  68.667  1.00  0.00    -0.115 C  
HETATM   12  C   UNL     1     -10.097   6.551  69.636  1.00  0.00    -0.181 C  
HETATM   13  H   UNL     1      -7.633   5.846  69.943  1.00  0.00     0.000 HD 
HETATM   14  O   UNL     1      -7.771   6.112  69.042  1.00  0.00    -0.093 OA 
HETATM   15  O   UNL     1     -11.404   5.974  69.498  1.00  0.00    -0.405 OA 
ENDROOT
BRANCH   9  16
HETATM   16  C   UNL     1     -10.578   5.619  66.555  1.00  0.00    -0.255 C  
HETATM   17  O   UNL     1     -10.407   4.204  66.510  1.00  0.00    -0.352 OA 
HETATM   18  H   UNL     1     -11.164   3.795  66.107  1.00  0.00     0.000 HD 
ENDBRANCH   9  16
TORSDOF 1
ENDMDL
MODEL      148
REMARK 921   NORMALIZED FREE ENERGY PREDICTED BY IDOCK:   -2.35 KCAL/MOL
REMARK 922        TOTAL FREE ENERGY PREDICTED BY IDOCK:   -2.51 KCAL/MOL
REMARK 923 INTER-LIGAND FREE ENERGY PREDICTED BY IDOCK:   -2.33 KCAL/MOL
REMARK 924 INTRA-LIGAND FREE ENERGY PREDICTED BY IDOCK:   -0.19 KCAL/MOL
REMARK 927      BINDING AFFINITY PREDICTED BY RF-SCORE:    0.00 PKD
ROOT
HETATM    1  N   UNL     1     -10.809   8.244  69.248  1.00  0.00    -0.409 NA 
HETATM    2  H1  UNL     1     -11.615   8.801  69.534  1.00  0.00     0.000 HD 
HETATM    3  C   UNL     1     -10.712   6.964  69.996  1.00  0.00    -0.243 C  
HETATM    4  H2  UNL     1     -10.813   8.082  68.241  1.00  0.00     0.000 HD 
HETATM    5  C   UNL     1      -9.488   6.117  69.562  1.00  0.00    -0.140 C  
HETATM    6  O   UNL     1      -8.263   6.686  70.015  1.00  0.00    -0.125 OA 
HETATM    7  O   UNL     1      -9.416   6.032  68.145  1.00  0.00    -0.115 OA 
HETATM    8  H   UNL     1      -8.666   5.513  67.879  1.00  0.00     0.000 HD 
HETATM    9  C   UNL     1      -8.148   6.775  71.451  1.00  0.00    -0.110 C  
HETATM   10  H   UNL     1     -11.013   6.086  73.110  1.00  0.00     0.000 HD 
HETATM   11  C   UNL     1      -9.288   7.626  72.039  1.00  0.00    -0.142 C  
HETATM   12  C   UNL     1     -10.670   7.181  71.526  1.00  0.00    -0.223 C  
HETATM   13  H   UNL     1      -9.767   9.532  72.093  1.00  0.00     0.000 HD 
HETATM   14  O   UNL     1      -9.063   9.007  71.731  1.00  0.00    -0.340 OA 
HETATM   15  O   UNL     1     -11.039   5.952  72.170  1.00  0.00    -0.256 OA 
ENDROOT
BRANCH   9  16
HETATM   16  C   UNL     1      -8.013   5.393  72.111  1.00  0.00    -0.107 C  
HETATM   17  O   UNL     1      -8.634   5.399  73.395  1.00  0.00    -0.116 OA 
HETATM   18  H   UNL     1      -8.552   4.545  73.803  1.00  0.00     0.000 HD 
ENDBRANCH   9  16
TORSDOF 1
ENDMDL
MODEL      149
REMARK 921   NORMALIZED FREE ENERGY PREDICTED BY IDOCK:   -2.30 KCAL/MOL
REMARK 922        TOTAL FREE ENERGY PREDICTED BY IDOCK:   -2.46 KCAL/MOL
REMARK 923 INTER-LIGAND FREE ENERGY PREDICTED BY IDOCK:   -2.19 KCAL/MOL
REMARK 924 INTRA-LIGAND FREE ENERGY PREDICTED BY IDOCK:   -0.27 KCAL/MOL
REMARK 927      BINDING AFFINITY PREDICTED BY RF-SCORE:    0.00 PKD
ROOT
HETATM    1  N   UNL     1      -6.730   6.451  71.244  1.00  0.00    -0.057 NA 
HETATM    2  H1  UNL     1      -6.514   5.832  70.463  1.00  0.00     0.000 HD 
HETATM    3  C   UNL     1      -7.927   6.007  72.005  1.00  0.00    -0.107 C  
HETATM    4  H2  UNL     1      -5.924   6.563  71.859  1.00  0.00     0.000 HD 
HETATM    5  C   UNL     1      -8.256   6.948  73.193  1.00  0.00    -0.106 C  
HETATM    6  O   UNL     1      -8.776   8.198  72.749  1.00  0.00    -0.177 OA 
HETATM    7  O   UNL     1      -7.085   7.223  73.952  1.00  0.00    -0.085 OA 
HETATM    8  H   UNL     1      -7.287   7.799  74.679  1.00  0.00     0.000 HD 
HETATM    9  C   UNL     1     -10.015   8.096  72.017  1.00  0.00    -0.233 C  
HETATM   10  H   UNL     1     -10.889   4.929  71.218  1.00  0.00     0.000 HD 
HETATM   11  C   UNL     1      -9.843   7.209  70.772  1.00  0.00    -0.178 C  
HETATM   12  C   UNL     1      -9.174   5.863  71.104  1.00  0.00    -0.150 C  
HETATM   13  H   UNL     1      -8.974   7.366  69.015  1.00  0.00     0.000 HD 
HETATM   14  O   UNL     1      -9.081   7.913  69.784  1.00  0.00    -0.146 OA 
HETATM   15  O   UNL     1     -10.122   5.017  71.772  1.00  0.00    -0.186 OA 
ENDROOT
BRANCH   9  16
HETATM   16  C   UNL     1     -11.188   7.668  72.915  1.00  0.00    -0.372 C  
HETATM   17  O   UNL     1     -12.227   7.093  72.125  1.00  0.00    -0.397 OA 
HETATM   18  H   UNL     1     -12.951   6.829  72.679  1.00  0.00     0.000 HD 
ENDBRANCH   9  16
TORSDOF 1
ENDMDL
MODEL      150
REMARK 921   NORMALIZED FREE ENERGY PREDICTED BY IDOCK:   -2.30 KCAL/MOL
REMARK 922        TOTAL FREE ENERGY PREDICTED BY IDOCK:   -2.46 KCAL/MOL
REMARK 923 INTER-LIGAND FREE ENERGY PREDICTED BY IDOCK:   -2.19 KCAL/MOL
REMARK 924 INTRA-LIGAND FREE ENERGY PREDICTED BY IDOCK:   -0.27 KCAL/MOL
REMARK 927      BINDING AFFINITY PREDICTED BY RF-SCORE:    0.00 PKD
ROOT
HETATM    1  N   UNL     1      -9.696   9.708  64.655  1.00  0.00    -0.415 NA 
HETATM    2  H1  UNL     1     -10.059   9.078  63.938  1.00  0.00     0.000 HD 
HETATM    3  C   UNL     1      -8.442   9.202  65.270  1.00  0.00    -0.154 C  
HETATM    4  H2  UNL     1      -9.571  10.650  64.287  1.00  0.00     0.000 HD 
HETATM    5  C   UNL     1      -7.890  10.158  66.359  1.00  0.00    -0.114 C  
HETATM    6  O   UNL     1      -8.692  10.137  67.537  1.00  0.00    -0.125 OA 
HETATM    7  O   UNL     1      -7.870  11.498  65.884  1.00  0.00    -0.368 OA 
HETATM    8  H   UNL     1      -7.532  12.083  66.552  1.00  0.00     0.000 HD 
HETATM    9  C   UNL     1      -8.755   8.850  68.186  1.00  0.00    -0.134 C  
HETATM   10  H   UNL     1      -7.415   6.325  66.379  1.00  0.00     0.000 HD 
HETATM   11  C   UNL     1      -9.322   7.784  67.233  1.00  0.00    -0.145 C  
HETATM   12  C   UNL     1      -8.611   7.787  65.867  1.00  0.00    -0.153 C  
HETATM   13  H   UNL     1     -11.080   7.337  66.473  1.00  0.00     0.000 HD 
HETATM   14  O   UNL     1     -10.729   7.994  67.062  1.00  0.00    -0.328 OA 
HETATM   15  O   UNL     1      -7.311   7.196  66.011  1.00  0.00    -0.072 OA 
ENDROOT
BRANCH   9  16
HETATM   16  C   UNL     1      -7.411   8.451  68.819  1.00  0.00    -0.092 C  
HETATM   17  O   UNL     1      -7.366   7.040  69.026  1.00  0.00    -0.088 OA 
HETATM   18  H   UNL     1      -6.535   6.794  69.417  1.00  0.00     0.000 HD 
ENDBRANCH   9  16
TORSDOF 1
ENDMDL
MODEL      151
REMARK 921   NORMALIZED FREE ENERGY PREDICTED BY IDOCK:   -2.28 KCAL/MOL
REMARK 922        TOTAL FREE ENERGY PREDICTED BY IDOCK:   -2.44 KCAL/MOL
REMARK 923 INTER-LIGAND FREE ENERGY PREDICTED BY IDOCK:   -2.18 KCAL/MOL
REMARK 924 INTRA-LIGAND FREE ENERGY PREDICTED BY IDOCK:   -0.27 KCAL/MOL
REMARK 927      BINDING AFFINITY PREDICTED BY RF-SCORE:    0.00 PKD
ROOT
HETATM    1  N   UNL     1      -9.068   7.237  71.753  1.00  0.00    -0.131 NA 
HETATM    2  H1  UNL     1      -8.280   7.295  71.108  1.00  0.00     0.000 HD 
HETATM    3  C   UNL     1      -8.808   6.308  72.882  1.00  0.00    -0.124 C  
HETATM    4  H2  UNL     1      -9.336   8.160  72.091  1.00  0.00     0.000 HD 
HETATM    5  C   UNL     1     -10.006   6.218  73.863  1.00  0.00    -0.240 C  
HETATM    6  O   UNL     1     -11.103   5.509  73.294  1.00  0.00    -0.283 OA 
HETATM    7  O   UNL     1     -10.472   7.517  74.203  1.00  0.00    -0.389 OA 
HETATM    8  H   UNL     1     -11.206   7.462  74.804  1.00  0.00     0.000 HD 
HETATM    9  C   UNL     1     -10.810   4.137  72.958  1.00  0.00    -0.164 C  
HETATM   10  H   UNL     1      -7.532   3.334  73.174  1.00  0.00     0.000 HD 
HETATM   11  C   UNL     1      -9.648   4.057  71.952  1.00  0.00    -0.151 C  
HETATM   12  C   UNL     1      -8.432   4.888  72.400  1.00  0.00    -0.120 C  
HETATM   13  H   UNL     1      -9.383   4.441  70.042  1.00  0.00     0.000 HD 
HETATM   14  O   UNL     1     -10.100   4.490  70.663  1.00  0.00    -0.216 OA 
HETATM   15  O   UNL     1      -7.763   4.206  73.471  1.00  0.00    -0.078 OA 
ENDROOT
BRANCH   9  16
HETATM   16  C   UNL     1     -10.599   3.264  74.206  1.00  0.00    -0.190 C  
HETATM   17  O   UNL     1      -9.944   2.048  73.850  1.00  0.00    -0.088 OA 
HETATM   18  H   UNL     1      -9.813   1.509  74.621  1.00  0.00     0.000 HD 
ENDBRANCH   9  16
TORSDOF 1
ENDMDL
MODEL      152
REMARK 921   NORMALIZED FREE ENERGY PREDICTED BY IDOCK:   -2.26 KCAL/MOL
REMARK 922        TOTAL FREE ENERGY PREDICTED BY IDOCK:   -2.42 KCAL/MOL
REMARK 923 INTER-LIGAND FREE ENERGY PREDICTED BY IDOCK:   -2.74 KCAL/MOL
REMARK 924 INTRA-LIGAND FREE ENERGY PREDICTED BY IDOCK:    0.31 KCAL/MOL
REMARK 927      BINDING AFFINITY PREDICTED BY RF-SCORE:    0.00 PKD
ROOT
HETATM    1  N   UNL     1      -8.425  20.055  68.743  1.00  0.00    -0.015 NA 
HETATM    2  H1  UNL     1      -8.338  19.612  69.658  1.00  0.00     0.000 HD 
HETATM    3  C   UNL     1      -7.805  19.247  67.661  1.00  0.00    -0.262 C  
HETATM    4  H2  UNL     1      -9.398  20.270  68.529  1.00  0.00     0.000 HD 
HETATM    5  C   UNL     1      -7.935  19.920  66.271  1.00  0.00    -0.327 C  
HETATM    6  O   UNL     1      -7.089  21.060  66.153  1.00  0.00    -0.059 OA 
HETATM    7  O   UNL     1      -9.270  20.359  66.051  1.00  0.00    -0.609 OA 
HETATM    8  H   UNL     1      -9.350  20.771  65.199  1.00  0.00     0.000 HD 
HETATM    9  C   UNL     1      -5.682  20.767  66.280  1.00  0.00    -0.204 C  
HETATM   10  H   UNL     1      -5.016  17.617  67.312  1.00  0.00     0.000 HD 
HETATM   11  C   UNL     1      -5.380  20.117  67.642  1.00  0.00    -0.179 C  
HETATM   12  C   UNL     1      -6.318  18.934  67.942  1.00  0.00    -0.204 C  
HETATM   13  H   UNL     1      -5.291  20.703  69.517  1.00  0.00     0.000 HD 
HETATM   14  O   UNL     1      -5.477  21.104  68.676  1.00  0.00    -0.327 OA 
HETATM   15  O   UNL     1      -5.930  17.809  67.139  1.00  0.00    -0.128 OA 
ENDROOT
BRANCH   9  16
HETATM   16  C   UNL     1      -5.145  19.962  65.086  1.00  0.00    -0.155 C  
HETATM   17  O   UNL     1      -6.088  19.984  64.015  1.00  0.00    -0.267 OA 
HETATM   18  H   UNL     1      -5.756  19.487  63.277  1.00  0.00     0.000 HD 
ENDBRANCH   9  16
TORSDOF 1
ENDMDL
MODEL      153
REMARK 921   NORMALIZED FREE ENERGY PREDICTED BY IDOCK:   -2.14 KCAL/MOL
REMARK 922        TOTAL FREE ENERGY PREDICTED BY IDOCK:   -2.29 KCAL/MOL
REMARK 923 INTER-LIGAND FREE ENERGY PREDICTED BY IDOCK:   -2.03 KCAL/MOL
REMARK 924 INTRA-LIGAND FREE ENERGY PREDICTED BY IDOCK:   -0.26 KCAL/MOL
REMARK 927      BINDING AFFINITY PREDICTED BY RF-SCORE:    0.00 PKD
ROOT
HETATM    1  N   UNL     1      -8.880   7.190  65.434  1.00  0.00    -0.374 NA 
HETATM    2  H1  UNL     1      -9.649   7.527  64.855  1.00  0.00     0.000 HD 
HETATM    3  C   UNL     1      -8.659   5.728  65.289  1.00  0.00    -0.129 C  
HETATM    4  H2  UNL     1      -8.023   7.711  65.249  1.00  0.00     0.000 HD 
HETATM    5  C   UNL     1      -7.490   5.215  66.170  1.00  0.00    -0.086 C  
HETATM    6  O   UNL     1      -7.833   5.210  67.553  1.00  0.00    -0.094 OA 
HETATM    7  O   UNL     1      -6.348   6.049  66.020  1.00  0.00    -0.039 OA 
HETATM    8  H   UNL     1      -5.633   5.734  66.560  1.00  0.00     0.000 HD 
HETATM    9  C   UNL     1      -8.940   4.346  67.884  1.00  0.00    -0.119 C  
HETATM   10  H   UNL     1     -10.575   3.106  65.196  1.00  0.00     0.000 HD 
HETATM   11  C   UNL     1     -10.203   4.752  67.105  1.00  0.00    -0.130 C  
HETATM   12  C   UNL     1      -9.932   4.909  65.598  1.00  0.00    -0.127 C  
HETATM   13  H   UNL     1     -11.508   6.222  67.165  1.00  0.00     0.000 HD 
HETATM   14  O   UNL     1     -10.728   5.971  67.646  1.00  0.00    -0.248 OA 
HETATM   15  O   UNL     1      -9.792   3.609  65.006  1.00  0.00    -0.175 OA 
ENDROOT
BRANCH   9  16
HETATM   16  C   UNL     1      -8.581   2.858  67.734  1.00  0.00    -0.094 C  
HETATM   17  O   UNL     1      -9.769   2.068  67.700  1.00  0.00    -0.411 OA 
HETATM   18  H   UNL     1      -9.547   1.149  67.607  1.00  0.00     0.000 HD 
ENDBRANCH   9  16
TORSDOF 1
ENDMDL
MODEL      154
REMARK 921   NORMALIZED FREE ENERGY PREDICTED BY IDOCK:   -2.14 KCAL/MOL
REMARK 922        TOTAL FREE ENERGY PREDICTED BY IDOCK:   -2.29 KCAL/MOL
REMARK 923 INTER-LIGAND FREE ENERGY PREDICTED BY IDOCK:   -2.22 KCAL/MOL
REMARK 924 INTRA-LIGAND FREE ENERGY PREDICTED BY IDOCK:   -0.07 KCAL/MOL
REMARK 927      BINDING AFFINITY PREDICTED BY RF-SCORE:    0.00 PKD
ROOT
HETATM    1  N   UNL     1      -6.660  11.201  66.674  1.00  0.00    -0.130 NA 
HETATM    2  H1  UNL     1      -6.018  11.884  67.077  1.00  0.00     0.000 HD 
HETATM    3  C   UNL     1      -8.058  11.701  66.620  1.00  0.00    -0.121 C  
HETATM    4  H2  UNL     1      -6.343  10.895  65.754  1.00  0.00     0.000 HD 
HETATM    5  C   UNL     1      -9.034  10.663  66.008  1.00  0.00    -0.172 C  
HETATM    6  O   UNL     1      -9.267   9.570  66.893  1.00  0.00    -0.138 OA 
HETATM    7  O   UNL     1      -8.504  10.127  64.803  1.00  0.00    -0.158 OA 
HETATM    8  H   UNL     1      -9.102   9.491  64.429  1.00  0.00     0.000 HD 
HETATM    9  C   UNL     1      -9.877   9.944  68.146  1.00  0.00    -0.147 C  
HETATM   10  H   UNL     1     -10.022  13.282  68.670  1.00  0.00     0.000 HD 
HETATM   11  C   UNL     1      -9.000  10.959  68.900  1.00  0.00    -0.140 C  
HETATM   12  C   UNL     1      -8.578  12.140  68.007  1.00  0.00    -0.175 C  
HETATM   13  H   UNL     1      -7.302  10.921  69.891  1.00  0.00     0.000 HD 
HETATM   14  O   UNL     1      -7.844  10.295  69.426  1.00  0.00    -0.129 OA 
HETATM   15  O   UNL     1      -9.702  13.012  67.816  1.00  0.00    -0.206 OA 
ENDROOT
BRANCH   9  16
HETATM   16  C   UNL     1     -11.332  10.406  67.969  1.00  0.00    -0.204 C  
HETATM   17  O   UNL     1     -11.986  10.465  69.236  1.00  0.00    -0.502 OA 
HETATM   18  H   UNL     1     -12.886  10.751  69.127  1.00  0.00     0.000 HD 
ENDBRANCH   9  16
TORSDOF 1
ENDMDL
MODEL      155
REMARK 921   NORMALIZED FREE ENERGY PREDICTED BY IDOCK:   -2.12 KCAL/MOL
REMARK 922        TOTAL FREE ENERGY PREDICTED BY IDOCK:   -2.27 KCAL/MOL
REMARK 923 INTER-LIGAND FREE ENERGY PREDICTED BY IDOCK:   -2.24 KCAL/MOL
REMARK 924 INTRA-LIGAND FREE ENERGY PREDICTED BY IDOCK:   -0.04 KCAL/MOL
REMARK 927      BINDING AFFINITY PREDICTED BY RF-SCORE:    0.00 PKD
ROOT
HETATM    1  N   UNL     1      -6.936   5.395  71.623  1.00  0.00    -0.064 NA 
HETATM    2  H1  UNL     1      -5.990   5.767  71.540  1.00  0.00     0.000 HD 
HETATM    3  C   UNL     1      -7.964   6.343  71.118  1.00  0.00    -0.116 C  
HETATM    4  H2  UNL     1      -7.017   4.488  71.165  1.00  0.00     0.000 HD 
HETATM    5  C   UNL     1      -9.402   5.778  71.244  1.00  0.00    -0.146 C  
HETATM    6  O   UNL     1      -9.839   5.741  72.600  1.00  0.00    -0.163 OA 
HETATM    7  O   UNL     1      -9.463   4.448  70.744  1.00  0.00    -0.144 OA 
HETATM    8  H   UNL     1     -10.345   4.103  70.822  1.00  0.00     0.000 HD 
HETATM    9  C   UNL     1      -9.904   7.036  73.235  1.00  0.00    -0.214 C  
HETATM   10  H   UNL     1      -8.510   9.530  71.428  1.00  0.00     0.000 HD 
HETATM   11  C   UNL     1      -8.526   7.720  73.221  1.00  0.00    -0.178 C  
HETATM   12  C   UNL     1      -7.889   7.717  71.820  1.00  0.00    -0.090 C  
HETATM   13  H   UNL     1      -6.809   7.497  74.154  1.00  0.00     0.000 HD 
HETATM   14  O   UNL     1      -7.660   7.074  74.163  1.00  0.00    -0.104 OA 
HETATM   15  O   UNL     1      -8.556   8.685  70.996  1.00  0.00    -0.140 OA 
ENDROOT
BRANCH   9  16
HETATM   16  C   UNL     1     -11.028   7.911  72.658  1.00  0.00    -0.378 C  
HETATM   17  O   UNL     1     -12.250   7.177  72.616  1.00  0.00    -0.497 OA 
HETATM   18  H   UNL     1     -12.945   7.718  72.260  1.00  0.00     0.000 HD 
ENDBRANCH   9  16
TORSDOF 1
ENDMDL
MODEL      156
REMARK 921   NORMALIZED FREE ENERGY PREDICTED BY IDOCK:   -2.09 KCAL/MOL
REMARK 922        TOTAL FREE ENERGY PREDICTED BY IDOCK:   -2.24 KCAL/MOL
REMARK 923 INTER-LIGAND FREE ENERGY PREDICTED BY IDOCK:   -2.20 KCAL/MOL
REMARK 924 INTRA-LIGAND FREE ENERGY PREDICTED BY IDOCK:   -0.03 KCAL/MOL
REMARK 927      BINDING AFFINITY PREDICTED BY RF-SCORE:    0.00 PKD
ROOT
HETATM    1  N   UNL     1      -9.194   7.950  69.548  1.00  0.00    -0.153 NA 
HETATM    2  H1  UNL     1      -9.498   8.101  68.586  1.00  0.00     0.000 HD 
HETATM    3  C   UNL     1      -9.103   6.507  69.892  1.00  0.00    -0.143 C  
HETATM    4  H2  UNL     1      -8.314   8.429  69.735  1.00  0.00     0.000 HD 
HETATM    5  C   UNL     1      -8.642   6.276  71.355  1.00  0.00    -0.131 C  
HETATM    6  O   UNL     1      -9.658   6.623  72.291  1.00  0.00    -0.148 OA 
HETATM    7  O   UNL     1      -7.503   7.075  71.652  1.00  0.00    -0.085 OA 
HETATM    8  H   UNL     1      -7.221   6.933  72.548  1.00  0.00     0.000 HD 
HETATM    9  C   UNL     1     -10.866   5.843  72.167  1.00  0.00    -0.241 C  
HETATM   10  H   UNL     1     -10.976   3.898  69.404  1.00  0.00     0.000 HD 
HETATM   11  C   UNL     1     -11.473   5.996  70.761  1.00  0.00    -0.157 C  
HETATM   12  C   UNL     1     -10.434   5.761  69.650  1.00  0.00    -0.293 C  
HETATM   13  H   UNL     1     -12.432   7.392  69.763  1.00  0.00     0.000 HD 
HETATM   14  O   UNL     1     -12.058   7.298  70.630  1.00  0.00    -0.274 OA 
HETATM   15  O   UNL     1     -10.157   4.356  69.553  1.00  0.00    -0.183 OA 
ENDROOT
BRANCH   9  16
HETATM   16  C   UNL     1     -10.659   4.379  72.589  1.00  0.00    -0.162 C  
HETATM   17  O   UNL     1     -10.989   4.214  73.967  1.00  0.00    -0.233 OA 
HETATM   18  H   UNL     1     -10.861   3.309  74.227  1.00  0.00     0.000 HD 
ENDBRANCH   9  16
TORSDOF 1
ENDMDL
MODEL      157
REMARK 921   NORMALIZED FREE ENERGY PREDICTED BY IDOCK:   -2.09 KCAL/MOL
REMARK 922        TOTAL FREE ENERGY PREDICTED BY IDOCK:   -2.24 KCAL/MOL
REMARK 923 INTER-LIGAND FREE ENERGY PREDICTED BY IDOCK:   -1.97 KCAL/MOL
REMARK 924 INTRA-LIGAND FREE ENERGY PREDICTED BY IDOCK:   -0.27 KCAL/MOL
REMARK 927      BINDING AFFINITY PREDICTED BY RF-SCORE:    0.00 PKD
ROOT
HETATM    1  N   UNL     1      -7.128   3.491  68.549  1.00  0.00    -0.050 NA 
HETATM    2  H1  UNL     1      -6.148   3.752  68.443  1.00  0.00     0.000 HD 
HETATM    3  C   UNL     1      -8.050   4.515  67.992  1.00  0.00    -0.091 C  
HETATM    4  H2  UNL     1      -7.311   2.573  68.145  1.00  0.00     0.000 HD 
HETATM    5  C   UNL     1      -9.540   4.119  68.154  1.00  0.00    -0.134 C  
HETATM    6  O   UNL     1      -9.967   4.209  69.510  1.00  0.00    -0.177 OA 
HETATM    7  O   UNL     1      -9.750   2.777  67.732  1.00  0.00    -0.325 OA 
HETATM    8  H   UNL     1     -10.663   2.535  67.831  1.00  0.00     0.000 HD 
HETATM    9  C   UNL     1      -9.885   5.537  70.069  1.00  0.00    -0.198 C  
HETATM   10  H   UNL     1      -8.242   7.756  68.117  1.00  0.00     0.000 HD 
HETATM   11  C   UNL     1      -8.441   6.065  70.012  1.00  0.00    -0.131 C  
HETATM   12  C   UNL     1      -7.819   5.911  68.612  1.00  0.00    -0.102 C  
HETATM   13  H   UNL     1      -6.751   5.709  70.953  1.00  0.00     0.000 HD 
HETATM   14  O   UNL     1      -7.643   5.383  70.988  1.00  0.00    -0.084 OA 
HETATM   15  O   UNL     1      -8.384   6.897  67.735  1.00  0.00    -0.119 OA 
ENDROOT
BRANCH   9  16
HETATM   16  C   UNL     1     -10.912   6.496  69.444  1.00  0.00    -0.337 C  
HETATM   17  O   UNL     1     -10.486   7.847  69.611  1.00  0.00    -0.219 OA 
HETATM   18  H   UNL     1     -11.120   8.440  69.224  1.00  0.00     0.000 HD 
ENDBRANCH   9  16
TORSDOF 1
ENDMDL
MODEL      158
REMARK 921   NORMALIZED FREE ENERGY PREDICTED BY IDOCK:   -1.79 KCAL/MOL
REMARK 922        TOTAL FREE ENERGY PREDICTED BY IDOCK:   -1.92 KCAL/MOL
REMARK 923 INTER-LIGAND FREE ENERGY PREDICTED BY IDOCK:   -1.83 KCAL/MOL
REMARK 924 INTRA-LIGAND FREE ENERGY PREDICTED BY IDOCK:   -0.09 KCAL/MOL
REMARK 927      BINDING AFFINITY PREDICTED BY RF-SCORE:    0.00 PKD
ROOT
HETATM    1  N   UNL     1      -8.377   5.699  67.131  1.00  0.00    -0.105 NA 
HETATM    2  H1  UNL     1      -7.578   5.626  67.761  1.00  0.00     0.000 HD 
HETATM    3  C   UNL     1      -8.971   4.375  66.814  1.00  0.00    -0.118 C  
HETATM    4  H2  UNL     1      -9.080   6.338  67.500  1.00  0.00     0.000 HD 
HETATM    5  C   UNL     1     -10.185   4.485  65.855  1.00  0.00    -0.263 C  
HETATM    6  O   UNL     1      -9.784   4.826  64.531  1.00  0.00    -0.007 OA 
HETATM    7  O   UNL     1     -11.082   5.496  66.298  1.00  0.00    -0.727 OA 
HETATM    8  H   UNL     1     -11.826   5.563  65.711  1.00  0.00     0.000 HD 
HETATM    9  C   UNL     1      -8.920   3.854  63.907  1.00  0.00    -0.118 C  
HETATM   10  H   UNL     1      -7.798   1.454  66.008  1.00  0.00     0.000 HD 
HETATM   11  C   UNL     1      -7.636   3.654  64.732  1.00  0.00    -0.077 C  
HETATM   12  C   UNL     1      -7.936   3.394  66.220  1.00  0.00    -0.091 C  
HETATM   13  H   UNL     1      -5.998   4.678  65.097  1.00  0.00     0.000 HD 
HETATM   14  O   UNL     1      -6.790   4.801  64.587  1.00  0.00    -0.047 OA 
HETATM   15  O   UNL     1      -8.435   2.057  66.374  1.00  0.00    -0.090 OA 
ENDROOT
BRANCH   9  16
HETATM   16  C   UNL     1      -9.654   2.541  63.590  1.00  0.00    -0.114 C  
HETATM   17  O   UNL     1      -8.764   1.619  62.963  1.00  0.00    -0.074 OA 
HETATM   18  H   UNL     1      -9.218   0.807  62.768  1.00  0.00     0.000 HD 
ENDBRANCH   9  16
TORSDOF 1
ENDMDL
MODEL      159
REMARK 921   NORMALIZED FREE ENERGY PREDICTED BY IDOCK:   -1.67 KCAL/MOL
REMARK 922        TOTAL FREE ENERGY PREDICTED BY IDOCK:   -1.80 KCAL/MOL
REMARK 923 INTER-LIGAND FREE ENERGY PREDICTED BY IDOCK:   -1.72 KCAL/MOL
REMARK 924 INTRA-LIGAND FREE ENERGY PREDICTED BY IDOCK:   -0.08 KCAL/MOL
REMARK 927      BINDING AFFINITY PREDICTED BY RF-SCORE:    0.00 PKD
ROOT
HETATM    1  N   UNL     1      -8.044   5.480  68.256  1.00  0.00    -0.096 NA 
HETATM    2  H1  UNL     1      -7.274   4.856  68.016  1.00  0.00     0.000 HD 
HETATM    3  C   UNL     1      -8.016   5.894  69.682  1.00  0.00    -0.101 C  
HETATM    4  H2  UNL     1      -8.066   6.291  67.638  1.00  0.00     0.000 HD 
HETATM    5  C   UNL     1      -9.186   6.843  70.047  1.00  0.00    -0.155 C  
HETATM    6  O   UNL     1     -10.434   6.155  70.082  1.00  0.00    -0.198 OA 
HETATM    7  O   UNL     1      -9.305   7.884  69.085  1.00  0.00    -0.154 OA 
HETATM    8  H   UNL     1     -10.022   8.465  69.308  1.00  0.00     0.000 HD 
HETATM    9  C   UNL     1     -10.501   5.105  71.070  1.00  0.00    -0.171 C  
HETATM   10  H   UNL     1      -7.532   4.376  72.514  1.00  0.00     0.000 HD 
HETATM   11  C   UNL     1      -9.408   4.050  70.821  1.00  0.00    -0.147 C  
HETATM   12  C   UNL     1      -8.017   4.685  70.644  1.00  0.00    -0.068 C  
HETATM   13  H   UNL     1      -9.075   2.618  69.516  1.00  0.00     0.000 HD 
HETATM   14  O   UNL     1      -9.749   3.269  69.669  1.00  0.00    -0.126 OA 
HETATM   15  O   UNL     1      -7.531   5.120  71.923  1.00  0.00    -0.088 OA 
ENDROOT
BRANCH   9  16
HETATM   16  C   UNL     1     -10.505   5.655  72.505  1.00  0.00    -0.213 C  
HETATM   17  O   UNL     1     -10.761   4.603  73.434  1.00  0.00    -0.199 OA 
HETATM   18  H   UNL     1     -10.763   4.943  74.321  1.00  0.00     0.000 HD 
ENDBRANCH   9  16
TORSDOF 1
ENDMDL
MODEL      160
REMARK 921   NORMALIZED FREE ENERGY PREDICTED BY IDOCK:   -1.62 KCAL/MOL
REMARK 922        TOTAL FREE ENERGY PREDICTED BY IDOCK:   -1.74 KCAL/MOL
REMARK 923 INTER-LIGAND FREE ENERGY PREDICTED BY IDOCK:   -1.69 KCAL/MOL
REMARK 924 INTRA-LIGAND FREE ENERGY PREDICTED BY IDOCK:   -0.05 KCAL/MOL
REMARK 927      BINDING AFFINITY PREDICTED BY RF-SCORE:    0.00 PKD
ROOT
HETATM    1  N   UNL     1      -9.590   9.789  68.916  1.00  0.00    -0.161 NA 
HETATM    2  H1  UNL     1     -10.561   9.989  69.156  1.00  0.00     0.000 HD 
HETATM    3  C   UNL     1      -9.309   9.993  67.472  1.00  0.00    -0.144 C  
HETATM    4  H2  UNL     1      -8.949  10.332  69.495  1.00  0.00     0.000 HD 
HETATM    5  C   UNL     1      -7.833   9.690  67.107  1.00  0.00    -0.091 C  
HETATM    6  O   UNL     1      -7.553   8.293  67.152  1.00  0.00    -0.091 OA 
HETATM    7  O   UNL     1      -6.951  10.328  68.022  1.00  0.00    -0.079 OA 
HETATM    8  H   UNL     1      -6.047  10.142  67.798  1.00  0.00     0.000 HD 
HETATM    9  C   UNL     1      -8.322   7.506  66.219  1.00  0.00    -0.134 C  
HETATM   10  H   UNL     1     -10.814   9.214  64.699  1.00  0.00     0.000 HD 
HETATM   11  C   UNL     1      -9.830   7.675  66.476  1.00  0.00    -0.172 C  
HETATM   12  C   UNL     1     -10.243   9.155  66.569  1.00  0.00    -0.252 C  
HETATM   13  H   UNL     1     -11.123   7.084  67.835  1.00  0.00     0.000 HD 
HETATM   14  O   UNL     1     -10.192   6.980  67.676  1.00  0.00    -0.164 OA 
HETATM   15  O   UNL     1     -10.240   9.729  65.254  1.00  0.00    -0.216 OA 
ENDROOT
BRANCH   9  16
HETATM   16  C   UNL     1      -7.917   7.772  64.760  1.00  0.00    -0.142 C  
HETATM   17  O   UNL     1      -6.570   7.356  64.541  1.00  0.00    -0.040 OA 
HETATM   18  H   UNL     1      -6.319   7.520  63.640  1.00  0.00     0.000 HD 
ENDBRANCH   9  16
TORSDOF 1
ENDMDL
MODEL      161
REMARK 921   NORMALIZED FREE ENERGY PREDICTED BY IDOCK:   -1.49 KCAL/MOL
REMARK 922        TOTAL FREE ENERGY PREDICTED BY IDOCK:   -1.61 KCAL/MOL
REMARK 923 INTER-LIGAND FREE ENERGY PREDICTED BY IDOCK:   -2.14 KCAL/MOL
REMARK 924 INTRA-LIGAND FREE ENERGY PREDICTED BY IDOCK:    0.54 KCAL/MOL
REMARK 927      BINDING AFFINITY PREDICTED BY RF-SCORE:    0.00 PKD
ROOT
HETATM    1  N   UNL     1      -9.033   6.102  69.587  1.00  0.00    -0.133 NA 
HETATM    2  H1  UNL     1      -8.427   6.439  68.838  1.00  0.00     0.000 HD 
HETATM    3  C   UNL     1      -9.235   7.117  70.653  1.00  0.00    -0.158 C  
HETATM    4  H2  UNL     1      -9.925   5.773  69.218  1.00  0.00     0.000 HD 
HETATM    5  C   UNL     1     -10.154   6.604  71.791  1.00  0.00    -0.183 C  
HETATM    6  O   UNL     1      -9.505   5.623  72.595  1.00  0.00    -0.147 OA 
HETATM    7  O   UNL     1     -11.326   6.003  71.255  1.00  0.00    -0.285 OA 
HETATM    8  H   UNL     1     -11.889   5.689  71.952  1.00  0.00     0.000 HD 
HETATM    9  C   UNL     1      -8.325   6.102  73.274  1.00  0.00    -0.117 C  
HETATM   10  H   UNL     1      -7.309   9.169  72.276  1.00  0.00     0.000 HD 
HETATM   11  C   UNL     1      -7.286   6.622  72.264  1.00  0.00    -0.089 C  
HETATM   12  C   UNL     1      -7.899   7.609  71.254  1.00  0.00    -0.090 C  
HETATM   13  H   UNL     1      -6.050   5.834  70.954  1.00  0.00     0.000 HD 
HETATM   14  O   UNL     1      -6.690   5.514  71.578  1.00  0.00    -0.055 OA 
HETATM   15  O   UNL     1      -8.130   8.867  71.906  1.00  0.00    -0.338 OA 
ENDROOT
BRANCH   9  16
HETATM   16  C   UNL     1      -8.662   7.115  74.380  1.00  0.00    -0.203 C  
HETATM   17  O   UNL     1      -9.939   7.703  74.136  1.00  0.00    -0.347 OA 
HETATM   18  H   UNL     1     -10.147   8.329  74.820  1.00  0.00     0.000 HD 
ENDBRANCH   9  16
TORSDOF 1
ENDMDL
MODEL      162
REMARK 921   NORMALIZED FREE ENERGY PREDICTED BY IDOCK:   -1.46 KCAL/MOL
REMARK 922        TOTAL FREE ENERGY PREDICTED BY IDOCK:   -1.57 KCAL/MOL
REMARK 923 INTER-LIGAND FREE ENERGY PREDICTED BY IDOCK:   -2.10 KCAL/MOL
REMARK 924 INTRA-LIGAND FREE ENERGY PREDICTED BY IDOCK:    0.54 KCAL/MOL
REMARK 927      BINDING AFFINITY PREDICTED BY RF-SCORE:    0.00 PKD
ROOT
HETATM    1  N   UNL     1      -8.421   5.250  71.933  1.00  0.00    -0.125 NA 
HETATM    2  H1  UNL     1      -7.867   5.076  72.773  1.00  0.00     0.000 HD 
HETATM    3  C   UNL     1      -8.027   6.506  71.244  1.00  0.00    -0.108 C  
HETATM    4  H2  UNL     1      -8.384   4.454  71.297  1.00  0.00     0.000 HD 
HETATM    5  C   UNL     1      -8.868   6.770  69.969  1.00  0.00    -0.142 C  
HETATM    6  O   UNL     1     -10.205   7.148  70.286  1.00  0.00    -0.194 OA 
HETATM    7  O   UNL     1      -8.940   5.599  69.165  1.00  0.00    -0.112 OA 
HETATM    8  H   UNL     1      -9.455   5.761  68.384  1.00  0.00     0.000 HD 
HETATM    9  C   UNL     1     -10.309   8.371  71.045  1.00  0.00    -0.198 C  
HETATM   10  H   UNL     1      -7.349   9.539  72.191  1.00  0.00     0.000 HD 
HETATM   11  C   UNL     1      -9.542   8.255  72.375  1.00  0.00    -0.294 C  
HETATM   12  C   UNL     1      -8.107   7.736  72.176  1.00  0.00    -0.112 C  
HETATM   13  H   UNL     1      -9.790   7.327  74.090  1.00  0.00     0.000 HD 
HETATM   14  O   UNL     1     -10.263   7.399  73.270  1.00  0.00    -0.266 OA 
HETATM   15  O   UNL     1      -7.300   8.783  71.618  1.00  0.00    -0.143 OA 
ENDROOT
BRANCH   9  16
HETATM   16  C   UNL     1      -9.914   9.605  70.217  1.00  0.00    -0.270 C  
HETATM   17  O   UNL     1      -9.179   9.206  69.061  1.00  0.00    -0.141 OA 
HETATM   18  H   UNL     1      -8.935   9.968  68.549  1.00  0.00     0.000 HD 
ENDBRANCH   9  16
TORSDOF 1
ENDMDL
MODEL      163
REMARK 921   NORMALIZED FREE ENERGY PREDICTED BY IDOCK:   -1.30 KCAL/MOL
REMARK 922        TOTAL FREE ENERGY PREDICTED BY IDOCK:   -1.41 KCAL/MOL
REMARK 923 INTER-LIGAND FREE ENERGY PREDICTED BY IDOCK:   -1.32 KCAL/MOL
REMARK 924 INTRA-LIGAND FREE ENERGY PREDICTED BY IDOCK:   -0.08 KCAL/MOL
REMARK 927      BINDING AFFINITY PREDICTED BY RF-SCORE:    0.00 PKD
ROOT
HETATM    1  N   UNL     1      -6.789   6.861  70.186  1.00  0.00    -0.055 NA 
HETATM    2  H1  UNL     1      -6.624   6.549  69.229  1.00  0.00     0.000 HD 
HETATM    3  C   UNL     1      -6.966   5.727  71.129  1.00  0.00    -0.067 C  
HETATM    4  H2  UNL     1      -6.049   7.488  70.501  1.00  0.00     0.000 HD 
HETATM    5  C   UNL     1      -7.216   6.200  72.584  1.00  0.00    -0.085 C  
HETATM    6  O   UNL     1      -8.513   6.770  72.740  1.00  0.00    -0.117 OA 
HETATM    7  O   UNL     1      -6.270   7.194  72.956  1.00  0.00    -0.056 OA 
HETATM    8  H   UNL     1      -6.424   7.484  73.848  1.00  0.00     0.000 HD 
HETATM    9  C   UNL     1      -9.596   5.856  72.467  1.00  0.00    -0.154 C  
HETATM   10  H   UNL     1      -8.619   2.929  71.085  1.00  0.00     0.000 HD 
HETATM   11  C   UNL     1      -9.507   5.317  71.029  1.00  0.00    -0.161 C  
HETATM   12  C   UNL     1      -8.105   4.776  70.696  1.00  0.00    -0.081 C  
HETATM   13  H   UNL     1      -9.820   6.017  69.218  1.00  0.00     0.000 HD 
HETATM   14  O   UNL     1      -9.875   6.350  70.106  1.00  0.00    -0.165 OA 
HETATM   15  O   UNL     1      -7.918   3.513  71.352  1.00  0.00    -0.058 OA 
ENDROOT
BRANCH   9  16
HETATM   16  C   UNL     1      -9.706   4.751  73.530  1.00  0.00    -0.135 C  
HETATM   17  O   UNL     1     -10.852   3.940  73.278  1.00  0.00    -0.187 OA 
HETATM   18  H   UNL     1     -10.920   3.256  73.934  1.00  0.00     0.000 HD 
ENDBRANCH   9  16
TORSDOF 1
ENDMDL
MODEL      164
REMARK 921   NORMALIZED FREE ENERGY PREDICTED BY IDOCK:   -0.86 KCAL/MOL
REMARK 922        TOTAL FREE ENERGY PREDICTED BY IDOCK:   -0.94 KCAL/MOL
REMARK 923 INTER-LIGAND FREE ENERGY PREDICTED BY IDOCK:   -1.47 KCAL/MOL
REMARK 924 INTRA-LIGAND FREE ENERGY PREDICTED BY IDOCK:    0.54 KCAL/MOL
REMARK 927      BINDING AFFINITY PREDICTED BY RF-SCORE:    0.00 PKD
ROOT
HETATM    1  N   UNL     1      -9.459   6.147  65.825  1.00  0.00    -0.375 NA 
HETATM    2  H1  UNL     1     -10.470   6.277  65.781  1.00  0.00     0.000 HD 
HETATM    3  C   UNL     1      -8.986   5.071  64.916  1.00  0.00    -0.113 C  
HETATM    4  H2  UNL     1      -8.968   7.023  65.644  1.00  0.00     0.000 HD 
HETATM    5  C   UNL     1      -7.449   4.874  64.982  1.00  0.00    -0.076 C  
HETATM    6  O   UNL     1      -7.046   4.268  66.207  1.00  0.00    -0.065 OA 
HETATM    7  O   UNL     1      -6.780   6.125  64.889  1.00  0.00    -0.041 OA 
HETATM    8  H   UNL     1      -5.839   6.004  64.929  1.00  0.00     0.000 HD 
HETATM    9  C   UNL     1      -7.588   2.947  66.420  1.00  0.00    -0.076 C  
HETATM   10  H   UNL     1      -9.976   2.062  64.196  1.00  0.00     0.000 HD 
HETATM   11  C   UNL     1      -9.126   2.981  66.415  1.00  0.00    -0.146 C  
HETATM   12  C   UNL     1      -9.688   3.722  65.189  1.00  0.00    -0.176 C  
HETATM   13  H   UNL     1     -10.545   3.611  67.621  1.00  0.00     0.000 HD 
HETATM   14  O   UNL     1      -9.595   3.590  67.624  1.00  0.00    -0.203 OA 
HETATM   15  O   UNL     1      -9.544   2.891  64.028  1.00  0.00    -0.129 OA 
ENDROOT
BRANCH   9  16
HETATM   16  C   UNL     1      -6.995   1.913  65.449  1.00  0.00    -0.047 C  
HETATM   17  O   UNL     1      -6.439   2.569  64.311  1.00  0.00    -0.025 OA 
HETATM   18  H   UNL     1      -6.073   1.930  63.711  1.00  0.00     0.000 HD 
ENDBRANCH   9  16
TORSDOF 1
ENDMDL
MODEL      165
REMARK 921   NORMALIZED FREE ENERGY PREDICTED BY IDOCK:   -0.24 KCAL/MOL
REMARK 922        TOTAL FREE ENERGY PREDICTED BY IDOCK:   -0.28 KCAL/MOL
REMARK 923 INTER-LIGAND FREE ENERGY PREDICTED BY IDOCK:   -0.84 KCAL/MOL
REMARK 924 INTRA-LIGAND FREE ENERGY PREDICTED BY IDOCK:    0.55 KCAL/MOL
REMARK 927      BINDING AFFINITY PREDICTED BY RF-SCORE:    0.00 PKD
ROOT
HETATM    1  N   UNL     1      -9.011   6.117  66.939  1.00  0.00    -0.116 NA 
HETATM    2  H1  UNL     1     -10.012   5.987  66.795  1.00  0.00     0.000 HD 
HETATM    3  C   UNL     1      -8.245   6.078  65.667  1.00  0.00    -0.139 C  
HETATM    4  H2  UNL     1      -8.822   6.977  67.455  1.00  0.00     0.000 HD 
HETATM    5  C   UNL     1      -6.722   6.276  65.886  1.00  0.00    -0.049 C  
HETATM    6  O   UNL     1      -6.123   5.136  66.495  1.00  0.00    -0.028 OA 
HETATM    7  O   UNL     1      -6.481   7.388  66.740  1.00  0.00    -0.049 OA 
HETATM    8  H   UNL     1      -5.548   7.508  66.874  1.00  0.00     0.000 HD 
HETATM    9  C   UNL     1      -6.219   3.928  65.711  1.00  0.00    -0.032 C  
HETATM   10  H   UNL     1      -8.259   4.185  63.026  1.00  0.00     0.000 HD 
HETATM   11  C   UNL     1      -7.690   3.573  65.433  1.00  0.00    -0.081 C  
HETATM   12  C   UNL     1      -8.484   4.770  64.879  1.00  0.00    -0.140 C  
HETATM   13  H   UNL     1      -9.208   2.866  66.464  1.00  0.00     0.000 HD 
HETATM   14  O   UNL     1      -8.300   3.085  66.635  1.00  0.00    -0.088 OA 
HETATM   15  O   UNL     1      -8.111   4.989  63.510  1.00  0.00    -0.091 OA 
ENDROOT
BRANCH   9  16
HETATM   16  C   UNL     1      -5.354   3.989  64.441  1.00  0.00    -0.013 C  
HETATM   17  O   UNL     1      -5.168   5.344  64.038  1.00  0.00    -0.009 OA 
HETATM   18  H   UNL     1      -4.634   5.382  63.254  1.00  0.00     0.000 HD 
ENDBRANCH   9  16
TORSDOF 1
ENDMDL
MODEL      166
REMARK 921   NORMALIZED FREE ENERGY PREDICTED BY IDOCK:    3.06 KCAL/MOL
REMARK 922        TOTAL FREE ENERGY PREDICTED BY IDOCK:    3.21 KCAL/MOL
REMARK 923 INTER-LIGAND FREE ENERGY PREDICTED BY IDOCK:    2.65 KCAL/MOL
REMARK 924 INTRA-LIGAND FREE ENERGY PREDICTED BY IDOCK:    0.56 KCAL/MOL
REMARK 927      BINDING AFFINITY PREDICTED BY RF-SCORE:    0.00 PKD
ROOT
HETATM    1  N   UNL     1     -13.205  16.091  71.239  1.00  0.00    -0.453 NA 
HETATM    2  H1  UNL     1     -14.020  16.659  71.007  1.00  0.00     0.000 HD 
HETATM    3  C   UNL     1     -12.024  16.427  70.403  1.00  0.00     0.317 C  
HETATM    4  H2  UNL     1     -12.983  16.155  72.232  1.00  0.00     0.000 HD 
HETATM    5  C   UNL     1     -10.785  15.564  70.755  1.00  0.00    -0.167 C  
HETATM    6  O   UNL     1     -10.939  14.215  70.319  1.00  0.00     0.052 OA 
HETATM    7  O   UNL     1     -10.580  15.533  72.161  1.00  0.00     0.269 OA 
HETATM    8  H   UNL     1      -9.821  15.004  72.377  1.00  0.00     0.000 HD 
HETATM    9  C   UNL     1     -11.085  14.069  68.891  1.00  0.00    -0.268 C  
HETATM   10  H   UNL     1     -11.522  16.989  67.242  1.00  0.00     0.000 HD 
HETATM   11  C   UNL     1     -12.310  14.852  68.384  1.00  0.00     0.131 C  
HETATM   12  C   UNL     1     -12.322  16.305  68.891  1.00  0.00     0.763 C  
HETATM   13  H   UNL     1     -14.265  14.658  68.470  1.00  0.00     0.000 HD 
HETATM   14  O   UNL     1     -13.509  14.175  68.782  1.00  0.00     2.597 OA 
HETATM   15  O   UNL     1     -11.339  17.064  68.171  1.00  0.00    -0.171 OA 
ENDROOT
BRANCH   9  16
HETATM   16  C   UNL     1      -9.789  14.406  68.135  1.00  0.00    -0.223 C  
HETATM   17  O   UNL     1      -8.843  14.997  69.024  1.00  0.00    -0.197 OA 
HETATM   18  H   UNL     1      -8.042  15.205  68.557  1.00  0.00     0.000 HD 
ENDBRANCH   9  16
TORSDOF 1
ENDMDL
