MODEL        1
REMARK 921   NORMALIZED FREE ENERGY PREDICTED BY IDOCK:   -5.16 KCAL/MOL
REMARK 922        TOTAL FREE ENERGY PREDICTED BY IDOCK:   -5.81 KCAL/MOL
REMARK 923 INTER-LIGAND FREE ENERGY PREDICTED BY IDOCK:   -5.76 KCAL/MOL
REMARK 924 INTRA-LIGAND FREE ENERGY PREDICTED BY IDOCK:   -0.05 KCAL/MOL
REMARK 927      BINDING AFFINITY PREDICTED BY RF-SCORE:    0.00 PKD
ROOT
ATOM      1  N   GLU A   1     -11.424  16.251  63.834  1.00  0.00    -1.539 NA 
ATOM      2  CA  GLU A   1     -11.149  15.486  65.091  1.00  0.00    -0.374 C  
ATOM      3  H1  GLU A   1     -11.948  17.098  64.056  1.00  0.00     0.000 HD 
ATOM      4  H2  GLU A   1     -11.896  15.681  63.132  1.00  0.00     0.000 HD 
ATOM      5  OXT GLU A   1      -9.967  16.109  67.162  1.00  0.00    -0.242 OA 
ATOM      6  C   GLU A   1     -10.394  16.424  66.061  1.00  0.00    -0.352 C  
ATOM      7  O   GLU A   1     -10.272  17.673  65.548  1.00  0.00    -0.600 OA 
ENDROOT
BRANCH   2   8
ATOM      8  CB  GLU A   1     -10.362  14.214  64.757  1.00  0.00    -0.387 C  
BRANCH   8   9
ATOM      9  CG  GLU A   1     -11.201  13.138  64.061  1.00  0.00    -0.418 C  
ATOM     10  CD  GLU A   1     -12.277  12.603  64.971  1.00  0.00    -0.476 C  
ATOM     11  OE1 GLU A   1     -13.360  12.150  64.300  1.00  0.00    -0.761 OA 
ATOM     12  OE2 GLU A   1     -12.186  12.544  66.188  1.00  0.00    -0.609 OA 
ENDBRANCH   8   9
ENDBRANCH   2   8
TORSDOF 2
ENDMDL
MODEL        2
REMARK 921   NORMALIZED FREE ENERGY PREDICTED BY IDOCK:   -5.10 KCAL/MOL
REMARK 922        TOTAL FREE ENERGY PREDICTED BY IDOCK:   -5.75 KCAL/MOL
REMARK 923 INTER-LIGAND FREE ENERGY PREDICTED BY IDOCK:   -5.57 KCAL/MOL
REMARK 924 INTRA-LIGAND FREE ENERGY PREDICTED BY IDOCK:   -0.17 KCAL/MOL
REMARK 927      BINDING AFFINITY PREDICTED BY RF-SCORE:    0.00 PKD
ROOT
ATOM      1  N   GLU A   1     -12.509  14.595  63.819  1.00  0.00    -1.068 NA 
ATOM      2  CA  GLU A   1     -11.669  13.985  64.900  1.00  0.00    -0.380 C  
ATOM      3  H1  GLU A   1     -12.541  13.967  63.016  1.00  0.00     0.000 HD 
ATOM      4  H2  GLU A   1     -12.188  15.529  63.564  1.00  0.00     0.000 HD 
ATOM      5  OXT GLU A   1     -11.863  11.851  66.116  1.00  0.00    -0.528 OA 
ATOM      6  C   GLU A   1     -12.268  12.601  65.241  1.00  0.00    -0.475 C  
ATOM      7  O   GLU A   1     -13.308  12.297  64.426  1.00  0.00    -0.786 OA 
ENDROOT
BRANCH   2   8
ATOM      8  CB  GLU A   1     -11.620  14.928  66.106  1.00  0.00    -0.228 C  
BRANCH   8   9
ATOM      9  CG  GLU A   1     -10.347  15.777  66.170  1.00  0.00    -0.333 C  
ATOM     10  CD  GLU A   1     -10.475  17.028  65.338  1.00  0.00    -0.112 C  
ATOM     11  OE1 GLU A   1      -9.714  18.048  65.797  1.00  0.00    -0.521 OA 
ATOM     12  OE2 GLU A   1     -11.162  17.122  64.333  1.00  0.00    -1.143 OA 
ENDBRANCH   8   9
ENDBRANCH   2   8
TORSDOF 2
ENDMDL
MODEL        3
REMARK 921   NORMALIZED FREE ENERGY PREDICTED BY IDOCK:   -4.91 KCAL/MOL
REMARK 922        TOTAL FREE ENERGY PREDICTED BY IDOCK:   -5.53 KCAL/MOL
REMARK 923 INTER-LIGAND FREE ENERGY PREDICTED BY IDOCK:   -5.22 KCAL/MOL
REMARK 924 INTRA-LIGAND FREE ENERGY PREDICTED BY IDOCK:   -0.31 KCAL/MOL
REMARK 927      BINDING AFFINITY PREDICTED BY RF-SCORE:    0.00 PKD
ROOT
ATOM      1  N   GLU A   1     -11.562  16.384  63.860  1.00  0.00    -1.602 NA 
ATOM      2  CA  GLU A   1     -10.893  15.355  64.720  1.00  0.00    -0.364 C  
ATOM      3  H1  GLU A   1     -11.642  16.033  62.906  1.00  0.00     0.000 HD 
ATOM      4  H2  GLU A   1     -11.086  17.285  63.899  1.00  0.00     0.000 HD 
ATOM      5  OXT GLU A   1     -11.489  13.022  65.242  1.00  0.00    -0.297 OA 
ATOM      6  C   GLU A   1     -11.719  14.051  64.626  1.00  0.00    -0.405 C  
ATOM      7  O   GLU A   1     -12.742  14.175  63.745  1.00  0.00    -0.761 OA 
ENDROOT
BRANCH   2   8
ATOM      8  CB  GLU A   1     -10.772  15.883  66.153  1.00  0.00    -0.273 C  
BRANCH   8   9
ATOM      9  CG  GLU A   1      -9.478  16.660  66.414  1.00  0.00    -0.305 C  
ATOM     10  CD  GLU A   1      -9.707  18.149  66.350  1.00  0.00    -0.327 C  
ATOM     11  OE1 GLU A   1      -8.842  18.850  67.119  1.00  0.00    -0.276 OA 
ATOM     12  OE2 GLU A   1     -10.557  18.689  65.659  1.00  0.00    -0.610 OA 
ENDBRANCH   8   9
ENDBRANCH   2   8
TORSDOF 2
ENDMDL
MODEL        4
REMARK 921   NORMALIZED FREE ENERGY PREDICTED BY IDOCK:   -4.88 KCAL/MOL
REMARK 922        TOTAL FREE ENERGY PREDICTED BY IDOCK:   -5.51 KCAL/MOL
REMARK 923 INTER-LIGAND FREE ENERGY PREDICTED BY IDOCK:   -5.30 KCAL/MOL
REMARK 924 INTRA-LIGAND FREE ENERGY PREDICTED BY IDOCK:   -0.21 KCAL/MOL
REMARK 927      BINDING AFFINITY PREDICTED BY RF-SCORE:    0.00 PKD
ROOT
ATOM      1  N   GLU A   1     -12.374  14.209  63.233  1.00  0.00    -1.133 NA 
ATOM      2  CA  GLU A   1     -11.816  14.236  64.623  1.00  0.00    -0.448 C  
ATOM      3  H1  GLU A   1     -13.092  14.928  63.138  1.00  0.00     0.000 HD 
ATOM      4  H2  GLU A   1     -12.719  13.285  62.975  1.00  0.00     0.000 HD 
ATOM      5  OXT GLU A   1     -10.710  16.024  65.908  1.00  0.00    -0.323 OA 
ATOM      6  C   GLU A   1     -11.280  15.661  64.890  1.00  0.00    -0.369 C  
ATOM      7  O   GLU A   1     -11.538  16.491  63.849  1.00  0.00    -1.175 OA 
ENDROOT
BRANCH   2   8
ATOM      8  CB  GLU A   1     -10.738  13.157  64.764  1.00  0.00    -0.381 C  
BRANCH   8   9
ATOM      9  CG  GLU A   1     -11.164  11.975  65.641  1.00  0.00    -0.377 C  
ATOM     10  CD  GLU A   1     -11.101  12.324  67.107  1.00  0.00    -0.278 C  
ATOM     11  OE1 GLU A   1     -11.979  11.620  67.856  1.00  0.00    -0.599 OA 
ATOM     12  OE2 GLU A   1     -10.323  13.132  67.592  1.00  0.00    -0.218 OA 
ENDBRANCH   8   9
ENDBRANCH   2   8
TORSDOF 2
ENDMDL
MODEL        5
REMARK 921   NORMALIZED FREE ENERGY PREDICTED BY IDOCK:   -4.69 KCAL/MOL
REMARK 922        TOTAL FREE ENERGY PREDICTED BY IDOCK:   -5.30 KCAL/MOL
REMARK 923 INTER-LIGAND FREE ENERGY PREDICTED BY IDOCK:   -5.13 KCAL/MOL
REMARK 924 INTRA-LIGAND FREE ENERGY PREDICTED BY IDOCK:   -0.16 KCAL/MOL
REMARK 927      BINDING AFFINITY PREDICTED BY RF-SCORE:    0.00 PKD
ROOT
ATOM      1  N   GLU A   1     -10.136  15.388  66.993  1.00  0.00    -0.246 NA 
ATOM      2  CA  GLU A   1     -10.813  15.029  65.705  1.00  0.00    -0.350 C  
ATOM      3  H1  GLU A   1      -9.272  15.893  66.796  1.00  0.00     0.000 HD 
ATOM      4  H2  GLU A   1      -9.979  14.573  67.585  1.00  0.00     0.000 HD 
ATOM      5  OXT GLU A   1     -11.623  16.417  63.838  1.00  0.00    -1.100 OA 
ATOM      6  C   GLU A   1     -11.047  16.335  64.912  1.00  0.00    -0.290 C  
ATOM      7  O   GLU A   1     -10.508  17.404  65.549  1.00  0.00    -0.624 OA 
ENDROOT
BRANCH   2   8
ATOM      8  CB  GLU A   1     -12.111  14.270  66.001  1.00  0.00    -0.423 C  
BRANCH   8   9
ATOM      9  CG  GLU A   1     -12.080  12.804  65.558  1.00  0.00    -0.517 C  
ATOM     10  CD  GLU A   1     -12.163  12.680  64.058  1.00  0.00    -0.463 C  
ATOM     11  OE1 GLU A   1     -11.562  11.564  63.585  1.00  0.00    -0.394 OA 
ATOM     12  OE2 GLU A   1     -12.737  13.475  63.329  1.00  0.00    -0.726 OA 
ENDBRANCH   8   9
ENDBRANCH   2   8
TORSDOF 2
ENDMDL
MODEL        6
REMARK 921   NORMALIZED FREE ENERGY PREDICTED BY IDOCK:   -4.68 KCAL/MOL
REMARK 922        TOTAL FREE ENERGY PREDICTED BY IDOCK:   -5.28 KCAL/MOL
REMARK 923 INTER-LIGAND FREE ENERGY PREDICTED BY IDOCK:   -5.20 KCAL/MOL
REMARK 924 INTRA-LIGAND FREE ENERGY PREDICTED BY IDOCK:   -0.08 KCAL/MOL
REMARK 927      BINDING AFFINITY PREDICTED BY RF-SCORE:    0.00 PKD
ROOT
ATOM      1  N   GLU A   1     -12.533  14.376  63.441  1.00  0.00    -1.068 NA 
ATOM      2  CA  GLU A   1     -11.608  14.387  64.619  1.00  0.00    -0.409 C  
ATOM      3  H1  GLU A   1     -13.257  15.082  63.567  1.00  0.00     0.000 HD 
ATOM      4  H2  GLU A   1     -12.924  13.450  63.268  1.00  0.00     0.000 HD 
ATOM      5  OXT GLU A   1     -10.210  16.170  65.586  1.00  0.00    -0.349 OA 
ATOM      6  C   GLU A   1     -11.037  15.816  64.760  1.00  0.00    -0.400 C  
ATOM      7  O   GLU A   1     -11.586  16.661  63.852  1.00  0.00    -1.204 OA 
ENDROOT
BRANCH   2   8
ATOM      8  CB  GLU A   1     -10.520  13.326  64.428  1.00  0.00    -0.424 C  
BRANCH   8   9
ATOM      9  CG  GLU A   1     -10.842  11.988  65.103  1.00  0.00    -0.347 C  
ATOM     10  CD  GLU A   1     -10.224  10.832  64.358  1.00  0.00    -0.364 C  
ATOM     11  OE1 GLU A   1      -9.950   9.775  65.157  1.00  0.00    -0.309 OA 
ATOM     12  OE2 GLU A   1     -10.014  10.818  63.155  1.00  0.00    -0.330 OA 
ENDBRANCH   8   9
ENDBRANCH   2   8
TORSDOF 2
ENDMDL
MODEL        7
REMARK 921   NORMALIZED FREE ENERGY PREDICTED BY IDOCK:   -4.65 KCAL/MOL
REMARK 922        TOTAL FREE ENERGY PREDICTED BY IDOCK:   -5.25 KCAL/MOL
REMARK 923 INTER-LIGAND FREE ENERGY PREDICTED BY IDOCK:   -5.10 KCAL/MOL
REMARK 924 INTRA-LIGAND FREE ENERGY PREDICTED BY IDOCK:   -0.15 KCAL/MOL
REMARK 927      BINDING AFFINITY PREDICTED BY RF-SCORE:    0.00 PKD
ROOT
ATOM      1  N   GLU A   1     -10.031  13.671  64.303  1.00  0.00    -0.729 NA 
ATOM      2  CA  GLU A   1     -11.203  13.276  65.148  1.00  0.00    -0.302 C  
ATOM      3  H1  GLU A   1      -9.714  12.867  63.762  1.00  0.00     0.000 HD 
ATOM      4  H2  GLU A   1      -9.280  14.082  64.856  1.00  0.00     0.000 HD 
ATOM      5  OXT GLU A   1     -13.407  12.345  64.558  1.00  0.00    -0.800 OA 
ATOM      6  C   GLU A   1     -12.296  12.714  64.210  1.00  0.00    -0.435 C  
ATOM      7  O   GLU A   1     -11.864  12.655  62.926  1.00  0.00    -0.204 OA 
ENDROOT
BRANCH   2   8
ATOM      8  CB  GLU A   1     -11.680  14.484  65.962  1.00  0.00    -0.347 C  
BRANCH   8   9
ATOM      9  CG  GLU A   1     -10.633  15.596  66.079  1.00  0.00    -0.336 C  
ATOM     10  CD  GLU A   1     -10.925  16.732  65.132  1.00  0.00    -0.100 C  
ATOM     11  OE1 GLU A   1     -10.458  17.923  65.574  1.00  0.00    -0.650 OA 
ATOM     12  OE2 GLU A   1     -11.493  16.607  64.058  1.00  0.00    -1.192 OA 
ENDBRANCH   8   9
ENDBRANCH   2   8
TORSDOF 2
ENDMDL
MODEL        8
REMARK 921   NORMALIZED FREE ENERGY PREDICTED BY IDOCK:   -4.57 KCAL/MOL
REMARK 922        TOTAL FREE ENERGY PREDICTED BY IDOCK:   -5.15 KCAL/MOL
REMARK 923 INTER-LIGAND FREE ENERGY PREDICTED BY IDOCK:   -5.03 KCAL/MOL
REMARK 924 INTRA-LIGAND FREE ENERGY PREDICTED BY IDOCK:   -0.13 KCAL/MOL
REMARK 927      BINDING AFFINITY PREDICTED BY RF-SCORE:    0.00 PKD
ROOT
ATOM      1  N   GLU A   1     -10.188  13.788  64.415  1.00  0.00    -0.729 NA 
ATOM      2  CA  GLU A   1     -10.970  12.510  64.451  1.00  0.00    -0.340 C  
ATOM      3  H1  GLU A   1     -10.147  14.136  63.458  1.00  0.00     0.000 HD 
ATOM      4  H2  GLU A   1      -9.261  13.683  64.827  1.00  0.00     0.000 HD 
ATOM      5  OXT GLU A   1     -13.280  11.984  63.774  1.00  0.00    -0.723 OA 
ATOM      6  C   GLU A   1     -12.367  12.792  63.853  1.00  0.00    -0.426 C  
ATOM      7  O   GLU A   1     -12.461  14.065  63.393  1.00  0.00    -0.826 OA 
ENDROOT
BRANCH   2   8
ATOM      8  CB  GLU A   1     -11.032  11.986  65.890  1.00  0.00    -0.342 C  
BRANCH   8   9
ATOM      9  CG  GLU A   1     -11.624  12.990  66.884  1.00  0.00    -0.419 C  
ATOM     10  CD  GLU A   1     -11.899  12.348  68.220  1.00  0.00    -0.309 C  
ATOM     11  OE1 GLU A   1     -11.835  13.223  69.250  1.00  0.00    -0.302 OA 
ATOM     12  OE2 GLU A   1     -12.183  11.171  68.375  1.00  0.00    -0.610 OA 
ENDBRANCH   8   9
ENDBRANCH   2   8
TORSDOF 2
ENDMDL
MODEL        9
REMARK 921   NORMALIZED FREE ENERGY PREDICTED BY IDOCK:   -4.53 KCAL/MOL
REMARK 922        TOTAL FREE ENERGY PREDICTED BY IDOCK:   -5.11 KCAL/MOL
REMARK 923 INTER-LIGAND FREE ENERGY PREDICTED BY IDOCK:   -5.04 KCAL/MOL
REMARK 924 INTRA-LIGAND FREE ENERGY PREDICTED BY IDOCK:   -0.07 KCAL/MOL
REMARK 927      BINDING AFFINITY PREDICTED BY RF-SCORE:    0.00 PKD
ROOT
ATOM      1  N   GLU A   1     -11.289  16.491  63.843  1.00  0.00    -1.559 NA 
ATOM      2  CA  GLU A   1     -10.811  15.409  64.763  1.00  0.00    -0.364 C  
ATOM      3  H1  GLU A   1     -11.483  16.096  62.923  1.00  0.00     0.000 HD 
ATOM      4  H2  GLU A   1     -10.635  17.272  63.796  1.00  0.00     0.000 HD 
ATOM      5  OXT GLU A   1     -11.854  13.298  65.488  1.00  0.00    -0.335 OA 
ATOM      6  C   GLU A   1     -11.893  14.305  64.798  1.00  0.00    -0.429 C  
ATOM      7  O   GLU A   1     -12.907  14.578  63.940  1.00  0.00    -0.685 OA 
ENDROOT
BRANCH   2   8
ATOM      8  CB  GLU A   1     -10.518  16.002  66.145  1.00  0.00    -0.334 C  
BRANCH   8   9
ATOM      9  CG  GLU A   1     -10.409  17.530  66.147  1.00  0.00    -0.330 C  
ATOM     10  CD  GLU A   1     -10.276  18.073  67.547  1.00  0.00    -0.369 C  
ATOM     11  OE1 GLU A   1      -9.602  19.245  67.598  1.00  0.00    -0.300 OA 
ATOM     12  OE2 GLU A   1     -10.748  17.543  68.541  1.00  0.00    -0.330 OA 
ENDBRANCH   8   9
ENDBRANCH   2   8
TORSDOF 2
ENDMDL
MODEL       10
REMARK 921   NORMALIZED FREE ENERGY PREDICTED BY IDOCK:   -4.52 KCAL/MOL
REMARK 922        TOTAL FREE ENERGY PREDICTED BY IDOCK:   -5.10 KCAL/MOL
REMARK 923 INTER-LIGAND FREE ENERGY PREDICTED BY IDOCK:   -4.79 KCAL/MOL
REMARK 924 INTRA-LIGAND FREE ENERGY PREDICTED BY IDOCK:   -0.31 KCAL/MOL
REMARK 927      BINDING AFFINITY PREDICTED BY RF-SCORE:    0.00 PKD
ROOT
ATOM      1  N   GLU A   1     -11.794  11.961  66.124  1.00  0.00    -0.508 NA 
ATOM      2  CA  GLU A   1     -11.437  12.958  67.183  1.00  0.00    -0.336 C  
ATOM      3  H1  GLU A   1     -11.334  11.072  66.322  1.00  0.00     0.000 HD 
ATOM      4  H2  GLU A   1     -11.582  12.303  65.187  1.00  0.00     0.000 HD 
ATOM      5  OXT GLU A   1     -11.742  12.929  69.628  1.00  0.00    -0.300 OA 
ATOM      6  C   GLU A   1     -11.843  12.362  68.551  1.00  0.00    -0.304 C  
ATOM      7  O   GLU A   1     -12.317  11.098  68.419  1.00  0.00    -0.556 OA 
ENDROOT
BRANCH   2   8
ATOM      8  CB  GLU A   1     -12.128  14.293  66.886  1.00  0.00    -0.440 C  
BRANCH   8   9
ATOM      9  CG  GLU A   1     -11.326  15.204  65.951  1.00  0.00    -0.225 C  
ATOM     10  CD  GLU A   1     -11.937  15.256  64.574  1.00  0.00    -0.271 C  
ATOM     11  OE1 GLU A   1     -11.685  16.417  63.927  1.00  0.00    -1.085 OA 
ATOM     12  OE2 GLU A   1     -12.569  14.344  64.063  1.00  0.00    -0.764 OA 
ENDBRANCH   8   9
ENDBRANCH   2   8
TORSDOF 2
ENDMDL
MODEL       11
REMARK 921   NORMALIZED FREE ENERGY PREDICTED BY IDOCK:   -4.49 KCAL/MOL
REMARK 922        TOTAL FREE ENERGY PREDICTED BY IDOCK:   -5.06 KCAL/MOL
REMARK 923 INTER-LIGAND FREE ENERGY PREDICTED BY IDOCK:   -4.93 KCAL/MOL
REMARK 924 INTRA-LIGAND FREE ENERGY PREDICTED BY IDOCK:   -0.14 KCAL/MOL
REMARK 927      BINDING AFFINITY PREDICTED BY RF-SCORE:    0.00 PKD
ROOT
ATOM      1  N   GLU A   1      -9.652  14.277  65.720  1.00  0.00    -0.516 NA 
ATOM      2  CA  GLU A   1     -10.751  14.445  64.717  1.00  0.00    -0.403 C  
ATOM      3  H1  GLU A   1      -8.841  14.825  65.435  1.00  0.00     0.000 HD 
ATOM      4  H2  GLU A   1      -9.418  13.296  65.873  1.00  0.00     0.000 HD 
ATOM      5  OXT GLU A   1     -11.935  16.449  63.907  1.00  0.00    -1.023 OA 
ATOM      6  C   GLU A   1     -11.057  15.956  64.599  1.00  0.00    -0.354 C  
ATOM      7  O   GLU A   1     -10.207  16.695  65.354  1.00  0.00    -0.585 OA 
ENDROOT
BRANCH   2   8
ATOM      8  CB  GLU A   1     -11.969  13.621  65.145  1.00  0.00    -0.391 C  
BRANCH   8   9
ATOM      9  CG  GLU A   1     -11.618  12.422  66.031  1.00  0.00    -0.455 C  
ATOM     10  CD  GLU A   1     -11.880  12.715  67.486  1.00  0.00    -0.334 C  
ATOM     11  OE1 GLU A   1     -12.170  11.606  68.205  1.00  0.00    -0.525 OA 
ATOM     12  OE2 GLU A   1     -11.810  13.825  67.991  1.00  0.00    -0.341 OA 
ENDBRANCH   8   9
ENDBRANCH   2   8
TORSDOF 2
ENDMDL
MODEL       12
REMARK 921   NORMALIZED FREE ENERGY PREDICTED BY IDOCK:   -4.48 KCAL/MOL
REMARK 922        TOTAL FREE ENERGY PREDICTED BY IDOCK:   -5.06 KCAL/MOL
REMARK 923 INTER-LIGAND FREE ENERGY PREDICTED BY IDOCK:   -4.85 KCAL/MOL
REMARK 924 INTRA-LIGAND FREE ENERGY PREDICTED BY IDOCK:   -0.21 KCAL/MOL
REMARK 927      BINDING AFFINITY PREDICTED BY RF-SCORE:    0.00 PKD
ROOT
ATOM      1  N   GLU A   1     -12.524  13.664  62.865  1.00  0.00    -0.856 NA 
ATOM      2  CA  GLU A   1     -12.038  12.570  63.765  1.00  0.00    -0.529 C  
ATOM      3  H1  GLU A   1     -13.538  13.745  62.942  1.00  0.00     0.000 HD 
ATOM      4  H2  GLU A   1     -12.222  13.532  61.900  1.00  0.00     0.000 HD 
ATOM      5  OXT GLU A   1     -12.243  12.238  66.198  1.00  0.00    -0.647 OA 
ATOM      6  C   GLU A   1     -12.508  12.894  65.202  1.00  0.00    -0.501 C  
ATOM      7  O   GLU A   1     -13.285  14.005  65.230  1.00  0.00    -0.782 OA 
ENDROOT
BRANCH   2   8
ATOM      8  CB  GLU A   1     -10.514  12.449  63.649  1.00  0.00    -0.460 C  
BRANCH   8   9
ATOM      9  CG  GLU A   1     -10.014  11.001  63.632  1.00  0.00    -0.415 C  
ATOM     10  CD  GLU A   1      -9.511  10.575  64.988  1.00  0.00    -0.244 C  
ATOM     11  OE1 GLU A   1      -9.628   9.244  65.201  1.00  0.00    -0.213 OA 
ATOM     12  OE2 GLU A   1      -9.016  11.330  65.810  1.00  0.00    -0.205 OA 
ENDBRANCH   8   9
ENDBRANCH   2   8
TORSDOF 2
ENDMDL
MODEL       13
REMARK 921   NORMALIZED FREE ENERGY PREDICTED BY IDOCK:   -4.46 KCAL/MOL
REMARK 922        TOTAL FREE ENERGY PREDICTED BY IDOCK:   -5.03 KCAL/MOL
REMARK 923 INTER-LIGAND FREE ENERGY PREDICTED BY IDOCK:   -4.82 KCAL/MOL
REMARK 924 INTRA-LIGAND FREE ENERGY PREDICTED BY IDOCK:   -0.22 KCAL/MOL
REMARK 927      BINDING AFFINITY PREDICTED BY RF-SCORE:    0.00 PKD
ROOT
ATOM      1  N   GLU A   1     -12.374  12.830  65.641  1.00  0.00    -0.594 NA 
ATOM      2  CA  GLU A   1     -12.064  14.295  65.674  1.00  0.00    -0.393 C  
ATOM      3  H1  GLU A   1     -13.281  12.682  65.198  1.00  0.00     0.000 HD 
ATOM      4  H2  GLU A   1     -12.325  12.406  66.567  1.00  0.00     0.000 HD 
ATOM      5  OXT GLU A   1     -11.865  15.968  63.875  1.00  0.00    -0.810 OA 
ATOM      6  C   GLU A   1     -12.118  14.824  64.222  1.00  0.00    -0.394 C  
ATOM      7  O   GLU A   1     -12.507  13.855  63.356  1.00  0.00    -0.833 OA 
ENDROOT
BRANCH   2   8
ATOM      8  CB  GLU A   1     -10.702  14.517  66.340  1.00  0.00    -0.309 C  
BRANCH   8   9
ATOM      9  CG  GLU A   1     -10.686  15.686  67.330  1.00  0.00    -0.309 C  
ATOM     10  CD  GLU A   1     -10.086  16.924  66.714  1.00  0.00    -0.294 C  
ATOM     11  OE1 GLU A   1     -10.565  18.069  67.253  1.00  0.00    -0.380 OA 
ATOM     12  OE2 GLU A   1      -9.232  16.917  65.841  1.00  0.00    -0.500 OA 
ENDBRANCH   8   9
ENDBRANCH   2   8
TORSDOF 2
ENDMDL
MODEL       14
REMARK 921   NORMALIZED FREE ENERGY PREDICTED BY IDOCK:   -4.46 KCAL/MOL
REMARK 922        TOTAL FREE ENERGY PREDICTED BY IDOCK:   -5.03 KCAL/MOL
REMARK 923 INTER-LIGAND FREE ENERGY PREDICTED BY IDOCK:   -4.78 KCAL/MOL
REMARK 924 INTRA-LIGAND FREE ENERGY PREDICTED BY IDOCK:   -0.26 KCAL/MOL
REMARK 927      BINDING AFFINITY PREDICTED BY RF-SCORE:    0.00 PKD
ROOT
ATOM      1  N   GLU A   1     -13.059  12.624  65.022  1.00  0.00    -0.735 NA 
ATOM      2  CA  GLU A   1     -12.731  14.035  65.405  1.00  0.00    -0.471 C  
ATOM      3  H1  GLU A   1     -13.845  12.620  64.372  1.00  0.00     0.000 HD 
ATOM      4  H2  GLU A   1     -13.230  12.035  65.836  1.00  0.00     0.000 HD 
ATOM      5  OXT GLU A   1     -12.092  15.992  64.051  1.00  0.00    -0.810 OA 
ATOM      6  C   GLU A   1     -12.443  14.823  64.107  1.00  0.00    -0.111 C  
ATOM      7  O   GLU A   1     -12.648  14.058  63.006  1.00  0.00    -0.643 OA 
ENDROOT
BRANCH   2   8
ATOM      8  CB  GLU A   1     -11.550  14.041  66.381  1.00  0.00    -0.381 C  
BRANCH   8   9
ATOM      9  CG  GLU A   1     -11.963  13.857  67.845  1.00  0.00    -0.393 C  
ATOM     10  CD  GLU A   1     -11.848  12.416  68.273  1.00  0.00    -0.309 C  
ATOM     11  OE1 GLU A   1     -11.608  12.275  69.597  1.00  0.00    -0.294 OA 
ATOM     12  OE2 GLU A   1     -11.987  11.460  67.526  1.00  0.00    -0.626 OA 
ENDBRANCH   8   9
ENDBRANCH   2   8
TORSDOF 2
ENDMDL
MODEL       15
REMARK 921   NORMALIZED FREE ENERGY PREDICTED BY IDOCK:   -4.45 KCAL/MOL
REMARK 922        TOTAL FREE ENERGY PREDICTED BY IDOCK:   -5.02 KCAL/MOL
REMARK 923 INTER-LIGAND FREE ENERGY PREDICTED BY IDOCK:   -4.89 KCAL/MOL
REMARK 924 INTRA-LIGAND FREE ENERGY PREDICTED BY IDOCK:   -0.13 KCAL/MOL
REMARK 927      BINDING AFFINITY PREDICTED BY RF-SCORE:    0.00 PKD
ROOT
ATOM      1  N   GLU A   1     -10.046  13.613  64.088  1.00  0.00    -0.718 NA 
ATOM      2  CA  GLU A   1     -10.787  12.345  63.791  1.00  0.00    -0.454 C  
ATOM      3  H1  GLU A   1     -10.134  14.253  63.299  1.00  0.00     0.000 HD 
ATOM      4  H2  GLU A   1      -9.072  13.440  64.336  1.00  0.00     0.000 HD 
ATOM      5  OXT GLU A   1     -13.151  11.921  63.242  1.00  0.00    -0.674 OA 
ATOM      6  C   GLU A   1     -12.254  12.716  63.478  1.00  0.00    -0.547 C  
ATOM      7  O   GLU A   1     -12.436  14.060  63.474  1.00  0.00    -0.826 OA 
ENDROOT
BRANCH   2   8
ATOM      8  CB  GLU A   1     -10.654  11.383  64.977  1.00  0.00    -0.359 C  
BRANCH   8   9
ATOM      9  CG  GLU A   1      -9.946  11.997  66.189  1.00  0.00    -0.254 C  
ATOM     10  CD  GLU A   1     -10.741  11.794  67.453  1.00  0.00    -0.236 C  
ATOM     11  OE1 GLU A   1      -9.968  11.749  68.563  1.00  0.00    -0.205 OA 
ATOM     12  OE2 GLU A   1     -11.959  11.710  67.498  1.00  0.00    -0.622 OA 
ENDBRANCH   8   9
ENDBRANCH   2   8
TORSDOF 2
ENDMDL
MODEL       16
REMARK 921   NORMALIZED FREE ENERGY PREDICTED BY IDOCK:   -4.42 KCAL/MOL
REMARK 922        TOTAL FREE ENERGY PREDICTED BY IDOCK:   -5.00 KCAL/MOL
REMARK 923 INTER-LIGAND FREE ENERGY PREDICTED BY IDOCK:   -4.87 KCAL/MOL
REMARK 924 INTRA-LIGAND FREE ENERGY PREDICTED BY IDOCK:   -0.13 KCAL/MOL
REMARK 927      BINDING AFFINITY PREDICTED BY RF-SCORE:    0.00 PKD
ROOT
ATOM      1  N   GLU A   1     -10.097  13.716  64.214  1.00  0.00    -0.763 NA 
ATOM      2  CA  GLU A   1     -10.822  12.412  64.081  1.00  0.00    -0.372 C  
ATOM      3  H1  GLU A   1     -10.120  14.213  63.324  1.00  0.00     0.000 HD 
ATOM      4  H2  GLU A   1      -9.147  13.594  64.562  1.00  0.00     0.000 HD 
ATOM      5  OXT GLU A   1     -13.140  11.886  63.431  1.00  0.00    -0.710 OA 
ATOM      6  C   GLU A   1     -12.259  12.715  63.597  1.00  0.00    -0.536 C  
ATOM      7  O   GLU A   1     -12.430  14.038  63.351  1.00  0.00    -0.826 OA 
ENDROOT
BRANCH   2   8
ATOM      8  CB  GLU A   1     -10.788  11.666  65.419  1.00  0.00    -0.336 C  
BRANCH   8   9
ATOM      9  CG  GLU A   1     -11.761  12.229  66.460  1.00  0.00    -0.420 C  
ATOM     10  CD  GLU A   1     -11.177  13.423  67.171  1.00  0.00    -0.302 C  
ATOM     11  OE1 GLU A   1     -12.119  14.287  67.615  1.00  0.00    -0.376 OA 
ATOM     12  OE2 GLU A   1      -9.984  13.595  67.367  1.00  0.00    -0.229 OA 
ENDBRANCH   8   9
ENDBRANCH   2   8
TORSDOF 2
ENDMDL
MODEL       17
REMARK 921   NORMALIZED FREE ENERGY PREDICTED BY IDOCK:   -4.41 KCAL/MOL
REMARK 922        TOTAL FREE ENERGY PREDICTED BY IDOCK:   -4.98 KCAL/MOL
REMARK 923 INTER-LIGAND FREE ENERGY PREDICTED BY IDOCK:   -4.84 KCAL/MOL
REMARK 924 INTRA-LIGAND FREE ENERGY PREDICTED BY IDOCK:   -0.14 KCAL/MOL
REMARK 927      BINDING AFFINITY PREDICTED BY RF-SCORE:    0.00 PKD
ROOT
ATOM      1  N   GLU A   1     -10.141  13.056  63.835  1.00  0.00    -0.757 NA 
ATOM      2  CA  GLU A   1     -10.964  13.255  65.071  1.00  0.00    -0.313 C  
ATOM      3  H1  GLU A   1     -10.580  12.352  63.241  1.00  0.00     0.000 HD 
ATOM      4  H2  GLU A   1      -9.172  12.826  64.051  1.00  0.00     0.000 HD 
ATOM      5  OXT GLU A   1     -13.313  13.931  65.382  1.00  0.00    -0.710 OA 
ATOM      6  C   GLU A   1     -12.394  13.645  64.630  1.00  0.00    -0.371 C  
ATOM      7  O   GLU A   1     -12.522  13.614  63.281  1.00  0.00    -0.801 OA 
ENDROOT
BRANCH   2   8
ATOM      8  CB  GLU A   1     -10.305  14.312  65.962  1.00  0.00    -0.318 C  
BRANCH   8   9
ATOM      9  CG  GLU A   1     -10.296  15.715  65.347  1.00  0.00    -0.421 C  
ATOM     10  CD  GLU A   1     -10.270  16.784  66.410  1.00  0.00    -0.323 C  
ATOM     11  OE1 GLU A   1      -9.677  17.927  65.995  1.00  0.00    -0.505 OA 
ATOM     12  OE2 GLU A   1     -10.755  16.662  67.524  1.00  0.00    -0.325 OA 
ENDBRANCH   8   9
ENDBRANCH   2   8
TORSDOF 2
ENDMDL
MODEL       18
REMARK 921   NORMALIZED FREE ENERGY PREDICTED BY IDOCK:   -4.40 KCAL/MOL
REMARK 922        TOTAL FREE ENERGY PREDICTED BY IDOCK:   -4.97 KCAL/MOL
REMARK 923 INTER-LIGAND FREE ENERGY PREDICTED BY IDOCK:   -4.83 KCAL/MOL
REMARK 924 INTRA-LIGAND FREE ENERGY PREDICTED BY IDOCK:   -0.13 KCAL/MOL
REMARK 927      BINDING AFFINITY PREDICTED BY RF-SCORE:    0.00 PKD
ROOT
ATOM      1  N   GLU A   1      -9.861  16.630  65.648  1.00  0.00    -0.562 NA 
ATOM      2  CA  GLU A   1     -10.597  15.330  65.543  1.00  0.00    -0.373 C  
ATOM      3  H1  GLU A   1      -9.488  16.887  64.735  1.00  0.00     0.000 HD 
ATOM      4  H2  GLU A   1      -9.138  16.606  66.366  1.00  0.00     0.000 HD 
ATOM      5  OXT GLU A   1     -12.517  14.642  64.160  1.00  0.00    -0.736 OA 
ATOM      6  C   GLU A   1     -11.696  15.492  64.467  1.00  0.00    -0.253 C  
ATOM      7  O   GLU A   1     -11.631  16.710  63.873  1.00  0.00    -1.204 OA 
ENDROOT
BRANCH   2   8
ATOM      8  CB  GLU A   1     -11.158  14.944  66.915  1.00  0.00    -0.337 C  
BRANCH   8   9
ATOM      9  CG  GLU A   1     -10.576  13.641  67.472  1.00  0.00    -0.243 C  
ATOM     10  CD  GLU A   1     -11.142  12.436  66.764  1.00  0.00    -0.285 C  
ATOM     11  OE1 GLU A   1     -10.295  11.381  66.757  1.00  0.00    -0.218 OA 
ATOM     12  OE2 GLU A   1     -12.257  12.387  66.269  1.00  0.00    -0.620 OA 
ENDBRANCH   8   9
ENDBRANCH   2   8
TORSDOF 2
ENDMDL
MODEL       19
REMARK 921   NORMALIZED FREE ENERGY PREDICTED BY IDOCK:   -4.33 KCAL/MOL
REMARK 922        TOTAL FREE ENERGY PREDICTED BY IDOCK:   -4.89 KCAL/MOL
REMARK 923 INTER-LIGAND FREE ENERGY PREDICTED BY IDOCK:   -4.79 KCAL/MOL
REMARK 924 INTRA-LIGAND FREE ENERGY PREDICTED BY IDOCK:   -0.11 KCAL/MOL
REMARK 927      BINDING AFFINITY PREDICTED BY RF-SCORE:    0.00 PKD
ROOT
ATOM      1  N   GLU A   1     -13.406  13.853  65.602  1.00  0.00    -0.632 NA 
ATOM      2  CA  GLU A   1     -12.425  12.884  65.018  1.00  0.00    -0.492 C  
ATOM      3  H1  GLU A   1     -14.073  13.353  66.190  1.00  0.00     0.000 HD 
ATOM      4  H2  GLU A   1     -13.869  14.411  64.884  1.00  0.00     0.000 HD 
ATOM      5  OXT GLU A   1     -10.859  11.303  66.075  1.00  0.00    -0.267 OA 
ATOM      6  C   GLU A   1     -11.749  12.131  66.187  1.00  0.00    -0.315 C  
ATOM      7  O   GLU A   1     -12.284  12.489  67.381  1.00  0.00    -0.430 OA 
ENDROOT
BRANCH   2   8
ATOM      8  CB  GLU A   1     -11.423  13.636  64.134  1.00  0.00    -0.359 C  
BRANCH   8   9
ATOM      9  CG  GLU A   1     -10.498  14.573  64.917  1.00  0.00    -0.435 C  
ATOM     10  CD  GLU A   1     -10.954  16.007  64.819  1.00  0.00    -0.356 C  
ATOM     11  OE1 GLU A   1     -10.599  16.749  65.893  1.00  0.00    -0.324 OA 
ATOM     12  OE2 GLU A   1     -11.554  16.478  63.865  1.00  0.00    -1.175 OA 
ENDBRANCH   8   9
ENDBRANCH   2   8
TORSDOF 2
ENDMDL
MODEL       20
REMARK 921   NORMALIZED FREE ENERGY PREDICTED BY IDOCK:   -4.28 KCAL/MOL
REMARK 922        TOTAL FREE ENERGY PREDICTED BY IDOCK:   -4.83 KCAL/MOL
REMARK 923 INTER-LIGAND FREE ENERGY PREDICTED BY IDOCK:   -4.75 KCAL/MOL
REMARK 924 INTRA-LIGAND FREE ENERGY PREDICTED BY IDOCK:   -0.09 KCAL/MOL
REMARK 927      BINDING AFFINITY PREDICTED BY RF-SCORE:    0.00 PKD
ROOT
ATOM      1  N   GLU A   1     -10.741  14.533  68.210  1.00  0.00    -0.236 NA 
ATOM      2  CA  GLU A   1     -11.877  13.651  67.793  1.00  0.00    -0.368 C  
ATOM      3  H1  GLU A   1     -10.518  14.364  69.191  1.00  0.00     0.000 HD 
ATOM      4  H2  GLU A   1     -10.930  15.518  68.023  1.00  0.00     0.000 HD 
ATOM      5  OXT GLU A   1     -12.137  11.200  67.807  1.00  0.00    -0.606 OA 
ATOM      6  C   GLU A   1     -11.468  12.187  68.074  1.00  0.00    -0.319 C  
ATOM      7  O   GLU A   1     -10.259  12.119  68.685  1.00  0.00    -0.220 OA 
ENDROOT
BRANCH   2   8
ATOM      8  CB  GLU A   1     -12.212  13.904  66.320  1.00  0.00    -0.498 C  
BRANCH   8   9
ATOM      9  CG  GLU A   1     -11.238  14.861  65.626  1.00  0.00    -0.347 C  
ATOM     10  CD  GLU A   1     -11.863  15.501  64.412  1.00  0.00    -0.219 C  
ATOM     11  OE1 GLU A   1     -11.346  16.720  64.132  1.00  0.00    -1.194 OA 
ATOM     12  OE2 GLU A   1     -12.724  14.979  63.722  1.00  0.00    -0.741 OA 
ENDBRANCH   8   9
ENDBRANCH   2   8
TORSDOF 2
ENDMDL
MODEL       21
REMARK 921   NORMALIZED FREE ENERGY PREDICTED BY IDOCK:   -4.26 KCAL/MOL
REMARK 922        TOTAL FREE ENERGY PREDICTED BY IDOCK:   -4.81 KCAL/MOL
REMARK 923 INTER-LIGAND FREE ENERGY PREDICTED BY IDOCK:   -4.59 KCAL/MOL
REMARK 924 INTRA-LIGAND FREE ENERGY PREDICTED BY IDOCK:   -0.22 KCAL/MOL
REMARK 927      BINDING AFFINITY PREDICTED BY RF-SCORE:    0.00 PKD
ROOT
ATOM      1  N   GLU A   1     -12.461  14.330  63.318  1.00  0.00    -1.068 NA 
ATOM      2  CA  GLU A   1     -11.574  13.932  64.457  1.00  0.00    -0.393 C  
ATOM      3  H1  GLU A   1     -12.628  13.523  62.716  1.00  0.00     0.000 HD 
ATOM      4  H2  GLU A   1     -12.088  15.125  62.799  1.00  0.00     0.000 HD 
ATOM      5  OXT GLU A   1     -11.829  12.220  66.211  1.00  0.00    -0.517 OA 
ATOM      6  C   GLU A   1     -12.253  12.758  65.199  1.00  0.00    -0.477 C  
ATOM      7  O   GLU A   1     -13.392  12.369  64.574  1.00  0.00    -0.800 OA 
ENDROOT
BRANCH   2   8
ATOM      8  CB  GLU A   1     -11.324  15.144  65.361  1.00  0.00    -0.298 C  
BRANCH   8   9
ATOM      9  CG  GLU A   1      -9.863  15.294  65.795  1.00  0.00    -0.395 C  
ATOM     10  CD  GLU A   1      -9.651  14.796  67.203  1.00  0.00    -0.227 C  
ATOM     11  OE1 GLU A   1      -8.394  14.346  67.421  1.00  0.00    -0.176 OA 
ATOM     12  OE2 GLU A   1     -10.503  14.817  68.078  1.00  0.00    -0.241 OA 
ENDBRANCH   8   9
ENDBRANCH   2   8
TORSDOF 2
ENDMDL
MODEL       22
REMARK 921   NORMALIZED FREE ENERGY PREDICTED BY IDOCK:   -4.26 KCAL/MOL
REMARK 922        TOTAL FREE ENERGY PREDICTED BY IDOCK:   -4.81 KCAL/MOL
REMARK 923 INTER-LIGAND FREE ENERGY PREDICTED BY IDOCK:   -4.73 KCAL/MOL
REMARK 924 INTRA-LIGAND FREE ENERGY PREDICTED BY IDOCK:   -0.08 KCAL/MOL
REMARK 927      BINDING AFFINITY PREDICTED BY RF-SCORE:    0.00 PKD
ROOT
ATOM      1  N   GLU A   1     -12.866  12.646  65.220  1.00  0.00    -0.655 NA 
ATOM      2  CA  GLU A   1     -12.615  14.100  65.476  1.00  0.00    -0.479 C  
ATOM      3  H1  GLU A   1     -13.665  12.542  64.594  1.00  0.00     0.000 HD 
ATOM      4  H2  GLU A   1     -12.984  12.118  66.084  1.00  0.00     0.000 HD 
ATOM      5  OXT GLU A   1     -12.125  15.971  63.949  1.00  0.00    -0.880 OA 
ATOM      6  C   GLU A   1     -12.403  14.793  64.110  1.00  0.00    -0.231 C  
ATOM      7  O   GLU A   1     -12.587  13.927  63.082  1.00  0.00    -0.775 OA 
ENDROOT
BRANCH   2   8
ATOM      8  CB  GLU A   1     -11.415  14.257  66.416  1.00  0.00    -0.361 C  
BRANCH   8   9
ATOM      9  CG  GLU A   1     -11.771  14.102  67.898  1.00  0.00    -0.402 C  
ATOM     10  CD  GLU A   1     -11.693  15.420  68.625  1.00  0.00    -0.354 C  
ATOM     11  OE1 GLU A   1     -12.525  15.486  69.690  1.00  0.00    -0.270 OA 
ATOM     12  OE2 GLU A   1     -10.941  16.333  68.321  1.00  0.00    -0.323 OA 
ENDBRANCH   8   9
ENDBRANCH   2   8
TORSDOF 2
ENDMDL
MODEL       23
REMARK 921   NORMALIZED FREE ENERGY PREDICTED BY IDOCK:   -4.25 KCAL/MOL
REMARK 922        TOTAL FREE ENERGY PREDICTED BY IDOCK:   -4.80 KCAL/MOL
REMARK 923 INTER-LIGAND FREE ENERGY PREDICTED BY IDOCK:   -4.64 KCAL/MOL
REMARK 924 INTRA-LIGAND FREE ENERGY PREDICTED BY IDOCK:   -0.16 KCAL/MOL
REMARK 927      BINDING AFFINITY PREDICTED BY RF-SCORE:    0.00 PKD
ROOT
ATOM      1  N   GLU A   1     -12.261  14.792  68.400  1.00  0.00    -0.605 NA 
ATOM      2  CA  GLU A   1     -11.525  14.337  67.177  1.00  0.00    -0.359 C  
ATOM      3  H1  GLU A   1     -11.593  15.022  69.136  1.00  0.00     0.000 HD 
ATOM      4  H2  GLU A   1     -12.953  14.109  68.709  1.00  0.00     0.000 HD 
ATOM      5  OXT GLU A   1      -9.821  15.446  65.785  1.00  0.00    -0.323 OA 
ATOM      6  C   GLU A   1     -10.544  15.460  66.770  1.00  0.00    -0.309 C  
ATOM      7  O   GLU A   1     -10.562  16.481  67.662  1.00  0.00    -0.312 OA 
ENDROOT
BRANCH   2   8
ATOM      8  CB  GLU A   1     -12.528  13.991  66.072  1.00  0.00    -0.489 C  
BRANCH   8   9
ATOM      9  CG  GLU A   1     -12.172  12.719  65.297  1.00  0.00    -0.535 C  
ATOM     10  CD  GLU A   1     -11.950  13.008  63.834  1.00  0.00    -0.485 C  
ATOM     11  OE1 GLU A   1     -11.094  12.140  63.247  1.00  0.00    -0.410 OA 
ATOM     12  OE2 GLU A   1     -12.499  13.907  63.216  1.00  0.00    -0.817 OA 
ENDBRANCH   8   9
ENDBRANCH   2   8
TORSDOF 2
ENDMDL
MODEL       24
REMARK 921   NORMALIZED FREE ENERGY PREDICTED BY IDOCK:   -4.14 KCAL/MOL
REMARK 922        TOTAL FREE ENERGY PREDICTED BY IDOCK:   -4.68 KCAL/MOL
REMARK 923 INTER-LIGAND FREE ENERGY PREDICTED BY IDOCK:   -4.58 KCAL/MOL
REMARK 924 INTRA-LIGAND FREE ENERGY PREDICTED BY IDOCK:   -0.11 KCAL/MOL
REMARK 927      BINDING AFFINITY PREDICTED BY RF-SCORE:    0.00 PKD
ROOT
ATOM      1  N   GLU A   1     -11.540  11.538  63.096  1.00  0.00    -0.882 NA 
ATOM      2  CA  GLU A   1     -10.866  12.284  64.207  1.00  0.00    -0.348 C  
ATOM      3  H1  GLU A   1     -10.843  11.029  62.552  1.00  0.00     0.000 HD 
ATOM      4  H2  GLU A   1     -12.110  12.150  62.513  1.00  0.00     0.000 HD 
ATOM      5  OXT GLU A   1      -9.446  11.515  66.068  1.00  0.00    -0.218 OA 
ATOM      6  C   GLU A   1     -10.074  11.260  65.052  1.00  0.00    -0.279 C  
ATOM      7  O   GLU A   1     -10.139  10.017  64.513  1.00  0.00    -0.243 OA 
ENDROOT
BRANCH   2   8
ATOM      8  CB  GLU A   1     -11.913  13.048  65.023  1.00  0.00    -0.438 C  
BRANCH   8   9
ATOM      9  CG  GLU A   1     -12.316  14.389  64.402  1.00  0.00    -0.428 C  
ATOM     10  CD  GLU A   1     -11.385  15.496  64.829  1.00  0.00    -0.357 C  
ATOM     11  OE1 GLU A   1     -11.294  16.491  63.917  1.00  0.00    -1.057 OA 
ATOM     12  OE2 GLU A   1     -10.792  15.527  65.896  1.00  0.00    -0.326 OA 
ENDBRANCH   8   9
ENDBRANCH   2   8
TORSDOF 2
ENDMDL
MODEL       25
REMARK 921   NORMALIZED FREE ENERGY PREDICTED BY IDOCK:   -4.10 KCAL/MOL
REMARK 922        TOTAL FREE ENERGY PREDICTED BY IDOCK:   -4.63 KCAL/MOL
REMARK 923 INTER-LIGAND FREE ENERGY PREDICTED BY IDOCK:   -4.42 KCAL/MOL
REMARK 924 INTRA-LIGAND FREE ENERGY PREDICTED BY IDOCK:   -0.21 KCAL/MOL
REMARK 927      BINDING AFFINITY PREDICTED BY RF-SCORE:    0.00 PKD
ROOT
ATOM      1  N   GLU A   1     -10.052  12.819  63.556  1.00  0.00    -0.680 NA 
ATOM      2  CA  GLU A   1     -10.967  12.323  64.633  1.00  0.00    -0.306 C  
ATOM      3  H1  GLU A   1     -10.448  12.599  62.642  1.00  0.00     0.000 HD 
ATOM      4  H2  GLU A   1      -9.104  12.459  63.661  1.00  0.00     0.000 HD 
ATOM      5  OXT GLU A   1     -13.328  12.820  65.133  1.00  0.00    -0.577 OA 
ATOM      6  C   GLU A   1     -12.355  12.965  64.408  1.00  0.00    -0.398 C  
ATOM      7  O   GLU A   1     -12.379  13.711  63.276  1.00  0.00    -0.743 OA 
ENDROOT
BRANCH   2   8
ATOM      8  CB  GLU A   1     -10.372  12.654  66.006  1.00  0.00    -0.287 C  
BRANCH   8   9
ATOM      9  CG  GLU A   1      -9.932  11.419  66.798  1.00  0.00    -0.238 C  
ATOM     10  CD  GLU A   1     -11.110  10.718  67.426  1.00  0.00    -0.296 C  
ATOM     11  OE1 GLU A   1     -10.905   9.392  67.598  1.00  0.00    -0.267 OA 
ATOM     12  OE2 GLU A   1     -12.137  11.276  67.781  1.00  0.00    -0.631 OA 
ENDBRANCH   8   9
ENDBRANCH   2   8
TORSDOF 2
ENDMDL
MODEL       26
REMARK 921   NORMALIZED FREE ENERGY PREDICTED BY IDOCK:   -4.08 KCAL/MOL
REMARK 922        TOTAL FREE ENERGY PREDICTED BY IDOCK:   -4.61 KCAL/MOL
REMARK 923 INTER-LIGAND FREE ENERGY PREDICTED BY IDOCK:   -4.51 KCAL/MOL
REMARK 924 INTRA-LIGAND FREE ENERGY PREDICTED BY IDOCK:   -0.10 KCAL/MOL
REMARK 927      BINDING AFFINITY PREDICTED BY RF-SCORE:    0.00 PKD
ROOT
ATOM      1  N   GLU A   1      -8.952  14.820  66.310  1.00  0.00    -0.485 NA 
ATOM      2  CA  GLU A   1      -9.934  15.607  65.499  1.00  0.00    -0.329 C  
ATOM      3  H1  GLU A   1      -8.019  15.218  66.200  1.00  0.00     0.000 HD 
ATOM      4  H2  GLU A   1      -8.975  13.826  66.083  1.00  0.00     0.000 HD 
ATOM      5  OXT GLU A   1     -10.552  17.992  65.539  1.00  0.00    -0.639 OA 
ATOM      6  C   GLU A   1      -9.852  17.082  65.955  1.00  0.00    -0.241 C  
ATOM      7  O   GLU A   1      -8.875  17.261  66.879  1.00  0.00    -0.224 OA 
ENDROOT
BRANCH   2   8
ATOM      8  CB  GLU A   1     -11.335  15.009  65.664  1.00  0.00    -0.297 C  
BRANCH   8   9
ATOM      9  CG  GLU A   1     -11.745  14.081  64.517  1.00  0.00    -0.428 C  
ATOM     10  CD  GLU A   1     -12.452  12.851  65.028  1.00  0.00    -0.492 C  
ATOM     11  OE1 GLU A   1     -13.326  12.334  64.135  1.00  0.00    -0.731 OA 
ATOM     12  OE2 GLU A   1     -12.248  12.340  66.118  1.00  0.00    -0.647 OA 
ENDBRANCH   8   9
ENDBRANCH   2   8
TORSDOF 2
ENDMDL
MODEL       27
REMARK 921   NORMALIZED FREE ENERGY PREDICTED BY IDOCK:   -4.06 KCAL/MOL
REMARK 922        TOTAL FREE ENERGY PREDICTED BY IDOCK:   -4.59 KCAL/MOL
REMARK 923 INTER-LIGAND FREE ENERGY PREDICTED BY IDOCK:   -4.43 KCAL/MOL
REMARK 924 INTRA-LIGAND FREE ENERGY PREDICTED BY IDOCK:   -0.16 KCAL/MOL
REMARK 927      BINDING AFFINITY PREDICTED BY RF-SCORE:    0.00 PKD
ROOT
ATOM      1  N   GLU A   1     -12.474  14.208  67.032  1.00  0.00    -0.548 NA 
ATOM      2  CA  GLU A   1     -12.660  14.061  65.553  1.00  0.00    -0.516 C  
ATOM      3  H1  GLU A   1     -13.060  13.530  67.520  1.00  0.00     0.000 HD 
ATOM      4  H2  GLU A   1     -12.645  15.162  67.349  1.00  0.00     0.000 HD 
ATOM      5  OXT GLU A   1     -12.326  12.142  64.044  1.00  0.00    -0.442 OA 
ATOM      6  C   GLU A   1     -12.328  12.599  65.177  1.00  0.00    -0.484 C  
ATOM      7  O   GLU A   1     -12.054  11.854  66.277  1.00  0.00    -0.535 OA 
ENDROOT
BRANCH   2   8
ATOM      8  CB  GLU A   1     -11.779  15.079  64.821  1.00  0.00    -0.370 C  
BRANCH   8   9
ATOM      9  CG  GLU A   1     -10.287  14.938  65.136  1.00  0.00    -0.431 C  
ATOM     10  CD  GLU A   1      -9.745  16.175  65.807  1.00  0.00    -0.290 C  
ATOM     11  OE1 GLU A   1      -8.690  15.919  66.615  1.00  0.00    -0.232 OA 
ATOM     12  OE2 GLU A   1     -10.177  17.303  65.628  1.00  0.00    -0.579 OA 
ENDBRANCH   8   9
ENDBRANCH   2   8
TORSDOF 2
ENDMDL
MODEL       28
REMARK 921   NORMALIZED FREE ENERGY PREDICTED BY IDOCK:   -4.05 KCAL/MOL
REMARK 922        TOTAL FREE ENERGY PREDICTED BY IDOCK:   -4.58 KCAL/MOL
REMARK 923 INTER-LIGAND FREE ENERGY PREDICTED BY IDOCK:   -4.49 KCAL/MOL
REMARK 924 INTRA-LIGAND FREE ENERGY PREDICTED BY IDOCK:   -0.09 KCAL/MOL
REMARK 927      BINDING AFFINITY PREDICTED BY RF-SCORE:    0.00 PKD
ROOT
ATOM      1  N   GLU A   1     -10.980  15.405  65.277  1.00  0.00    -0.374 NA 
ATOM      2  CA  GLU A   1     -11.459  14.083  65.793  1.00  0.00    -0.318 C  
ATOM      3  H1  GLU A   1     -10.581  15.285  64.346  1.00  0.00     0.000 HD 
ATOM      4  H2  GLU A   1     -10.329  15.856  65.919  1.00  0.00     0.000 HD 
ATOM      5  OXT GLU A   1     -13.097  12.474  64.901  1.00  0.00    -0.833 OA 
ATOM      6  C   GLU A   1     -12.471  13.515  64.773  1.00  0.00    -0.355 C  
ATOM      7  O   GLU A   1     -12.574  14.312  63.680  1.00  0.00    -0.831 OA 
ENDROOT
BRANCH   2   8
ATOM      8  CB  GLU A   1     -12.059  14.264  67.191  1.00  0.00    -0.412 C  
BRANCH   8   9
ATOM      9  CG  GLU A   1     -11.550  13.243  68.214  1.00  0.00    -0.369 C  
ATOM     10  CD  GLU A   1     -11.937  13.630  69.619  1.00  0.00    -0.343 C  
ATOM     11  OE1 GLU A   1     -12.067  12.565  70.443  1.00  0.00    -0.362 OA 
ATOM     12  OE2 GLU A   1     -12.091  14.779  70.002  1.00  0.00    -0.293 OA 
ENDBRANCH   8   9
ENDBRANCH   2   8
TORSDOF 2
ENDMDL
MODEL       29
REMARK 921   NORMALIZED FREE ENERGY PREDICTED BY IDOCK:   -4.04 KCAL/MOL
REMARK 922        TOTAL FREE ENERGY PREDICTED BY IDOCK:   -4.57 KCAL/MOL
REMARK 923 INTER-LIGAND FREE ENERGY PREDICTED BY IDOCK:   -4.40 KCAL/MOL
REMARK 924 INTRA-LIGAND FREE ENERGY PREDICTED BY IDOCK:   -0.16 KCAL/MOL
REMARK 927      BINDING AFFINITY PREDICTED BY RF-SCORE:    0.00 PKD
ROOT
ATOM      1  N   GLU A   1     -14.158   8.956  73.185  1.00  0.00    -1.225 NA 
ATOM      2  CA  GLU A   1     -12.875   8.630  72.484  1.00  0.00    -0.292 C  
ATOM      3  H1  GLU A   1     -14.026   9.777  73.775  1.00  0.00     0.000 HD 
ATOM      4  H2  GLU A   1     -14.522   8.161  73.710  1.00  0.00     0.000 HD 
ATOM      5  OXT GLU A   1     -11.464   9.950  70.955  1.00  0.00    -0.334 OA 
ATOM      6  C   GLU A   1     -12.441   9.880  71.685  1.00  0.00    -0.415 C  
ATOM      7  O   GLU A   1     -13.276  10.925  71.908  1.00  0.00    -0.467 OA 
ENDROOT
BRANCH   2   8
ATOM      8  CB  GLU A   1     -13.073   7.395  71.598  1.00  0.00    -0.412 C  
BRANCH   8   9
ATOM      9  CG  GLU A   1     -11.967   6.347  71.750  1.00  0.00    -0.370 C  
ATOM     10  CD  GLU A   1     -11.166   6.201  70.480  1.00  0.00    -0.334 C  
ATOM     11  OE1 GLU A   1      -9.894   5.798  70.701  1.00  0.00    -0.175 OA 
ATOM     12  OE2 GLU A   1     -11.610   6.391  69.358  1.00  0.00    -0.382 OA 
ENDBRANCH   8   9
ENDBRANCH   2   8
TORSDOF 2
ENDMDL
MODEL       30
REMARK 921   NORMALIZED FREE ENERGY PREDICTED BY IDOCK:   -3.98 KCAL/MOL
REMARK 922        TOTAL FREE ENERGY PREDICTED BY IDOCK:   -4.50 KCAL/MOL
REMARK 923 INTER-LIGAND FREE ENERGY PREDICTED BY IDOCK:   -4.43 KCAL/MOL
REMARK 924 INTRA-LIGAND FREE ENERGY PREDICTED BY IDOCK:   -0.07 KCAL/MOL
REMARK 927      BINDING AFFINITY PREDICTED BY RF-SCORE:    0.00 PKD
ROOT
ATOM      1  N   GLU A   1     -12.126  10.883  68.502  1.00  0.00    -0.812 NA 
ATOM      2  CA  GLU A   1     -11.385  12.146  68.188  1.00  0.00    -0.293 C  
ATOM      3  H1  GLU A   1     -11.786  10.497  69.384  1.00  0.00     0.000 HD 
ATOM      4  H2  GLU A   1     -12.072  10.206  67.741  1.00  0.00     0.000 HD 
ATOM      5  OXT GLU A   1     -11.146  14.257  69.437  1.00  0.00    -0.258 OA 
ATOM      6  C   GLU A   1     -11.573  13.114  69.379  1.00  0.00    -0.300 C  
ATOM      7  O   GLU A   1     -12.265  12.529  70.388  1.00  0.00    -0.348 OA 
ENDROOT
BRANCH   2   8
ATOM      8  CB  GLU A   1     -11.895  12.725  66.864  1.00  0.00    -0.440 C  
BRANCH   8   9
ATOM      9  CG  GLU A   1     -11.268  12.073  65.628  1.00  0.00    -0.377 C  
ATOM     10  CD  GLU A   1     -12.126  12.271  64.404  1.00  0.00    -0.399 C  
ATOM     11  OE1 GLU A   1     -11.413  12.278  63.254  1.00  0.00    -0.417 OA 
ATOM     12  OE2 GLU A   1     -13.342  12.383  64.424  1.00  0.00    -0.789 OA 
ENDBRANCH   8   9
ENDBRANCH   2   8
TORSDOF 2
ENDMDL
MODEL       31
REMARK 921   NORMALIZED FREE ENERGY PREDICTED BY IDOCK:   -3.98 KCAL/MOL
REMARK 922        TOTAL FREE ENERGY PREDICTED BY IDOCK:   -4.50 KCAL/MOL
REMARK 923 INTER-LIGAND FREE ENERGY PREDICTED BY IDOCK:   -4.39 KCAL/MOL
REMARK 924 INTRA-LIGAND FREE ENERGY PREDICTED BY IDOCK:   -0.11 KCAL/MOL
REMARK 927      BINDING AFFINITY PREDICTED BY RF-SCORE:    0.00 PKD
ROOT
ATOM      1  N   GLU A   1     -10.903  14.278  67.915  1.00  0.00    -0.250 NA 
ATOM      2  CA  GLU A   1     -11.475  14.243  66.531  1.00  0.00    -0.360 C  
ATOM      3  H1  GLU A   1     -11.640  14.090  68.594  1.00  0.00     0.000 HD 
ATOM      4  H2  GLU A   1     -10.417  15.154  68.108  1.00  0.00     0.000 HD 
ATOM      5  OXT GLU A   1     -12.663  12.473  65.295  1.00  0.00    -0.654 OA 
ATOM      6  C   GLU A   1     -12.141  12.863  66.328  1.00  0.00    -0.365 C  
ATOM      7  O   GLU A   1     -12.099  12.121  67.463  1.00  0.00    -0.534 OA 
ENDROOT
BRANCH   2   8
ATOM      8  CB  GLU A   1     -10.369  14.527  65.510  1.00  0.00    -0.379 C  
BRANCH   8   9
ATOM      9  CG  GLU A   1      -9.969  16.003  65.432  1.00  0.00    -0.187 C  
ATOM     10  CD  GLU A   1     -10.984  16.811  64.664  1.00  0.00     0.109 C  
ATOM     11  OE1 GLU A   1     -11.032  18.106  65.051  1.00  0.00    -0.726 OA 
ATOM     12  OE2 GLU A   1     -11.678  16.369  63.762  1.00  0.00    -1.049 OA 
ENDBRANCH   8   9
ENDBRANCH   2   8
TORSDOF 2
ENDMDL
MODEL       32
REMARK 921   NORMALIZED FREE ENERGY PREDICTED BY IDOCK:   -3.97 KCAL/MOL
REMARK 922        TOTAL FREE ENERGY PREDICTED BY IDOCK:   -4.49 KCAL/MOL
REMARK 923 INTER-LIGAND FREE ENERGY PREDICTED BY IDOCK:   -4.28 KCAL/MOL
REMARK 924 INTRA-LIGAND FREE ENERGY PREDICTED BY IDOCK:   -0.21 KCAL/MOL
REMARK 927      BINDING AFFINITY PREDICTED BY RF-SCORE:    0.00 PKD
ROOT
ATOM      1  N   GLU A   1      -8.817  14.373  66.557  1.00  0.00    -0.458 NA 
ATOM      2  CA  GLU A   1      -9.869  15.433  66.680  1.00  0.00    -0.255 C  
ATOM      3  H1  GLU A   1      -8.298  14.303  67.432  1.00  0.00     0.000 HD 
ATOM      4  H2  GLU A   1      -8.203  14.532  65.758  1.00  0.00     0.000 HD 
ATOM      5  OXT GLU A   1     -11.757  15.692  68.241  1.00  0.00    -0.349 OA 
ATOM      6  C   GLU A   1     -10.768  15.071  67.884  1.00  0.00    -0.268 C  
ATOM      7  O   GLU A   1     -10.311  13.969  68.530  1.00  0.00    -0.237 OA 
ENDROOT
BRANCH   2   8
ATOM      8  CB  GLU A   1     -10.648  15.538  65.364  1.00  0.00    -0.428 C  
BRANCH   8   9
ATOM      9  CG  GLU A   1     -10.711  14.223  64.582  1.00  0.00    -0.384 C  
ATOM     10  CD  GLU A   1     -12.135  13.775  64.369  1.00  0.00    -0.436 C  
ATOM     11  OE1 GLU A   1     -12.294  13.031  63.251  1.00  0.00    -0.682 OA 
ATOM     12  OE2 GLU A   1     -13.057  14.020  65.132  1.00  0.00    -0.776 OA 
ENDBRANCH   8   9
ENDBRANCH   2   8
TORSDOF 2
ENDMDL
MODEL       33
REMARK 921   NORMALIZED FREE ENERGY PREDICTED BY IDOCK:   -3.96 KCAL/MOL
REMARK 922        TOTAL FREE ENERGY PREDICTED BY IDOCK:   -4.48 KCAL/MOL
REMARK 923 INTER-LIGAND FREE ENERGY PREDICTED BY IDOCK:   -4.28 KCAL/MOL
REMARK 924 INTRA-LIGAND FREE ENERGY PREDICTED BY IDOCK:   -0.20 KCAL/MOL
REMARK 927      BINDING AFFINITY PREDICTED BY RF-SCORE:    0.00 PKD
ROOT
ATOM      1  N   GLU A   1     -12.341  11.730  63.278  1.00  0.00    -0.916 NA 
ATOM      2  CA  GLU A   1     -12.026  12.344  64.607  1.00  0.00    -0.394 C  
ATOM      3  H1  GLU A   1     -13.299  11.959  63.013  1.00  0.00     0.000 HD 
ATOM      4  H2  GLU A   1     -12.169  10.725  63.268  1.00  0.00     0.000 HD 
ATOM      5  OXT GLU A   1     -12.065  14.683  65.381  1.00  0.00    -0.333 OA 
ATOM      6  C   GLU A   1     -12.271  13.866  64.497  1.00  0.00    -0.417 C  
ATOM      7  O   GLU A   1     -12.775  14.199  63.282  1.00  0.00    -0.714 OA 
ENDROOT
BRANCH   2   8
ATOM      8  CB  GLU A   1     -10.586  11.999  65.004  1.00  0.00    -0.332 C  
BRANCH   8   9
ATOM      9  CG  GLU A   1     -10.203  10.544  64.720  1.00  0.00    -0.373 C  
ATOM     10  CD  GLU A   1      -9.244  10.442  63.561  1.00  0.00    -0.282 C  
ATOM     11  OE1 GLU A   1      -8.436   9.359  63.637  1.00  0.00    -0.176 OA 
ATOM     12  OE2 GLU A   1      -9.205  11.226  62.625  1.00  0.00    -0.346 OA 
ENDBRANCH   8   9
ENDBRANCH   2   8
TORSDOF 2
ENDMDL
MODEL       34
REMARK 921   NORMALIZED FREE ENERGY PREDICTED BY IDOCK:   -3.96 KCAL/MOL
REMARK 922        TOTAL FREE ENERGY PREDICTED BY IDOCK:   -4.48 KCAL/MOL
REMARK 923 INTER-LIGAND FREE ENERGY PREDICTED BY IDOCK:   -4.34 KCAL/MOL
REMARK 924 INTRA-LIGAND FREE ENERGY PREDICTED BY IDOCK:   -0.14 KCAL/MOL
REMARK 927      BINDING AFFINITY PREDICTED BY RF-SCORE:    0.00 PKD
ROOT
ATOM      1  N   GLU A   1      -9.411  16.182  65.836  1.00  0.00    -0.396 NA 
ATOM      2  CA  GLU A   1     -10.249  15.007  65.433  1.00  0.00    -0.381 C  
ATOM      3  H1  GLU A   1      -9.069  16.660  65.002  1.00  0.00     0.000 HD 
ATOM      4  H2  GLU A   1      -8.653  15.917  66.464  1.00  0.00     0.000 HD 
ATOM      5  OXT GLU A   1     -12.288  14.844  64.061  1.00  0.00    -0.713 OA 
ATOM      6  C   GLU A   1     -11.389  15.526  64.527  1.00  0.00    -0.314 C  
ATOM      7  O   GLU A   1     -11.264  16.854  64.285  1.00  0.00    -1.204 OA 
ENDROOT
BRANCH   2   8
ATOM      8  CB  GLU A   1     -10.762  14.289  66.686  1.00  0.00    -0.290 C  
BRANCH   8   9
ATOM      9  CG  GLU A   1     -10.079  14.746  67.978  1.00  0.00    -0.218 C  
ATOM     10  CD  GLU A   1     -11.047  15.448  68.896  1.00  0.00    -0.275 C  
ATOM     11  OE1 GLU A   1     -10.714  15.335  70.202  1.00  0.00    -0.277 OA 
ATOM     12  OE2 GLU A   1     -12.017  16.086  68.518  1.00  0.00    -0.273 OA 
ENDBRANCH   8   9
ENDBRANCH   2   8
TORSDOF 2
ENDMDL
MODEL       35
REMARK 921   NORMALIZED FREE ENERGY PREDICTED BY IDOCK:   -3.96 KCAL/MOL
REMARK 922        TOTAL FREE ENERGY PREDICTED BY IDOCK:   -4.48 KCAL/MOL
REMARK 923 INTER-LIGAND FREE ENERGY PREDICTED BY IDOCK:   -4.41 KCAL/MOL
REMARK 924 INTRA-LIGAND FREE ENERGY PREDICTED BY IDOCK:   -0.07 KCAL/MOL
REMARK 927      BINDING AFFINITY PREDICTED BY RF-SCORE:    0.00 PKD
ROOT
ATOM      1  N   GLU A   1     -11.499  14.716  67.249  1.00  0.00    -0.360 NA 
ATOM      2  CA  GLU A   1     -11.351  13.598  68.234  1.00  0.00    -0.289 C  
ATOM      3  H1  GLU A   1     -10.990  14.489  66.395  1.00  0.00     0.000 HD 
ATOM      4  H2  GLU A   1     -11.214  15.614  67.639  1.00  0.00     0.000 HD 
ATOM      5  OXT GLU A   1     -11.925  11.206  68.096  1.00  0.00    -0.615 OA 
ATOM      6  C   GLU A   1     -11.855  12.302  67.560  1.00  0.00    -0.261 C  
ATOM      7  O   GLU A   1     -12.200  12.518  66.266  1.00  0.00    -0.600 OA 
ENDROOT
BRANCH   2   8
ATOM      8  CB  GLU A   1     -12.117  13.939  69.517  1.00  0.00    -0.393 C  
BRANCH   8   9
ATOM      9  CG  GLU A   1     -11.558  15.158  70.259  1.00  0.00    -0.325 C  
ATOM     10  CD  GLU A   1     -12.550  15.698  71.258  1.00  0.00    -0.463 C  
ATOM     11  OE1 GLU A   1     -11.961  16.321  72.304  1.00  0.00    -0.511 OA 
ATOM     12  OE2 GLU A   1     -13.763  15.621  71.138  1.00  0.00    -0.591 OA 
ENDBRANCH   8   9
ENDBRANCH   2   8
TORSDOF 2
ENDMDL
MODEL       36
REMARK 921   NORMALIZED FREE ENERGY PREDICTED BY IDOCK:   -3.96 KCAL/MOL
REMARK 922        TOTAL FREE ENERGY PREDICTED BY IDOCK:   -4.48 KCAL/MOL
REMARK 923 INTER-LIGAND FREE ENERGY PREDICTED BY IDOCK:   -4.40 KCAL/MOL
REMARK 924 INTRA-LIGAND FREE ENERGY PREDICTED BY IDOCK:   -0.07 KCAL/MOL
REMARK 927      BINDING AFFINITY PREDICTED BY RF-SCORE:    0.00 PKD
ROOT
ATOM      1  N   GLU A   1     -13.071  15.865  71.139  1.00  0.00    -0.581 NA 
ATOM      2  CA  GLU A   1     -13.280  14.404  70.886  1.00  0.00    -0.288 C  
ATOM      3  H1  GLU A   1     -13.861  16.238  71.666  1.00  0.00     0.000 HD 
ATOM      4  H2  GLU A   1     -12.905  16.385  70.277  1.00  0.00     0.000 HD 
ATOM      5  OXT GLU A   1     -13.614  12.508  72.424  1.00  0.00    -0.521 OA 
ATOM      6  C   GLU A   1     -13.471  13.709  72.254  1.00  0.00    -0.555 C  
ATOM      7  O   GLU A   1     -13.483  14.608  73.269  1.00  0.00    -0.570 OA 
ENDROOT
BRANCH   2   8
ATOM      8  CB  GLU A   1     -12.093  13.845  70.094  1.00  0.00    -0.418 C  
BRANCH   8   9
ATOM      9  CG  GLU A   1     -11.814  14.602  68.792  1.00  0.00    -0.348 C  
ATOM     10  CD  GLU A   1     -11.907  13.692  67.593  1.00  0.00    -0.369 C  
ATOM     11  OE1 GLU A   1     -12.266  14.342  66.462  1.00  0.00    -0.441 OA 
ATOM     12  OE2 GLU A   1     -11.657  12.496  67.613  1.00  0.00    -0.314 OA 
ENDBRANCH   8   9
ENDBRANCH   2   8
TORSDOF 2
ENDMDL
MODEL       37
REMARK 921   NORMALIZED FREE ENERGY PREDICTED BY IDOCK:   -3.95 KCAL/MOL
REMARK 922        TOTAL FREE ENERGY PREDICTED BY IDOCK:   -4.47 KCAL/MOL
REMARK 923 INTER-LIGAND FREE ENERGY PREDICTED BY IDOCK:   -4.40 KCAL/MOL
REMARK 924 INTRA-LIGAND FREE ENERGY PREDICTED BY IDOCK:   -0.06 KCAL/MOL
REMARK 927      BINDING AFFINITY PREDICTED BY RF-SCORE:    0.00 PKD
ROOT
ATOM      1  N   GLU A   1      -9.716  11.660  65.593  1.00  0.00    -0.233 NA 
ATOM      2  CA  GLU A   1     -10.585  12.372  66.583  1.00  0.00    -0.231 C  
ATOM      3  H1  GLU A   1      -9.064  11.049  66.087  1.00  0.00     0.000 HD 
ATOM      4  H2  GLU A   1      -9.237  12.306  64.967  1.00  0.00     0.000 HD 
ATOM      5  OXT GLU A   1     -12.120  11.531  68.318  1.00  0.00    -0.580 OA 
ATOM      6  C   GLU A   1     -11.297  11.304  67.445  1.00  0.00    -0.276 C  
ATOM      7  O   GLU A   1     -10.878  10.053  67.128  1.00  0.00    -0.243 OA 
ENDROOT
BRANCH   2   8
ATOM      8  CB  GLU A   1     -11.563  13.289  65.842  1.00  0.00    -0.380 C  
BRANCH   8   9
ATOM      9  CG  GLU A   1     -10.889  14.488  65.167  1.00  0.00    -0.407 C  
ATOM     10  CD  GLU A   1     -11.881  15.310  64.384  1.00  0.00    -0.281 C  
ATOM     11  OE1 GLU A   1     -11.529  16.613  64.288  1.00  0.00    -1.075 OA 
ATOM     12  OE2 GLU A   1     -12.887  14.861  63.856  1.00  0.00    -0.697 OA 
ENDBRANCH   8   9
ENDBRANCH   2   8
TORSDOF 2
ENDMDL
MODEL       38
REMARK 921   NORMALIZED FREE ENERGY PREDICTED BY IDOCK:   -3.94 KCAL/MOL
REMARK 922        TOTAL FREE ENERGY PREDICTED BY IDOCK:   -4.46 KCAL/MOL
REMARK 923 INTER-LIGAND FREE ENERGY PREDICTED BY IDOCK:   -4.23 KCAL/MOL
REMARK 924 INTRA-LIGAND FREE ENERGY PREDICTED BY IDOCK:   -0.23 KCAL/MOL
REMARK 927      BINDING AFFINITY PREDICTED BY RF-SCORE:    0.00 PKD
ROOT
ATOM      1  N   GLU A   1     -11.973  10.981  67.863  1.00  0.00    -0.727 NA 
ATOM      2  CA  GLU A   1     -10.802  11.776  67.372  1.00  0.00    -0.251 C  
ATOM      3  H1  GLU A   1     -11.891  10.836  68.869  1.00  0.00     0.000 HD 
ATOM      4  H2  GLU A   1     -12.082  10.103  67.356  1.00  0.00     0.000 HD 
ATOM      5  OXT GLU A   1      -9.963  14.008  67.992  1.00  0.00    -0.223 OA 
ATOM      6  C   GLU A   1     -10.760  13.100  68.169  1.00  0.00    -0.242 C  
ATOM      7  O   GLU A   1     -11.720  13.132  69.127  1.00  0.00    -0.287 OA 
ENDROOT
BRANCH   2   8
ATOM      8  CB  GLU A   1     -10.926  11.993  65.861  1.00  0.00    -0.342 C  
BRANCH   8   9
ATOM      9  CG  GLU A   1     -12.135  12.844  65.460  1.00  0.00    -0.507 C  
ATOM     10  CD  GLU A   1     -11.712  14.099  64.740  1.00  0.00    -0.410 C  
ATOM     11  OE1 GLU A   1     -12.648  14.553  63.875  1.00  0.00    -0.827 OA 
ATOM     12  OE2 GLU A   1     -10.654  14.680  64.928  1.00  0.00    -0.416 OA 
ENDBRANCH   8   9
ENDBRANCH   2   8
TORSDOF 2
ENDMDL
MODEL       39
REMARK 921   NORMALIZED FREE ENERGY PREDICTED BY IDOCK:   -3.90 KCAL/MOL
REMARK 922        TOTAL FREE ENERGY PREDICTED BY IDOCK:   -4.41 KCAL/MOL
REMARK 923 INTER-LIGAND FREE ENERGY PREDICTED BY IDOCK:   -4.29 KCAL/MOL
REMARK 924 INTRA-LIGAND FREE ENERGY PREDICTED BY IDOCK:   -0.12 KCAL/MOL
REMARK 927      BINDING AFFINITY PREDICTED BY RF-SCORE:    0.00 PKD
ROOT
ATOM      1  N   GLU A   1     -10.002  14.411  66.541  1.00  0.00    -0.273 NA 
ATOM      2  CA  GLU A   1     -10.353  15.836  66.243  1.00  0.00    -0.310 C  
ATOM      3  H1  GLU A   1     -10.841  13.833  66.487  1.00  0.00     0.000 HD 
ATOM      4  H2  GLU A   1      -9.525  14.311  67.437  1.00  0.00     0.000 HD 
ATOM      5  OXT GLU A   1     -11.390  16.889  64.272  1.00  0.00    -1.202 OA 
ATOM      6  C   GLU A   1     -11.023  15.878  64.851  1.00  0.00    -0.411 C  
ATOM      7  O   GLU A   1     -11.181  14.632  64.339  1.00  0.00    -0.296 OA 
ENDROOT
BRANCH   2   8
ATOM      8  CB  GLU A   1      -9.092  16.704  66.325  1.00  0.00    -0.333 C  
BRANCH   8   9
ATOM      9  CG  GLU A   1      -9.144  17.757  67.436  1.00  0.00    -0.244 C  
ATOM     10  CD  GLU A   1     -10.086  18.881  67.087  1.00  0.00    -0.358 C  
ATOM     11  OE1 GLU A   1     -10.625  19.476  68.176  1.00  0.00    -0.405 OA 
ATOM     12  OE2 GLU A   1     -10.327  19.253  65.949  1.00  0.00    -0.454 OA 
ENDBRANCH   8   9
ENDBRANCH   2   8
TORSDOF 2
ENDMDL
MODEL       40
REMARK 921   NORMALIZED FREE ENERGY PREDICTED BY IDOCK:   -3.89 KCAL/MOL
REMARK 922        TOTAL FREE ENERGY PREDICTED BY IDOCK:   -4.40 KCAL/MOL
REMARK 923 INTER-LIGAND FREE ENERGY PREDICTED BY IDOCK:   -4.34 KCAL/MOL
REMARK 924 INTRA-LIGAND FREE ENERGY PREDICTED BY IDOCK:   -0.06 KCAL/MOL
REMARK 927      BINDING AFFINITY PREDICTED BY RF-SCORE:    0.00 PKD
ROOT
ATOM      1  N   GLU A   1     -11.807  11.956  66.083  1.00  0.00    -0.508 NA 
ATOM      2  CA  GLU A   1     -12.244  13.360  65.798  1.00  0.00    -0.458 C  
ATOM      3  H1  GLU A   1     -12.436  11.301  65.619  1.00  0.00     0.000 HD 
ATOM      4  H2  GLU A   1     -11.731  11.773  67.083  1.00  0.00     0.000 HD 
ATOM      5  OXT GLU A   1     -12.543  14.584  63.680  1.00  0.00    -0.798 OA 
ATOM      6  C   GLU A   1     -12.278  13.544  64.263  1.00  0.00    -0.396 C  
ATOM      7  O   GLU A   1     -11.994  12.385  63.619  1.00  0.00    -0.450 OA 
ENDROOT
BRANCH   2   8
ATOM      8  CB  GLU A   1     -11.299  14.345  66.495  1.00  0.00    -0.353 C  
BRANCH   8   9
ATOM      9  CG  GLU A   1     -11.475  14.391  68.016  1.00  0.00    -0.336 C  
ATOM     10  CD  GLU A   1     -11.482  15.809  68.528  1.00  0.00    -0.379 C  
ATOM     11  OE1 GLU A   1     -12.198  15.956  69.667  1.00  0.00    -0.303 OA 
ATOM     12  OE2 GLU A   1     -10.885  16.736  68.004  1.00  0.00    -0.355 OA 
ENDBRANCH   8   9
ENDBRANCH   2   8
TORSDOF 2
ENDMDL
MODEL       41
REMARK 921   NORMALIZED FREE ENERGY PREDICTED BY IDOCK:   -3.87 KCAL/MOL
REMARK 922        TOTAL FREE ENERGY PREDICTED BY IDOCK:   -4.38 KCAL/MOL
REMARK 923 INTER-LIGAND FREE ENERGY PREDICTED BY IDOCK:   -4.25 KCAL/MOL
REMARK 924 INTRA-LIGAND FREE ENERGY PREDICTED BY IDOCK:   -0.12 KCAL/MOL
REMARK 927      BINDING AFFINITY PREDICTED BY RF-SCORE:    0.00 PKD
ROOT
ATOM      1  N   GLU A   1      -9.465  17.161  67.917  1.00  0.00    -0.252 NA 
ATOM      2  CA  GLU A   1     -10.607  17.608  67.057  1.00  0.00    -0.254 C  
ATOM      3  H1  GLU A   1      -9.394  16.144  67.891  1.00  0.00     0.000 HD 
ATOM      4  H2  GLU A   1      -9.539  17.516  68.871  1.00  0.00     0.000 HD 
ATOM      5  OXT GLU A   1     -11.081  17.275  64.662  1.00  0.00    -1.052 OA 
ATOM      6  C   GLU A   1     -10.370  17.059  65.632  1.00  0.00    -0.209 C  
ATOM      7  O   GLU A   1      -9.267  16.272  65.581  1.00  0.00    -0.444 OA 
ENDROOT
BRANCH   2   8
ATOM      8  CB  GLU A   1     -10.713  19.136  67.098  1.00  0.00    -0.567 C  
BRANCH   8   9
ATOM      9  CG  GLU A   1      -9.785  19.842  66.104  1.00  0.00    -0.527 C  
ATOM     10  CD  GLU A   1      -8.390  19.985  66.657  1.00  0.00    -0.317 C  
ATOM     11  OE1 GLU A   1      -7.441  20.022  65.693  1.00  0.00    -0.330 OA 
ATOM     12  OE2 GLU A   1      -8.125  20.090  67.844  1.00  0.00    -0.299 OA 
ENDBRANCH   8   9
ENDBRANCH   2   8
TORSDOF 2
ENDMDL
MODEL       42
REMARK 921   NORMALIZED FREE ENERGY PREDICTED BY IDOCK:   -3.87 KCAL/MOL
REMARK 922        TOTAL FREE ENERGY PREDICTED BY IDOCK:   -4.37 KCAL/MOL
REMARK 923 INTER-LIGAND FREE ENERGY PREDICTED BY IDOCK:   -4.24 KCAL/MOL
REMARK 924 INTRA-LIGAND FREE ENERGY PREDICTED BY IDOCK:   -0.13 KCAL/MOL
REMARK 927      BINDING AFFINITY PREDICTED BY RF-SCORE:    0.00 PKD
ROOT
ATOM      1  N   GLU A   1      -9.409  13.241  68.595  1.00  0.00    -0.391 NA 
ATOM      2  CA  GLU A   1      -9.914  14.472  67.906  1.00  0.00    -0.226 C  
ATOM      3  H1  GLU A   1      -9.120  13.475  69.545  1.00  0.00     0.000 HD 
ATOM      4  H2  GLU A   1      -8.666  12.783  68.069  1.00  0.00     0.000 HD 
ATOM      5  OXT GLU A   1     -11.738  16.030  68.467  1.00  0.00    -0.375 OA 
ATOM      6  C   GLU A   1     -11.064  15.055  68.759  1.00  0.00    -0.261 C  
ATOM      7  O   GLU A   1     -11.231  14.355  69.909  1.00  0.00    -0.244 OA 
ENDROOT
BRANCH   2   8
ATOM      8  CB  GLU A   1     -10.349  14.120  66.479  1.00  0.00    -0.284 C  
BRANCH   8   9
ATOM      9  CG  GLU A   1     -10.070  15.231  65.462  1.00  0.00    -0.408 C  
ATOM     10  CD  GLU A   1     -11.303  15.570  64.663  1.00  0.00    -0.357 C  
ATOM     11  OE1 GLU A   1     -11.314  16.849  64.225  1.00  0.00    -1.202 OA 
ATOM     12  OE2 GLU A   1     -12.195  14.778  64.400  1.00  0.00    -0.491 OA 
ENDBRANCH   8   9
ENDBRANCH   2   8
TORSDOF 2
ENDMDL
MODEL       43
REMARK 921   NORMALIZED FREE ENERGY PREDICTED BY IDOCK:   -3.86 KCAL/MOL
REMARK 922        TOTAL FREE ENERGY PREDICTED BY IDOCK:   -4.37 KCAL/MOL
REMARK 923 INTER-LIGAND FREE ENERGY PREDICTED BY IDOCK:   -4.15 KCAL/MOL
REMARK 924 INTRA-LIGAND FREE ENERGY PREDICTED BY IDOCK:   -0.22 KCAL/MOL
REMARK 927      BINDING AFFINITY PREDICTED BY RF-SCORE:    0.00 PKD
ROOT
ATOM      1  N   GLU A   1     -12.217  14.296  67.821  1.00  0.00    -0.598 NA 
ATOM      2  CA  GLU A   1     -10.956  13.606  67.401  1.00  0.00    -0.276 C  
ATOM      3  H1  GLU A   1     -12.321  14.234  68.834  1.00  0.00     0.000 HD 
ATOM      4  H2  GLU A   1     -13.035  13.937  67.329  1.00  0.00     0.000 HD 
ATOM      5  OXT GLU A   1      -8.602  13.973  68.029  1.00  0.00    -0.160 OA 
ATOM      6  C   GLU A   1      -9.782  14.257  68.167  1.00  0.00    -0.226 C  
ATOM      7  O   GLU A   1     -10.221  15.189  69.048  1.00  0.00    -0.223 OA 
ENDROOT
BRANCH   2   8
ATOM      8  CB  GLU A   1     -10.801  13.699  65.880  1.00  0.00    -0.276 C  
BRANCH   8   9
ATOM      9  CG  GLU A   1     -11.686  14.772  65.238  1.00  0.00    -0.311 C  
ATOM     10  CD  GLU A   1     -10.893  16.006  64.890  1.00  0.00    -0.372 C  
ATOM     11  OE1 GLU A   1     -11.411  16.691  63.844  1.00  0.00    -1.186 OA 
ATOM     12  OE2 GLU A   1      -9.902  16.385  65.496  1.00  0.00    -0.522 OA 
ENDBRANCH   8   9
ENDBRANCH   2   8
TORSDOF 2
ENDMDL
MODEL       44
REMARK 921   NORMALIZED FREE ENERGY PREDICTED BY IDOCK:   -3.85 KCAL/MOL
REMARK 922        TOTAL FREE ENERGY PREDICTED BY IDOCK:   -4.35 KCAL/MOL
REMARK 923 INTER-LIGAND FREE ENERGY PREDICTED BY IDOCK:   -4.26 KCAL/MOL
REMARK 924 INTRA-LIGAND FREE ENERGY PREDICTED BY IDOCK:   -0.10 KCAL/MOL
REMARK 927      BINDING AFFINITY PREDICTED BY RF-SCORE:    0.00 PKD
ROOT
ATOM      1  N   GLU A   1      -9.478  12.129  63.311  1.00  0.00    -0.655 NA 
ATOM      2  CA  GLU A   1     -10.011  11.603  64.608  1.00  0.00    -0.253 C  
ATOM      3  H1  GLU A   1      -8.473  11.963  63.261  1.00  0.00     0.000 HD 
ATOM      4  H2  GLU A   1      -9.712  13.112  63.169  1.00  0.00     0.000 HD 
ATOM      5  OXT GLU A   1      -9.969   9.348  65.600  1.00  0.00    -0.304 OA 
ATOM      6  C   GLU A   1      -9.645  10.103  64.697  1.00  0.00    -0.315 C  
ATOM      7  O   GLU A   1      -8.886   9.715  63.642  1.00  0.00    -0.217 OA 
ENDROOT
BRANCH   2   8
ATOM      8  CB  GLU A   1     -11.521  11.853  64.682  1.00  0.00    -0.345 C  
BRANCH   8   9
ATOM      9  CG  GLU A   1     -12.005  12.969  63.751  1.00  0.00    -0.585 C  
ATOM     10  CD  GLU A   1     -12.624  14.105  64.525  1.00  0.00    -0.211 C  
ATOM     11  OE1 GLU A   1     -12.514  15.296  63.894  1.00  0.00    -0.737 OA 
ATOM     12  OE2 GLU A   1     -13.198  13.979  65.596  1.00  0.00    -0.634 OA 
ENDBRANCH   8   9
ENDBRANCH   2   8
TORSDOF 2
ENDMDL
MODEL       45
REMARK 921   NORMALIZED FREE ENERGY PREDICTED BY IDOCK:   -3.81 KCAL/MOL
REMARK 922        TOTAL FREE ENERGY PREDICTED BY IDOCK:   -4.31 KCAL/MOL
REMARK 923 INTER-LIGAND FREE ENERGY PREDICTED BY IDOCK:   -4.09 KCAL/MOL
REMARK 924 INTRA-LIGAND FREE ENERGY PREDICTED BY IDOCK:   -0.22 KCAL/MOL
REMARK 927      BINDING AFFINITY PREDICTED BY RF-SCORE:    0.00 PKD
ROOT
ATOM      1  N   GLU A   1     -11.993  11.086  68.173  1.00  0.00    -0.763 NA 
ATOM      2  CA  GLU A   1     -11.356  11.711  66.970  1.00  0.00    -0.305 C  
ATOM      3  H1  GLU A   1     -11.693  10.114  68.253  1.00  0.00     0.000 HD 
ATOM      4  H2  GLU A   1     -13.009  11.174  68.160  1.00  0.00     0.000 HD 
ATOM      5  OXT GLU A   1      -8.994  12.008  66.337  1.00  0.00    -0.203 OA 
ATOM      6  C   GLU A   1      -9.824  11.564  67.115  1.00  0.00    -0.191 C  
ATOM      7  O   GLU A   1      -9.497  10.851  68.221  1.00  0.00    -0.156 OA 
ENDROOT
BRANCH   2   8
ATOM      8  CB  GLU A   1     -11.807  13.170  66.850  1.00  0.00    -0.444 C  
BRANCH   8   9
ATOM      9  CG  GLU A   1     -12.625  13.458  65.587  1.00  0.00    -0.496 C  
ATOM     10  CD  GLU A   1     -11.734  13.715  64.399  1.00  0.00    -0.411 C  
ATOM     11  OE1 GLU A   1     -12.313  13.383  63.222  1.00  0.00    -0.714 OA 
ATOM     12  OE2 GLU A   1     -10.616  14.202  64.466  1.00  0.00    -0.406 OA 
ENDBRANCH   8   9
ENDBRANCH   2   8
TORSDOF 2
ENDMDL
MODEL       46
REMARK 921   NORMALIZED FREE ENERGY PREDICTED BY IDOCK:   -3.80 KCAL/MOL
REMARK 922        TOTAL FREE ENERGY PREDICTED BY IDOCK:   -4.30 KCAL/MOL
REMARK 923 INTER-LIGAND FREE ENERGY PREDICTED BY IDOCK:   -4.15 KCAL/MOL
REMARK 924 INTRA-LIGAND FREE ENERGY PREDICTED BY IDOCK:   -0.15 KCAL/MOL
REMARK 927      BINDING AFFINITY PREDICTED BY RF-SCORE:    0.00 PKD
ROOT
ATOM      1  N   GLU A   1      -9.944  13.338  64.056  1.00  0.00    -0.750 NA 
ATOM      2  CA  GLU A   1     -10.729  12.102  63.740  1.00  0.00    -0.437 C  
ATOM      3  H1  GLU A   1     -10.025  14.001  63.286  1.00  0.00     0.000 HD 
ATOM      4  H2  GLU A   1      -8.972  13.129  64.282  1.00  0.00     0.000 HD 
ATOM      5  OXT GLU A   1     -13.114  11.765  63.223  1.00  0.00    -0.598 OA 
ATOM      6  C   GLU A   1     -12.189  12.526  63.463  1.00  0.00    -0.558 C  
ATOM      7  O   GLU A   1     -12.329  13.874  63.497  1.00  0.00    -0.739 OA 
ENDROOT
BRANCH   2   8
ATOM      8  CB  GLU A   1     -10.606  11.105  64.897  1.00  0.00    -0.356 C  
BRANCH   8   9
ATOM      9  CG  GLU A   1      -9.320  10.273  64.857  1.00  0.00    -0.306 C  
ATOM     10  CD  GLU A   1      -8.492  10.477  66.100  1.00  0.00    -0.153 C  
ATOM     11  OE1 GLU A   1      -7.726   9.405  66.407  1.00  0.00    -0.096 OA 
ATOM     12  OE2 GLU A   1      -8.474  11.507  66.757  1.00  0.00    -0.159 OA 
ENDBRANCH   8   9
ENDBRANCH   2   8
TORSDOF 2
ENDMDL
MODEL       47
REMARK 921   NORMALIZED FREE ENERGY PREDICTED BY IDOCK:   -3.79 KCAL/MOL
REMARK 922        TOTAL FREE ENERGY PREDICTED BY IDOCK:   -4.29 KCAL/MOL
REMARK 923 INTER-LIGAND FREE ENERGY PREDICTED BY IDOCK:   -4.16 KCAL/MOL
REMARK 924 INTRA-LIGAND FREE ENERGY PREDICTED BY IDOCK:   -0.13 KCAL/MOL
REMARK 927      BINDING AFFINITY PREDICTED BY RF-SCORE:    0.00 PKD
ROOT
ATOM      1  N   GLU A   1     -11.110  11.738  65.697  1.00  0.00    -0.304 NA 
ATOM      2  CA  GLU A   1     -12.224  12.634  65.251  1.00  0.00    -0.475 C  
ATOM      3  H1  GLU A   1     -11.082  10.906  65.107  1.00  0.00     0.000 HD 
ATOM      4  H2  GLU A   1     -11.176  11.505  66.688  1.00  0.00     0.000 HD 
ATOM      5  OXT GLU A   1     -12.693  13.710  63.085  1.00  0.00    -0.737 OA 
ATOM      6  C   GLU A   1     -12.000  12.962  63.757  1.00  0.00    -0.512 C  
ATOM      7  O   GLU A   1     -10.930  12.294  63.258  1.00  0.00    -0.432 OA 
ENDROOT
BRANCH   2   8
ATOM      8  CB  GLU A   1     -12.265  13.883  66.137  1.00  0.00    -0.498 C  
BRANCH   8   9
ATOM      9  CG  GLU A   1     -11.060  14.810  65.947  1.00  0.00    -0.340 C  
ATOM     10  CD  GLU A   1     -10.699  15.516  67.230  1.00  0.00    -0.308 C  
ATOM     11  OE1 GLU A   1      -9.387  15.837  67.306  1.00  0.00    -0.207 OA 
ATOM     12  OE2 GLU A   1     -11.498  15.806  68.107  1.00  0.00    -0.352 OA 
ENDBRANCH   8   9
ENDBRANCH   2   8
TORSDOF 2
ENDMDL
MODEL       48
REMARK 921   NORMALIZED FREE ENERGY PREDICTED BY IDOCK:   -3.79 KCAL/MOL
REMARK 922        TOTAL FREE ENERGY PREDICTED BY IDOCK:   -4.29 KCAL/MOL
REMARK 923 INTER-LIGAND FREE ENERGY PREDICTED BY IDOCK:   -4.22 KCAL/MOL
REMARK 924 INTRA-LIGAND FREE ENERGY PREDICTED BY IDOCK:   -0.07 KCAL/MOL
REMARK 927      BINDING AFFINITY PREDICTED BY RF-SCORE:    0.00 PKD
ROOT
ATOM      1  N   GLU A   1     -11.892  12.326  68.225  1.00  0.00    -0.346 NA 
ATOM      2  CA  GLU A   1     -11.472  13.682  67.746  1.00  0.00    -0.318 C  
ATOM      3  H1  GLU A   1     -11.503  12.155  69.152  1.00  0.00     0.000 HD 
ATOM      4  H2  GLU A   1     -11.646  11.591  67.563  1.00  0.00     0.000 HD 
ATOM      5  OXT GLU A   1     -11.803  15.930  68.698  1.00  0.00    -0.388 OA 
ATOM      6  C   GLU A   1     -11.935  14.719  68.794  1.00  0.00    -0.257 C  
ATOM      7  O   GLU A   1     -12.502  14.118  69.870  1.00  0.00    -0.341 OA 
ENDROOT
BRANCH   2   8
ATOM      8  CB  GLU A   1     -12.057  13.939  66.353  1.00  0.00    -0.489 C  
BRANCH   8   9
ATOM      9  CG  GLU A   1     -11.958  12.732  65.414  1.00  0.00    -0.482 C  
ATOM     10  CD  GLU A   1     -12.106  13.143  63.971  1.00  0.00    -0.446 C  
ATOM     11  OE1 GLU A   1     -11.461  12.315  63.117  1.00  0.00    -0.365 OA 
ATOM     12  OE2 GLU A   1     -12.761  14.100  63.588  1.00  0.00    -0.790 OA 
ENDBRANCH   8   9
ENDBRANCH   2   8
TORSDOF 2
ENDMDL
MODEL       49
REMARK 921   NORMALIZED FREE ENERGY PREDICTED BY IDOCK:   -3.77 KCAL/MOL
REMARK 922        TOTAL FREE ENERGY PREDICTED BY IDOCK:   -4.26 KCAL/MOL
REMARK 923 INTER-LIGAND FREE ENERGY PREDICTED BY IDOCK:   -4.06 KCAL/MOL
REMARK 924 INTRA-LIGAND FREE ENERGY PREDICTED BY IDOCK:   -0.20 KCAL/MOL
REMARK 927      BINDING AFFINITY PREDICTED BY RF-SCORE:    0.00 PKD
ROOT
ATOM      1  N   GLU A   1     -11.415  15.043  68.199  1.00  0.00    -0.329 NA 
ATOM      2  CA  GLU A   1     -11.734  13.888  67.299  1.00  0.00    -0.386 C  
ATOM      3  H1  GLU A   1     -12.175  15.178  68.865  1.00  0.00     0.000 HD 
ATOM      4  H2  GLU A   1     -11.208  15.893  67.675  1.00  0.00     0.000 HD 
ATOM      5  OXT GLU A   1     -12.215  11.521  67.783  1.00  0.00    -0.560 OA 
ATOM      6  C   GLU A   1     -11.980  12.648  68.189  1.00  0.00    -0.222 C  
ATOM      7  O   GLU A   1     -11.926  12.965  69.507  1.00  0.00    -0.312 OA 
ENDROOT
BRANCH   2   8
ATOM      8  CB  GLU A   1     -10.591  13.686  66.298  1.00  0.00    -0.289 C  
BRANCH   8   9
ATOM      9  CG  GLU A   1     -10.946  14.108  64.869  1.00  0.00    -0.405 C  
ATOM     10  CD  GLU A   1     -11.844  13.097  64.202  1.00  0.00    -0.429 C  
ATOM     11  OE1 GLU A   1     -12.644  13.643  63.257  1.00  0.00    -0.816 OA 
ATOM     12  OE2 GLU A   1     -11.842  11.902  64.450  1.00  0.00    -0.317 OA 
ENDBRANCH   8   9
ENDBRANCH   2   8
TORSDOF 2
ENDMDL
MODEL       50
REMARK 921   NORMALIZED FREE ENERGY PREDICTED BY IDOCK:   -3.75 KCAL/MOL
REMARK 922        TOTAL FREE ENERGY PREDICTED BY IDOCK:   -4.25 KCAL/MOL
REMARK 923 INTER-LIGAND FREE ENERGY PREDICTED BY IDOCK:   -4.15 KCAL/MOL
REMARK 924 INTRA-LIGAND FREE ENERGY PREDICTED BY IDOCK:   -0.09 KCAL/MOL
REMARK 927      BINDING AFFINITY PREDICTED BY RF-SCORE:    0.00 PKD
ROOT
ATOM      1  N   GLU A   1     -11.543   9.082  70.224  1.00  0.00    -0.455 NA 
ATOM      2  CA  GLU A   1     -11.743  10.546  70.466  1.00  0.00    -0.350 C  
ATOM      3  H1  GLU A   1     -11.289   8.622  71.098  1.00  0.00     0.000 HD 
ATOM      4  H2  GLU A   1     -10.864   8.903  69.484  1.00  0.00     0.000 HD 
ATOM      5  OXT GLU A   1     -13.267  11.764  71.971  1.00  0.00    -0.506 OA 
ATOM      6  C   GLU A   1     -12.821  10.703  71.563  1.00  0.00    -0.462 C  
ATOM      7  O   GLU A   1     -13.211   9.499  72.049  1.00  0.00    -0.392 OA 
ENDROOT
BRANCH   2   8
ATOM      8  CB  GLU A   1     -12.124  11.237  69.152  1.00  0.00    -0.348 C  
BRANCH   8   9
ATOM      9  CG  GLU A   1     -11.456  12.602  68.960  1.00  0.00    -0.354 C  
ATOM     10  CD  GLU A   1     -11.839  13.224  67.641  1.00  0.00    -0.357 C  
ATOM     11  OE1 GLU A   1     -11.805  14.576  67.664  1.00  0.00    -0.371 OA 
ATOM     12  OE2 GLU A   1     -12.122  12.591  66.636  1.00  0.00    -0.562 OA 
ENDBRANCH   8   9
ENDBRANCH   2   8
TORSDOF 2
ENDMDL
MODEL       51
REMARK 921   NORMALIZED FREE ENERGY PREDICTED BY IDOCK:   -3.73 KCAL/MOL
REMARK 922        TOTAL FREE ENERGY PREDICTED BY IDOCK:   -4.22 KCAL/MOL
REMARK 923 INTER-LIGAND FREE ENERGY PREDICTED BY IDOCK:   -4.16 KCAL/MOL
REMARK 924 INTRA-LIGAND FREE ENERGY PREDICTED BY IDOCK:   -0.06 KCAL/MOL
REMARK 927      BINDING AFFINITY PREDICTED BY RF-SCORE:    0.00 PKD
ROOT
ATOM      1  N   GLU A   1     -11.528  13.635  70.116  1.00  0.00    -0.505 NA 
ATOM      2  CA  GLU A   1     -11.054  14.539  69.019  1.00  0.00    -0.262 C  
ATOM      3  H1  GLU A   1     -10.925  13.742  70.932  1.00  0.00     0.000 HD 
ATOM      4  H2  GLU A   1     -11.594  12.664  69.813  1.00  0.00     0.000 HD 
ATOM      5  OXT GLU A   1     -10.752  16.982  68.927  1.00  0.00    -0.335 OA 
ATOM      6  C   GLU A   1     -11.038  15.983  69.569  1.00  0.00    -0.333 C  
ATOM      7  O   GLU A   1     -11.365  16.016  70.885  1.00  0.00    -0.370 OA 
ENDROOT
BRANCH   2   8
ATOM      8  CB  GLU A   1     -11.960  14.377  67.794  1.00  0.00    -0.368 C  
BRANCH   8   9
ATOM      9  CG  GLU A   1     -11.803  13.027  67.088  1.00  0.00    -0.431 C  
ATOM     10  CD  GLU A   1     -12.273  13.093  65.658  1.00  0.00    -0.466 C  
ATOM     11  OE1 GLU A   1     -11.644  12.207  64.852  1.00  0.00    -0.332 OA 
ATOM     12  OE2 GLU A   1     -13.152  13.839  65.254  1.00  0.00    -0.756 OA 
ENDBRANCH   8   9
ENDBRANCH   2   8
TORSDOF 2
ENDMDL
MODEL       52
REMARK 921   NORMALIZED FREE ENERGY PREDICTED BY IDOCK:   -3.71 KCAL/MOL
REMARK 922        TOTAL FREE ENERGY PREDICTED BY IDOCK:   -4.20 KCAL/MOL
REMARK 923 INTER-LIGAND FREE ENERGY PREDICTED BY IDOCK:   -3.95 KCAL/MOL
REMARK 924 INTRA-LIGAND FREE ENERGY PREDICTED BY IDOCK:   -0.24 KCAL/MOL
REMARK 927      BINDING AFFINITY PREDICTED BY RF-SCORE:    0.00 PKD
ROOT
ATOM      1  N   GLU A   1      -9.945  13.651  64.779  1.00  0.00    -0.632 NA 
ATOM      2  CA  GLU A   1     -10.988  14.562  65.349  1.00  0.00    -0.342 C  
ATOM      3  H1  GLU A   1      -9.185  14.205  64.384  1.00  0.00     0.000 HD 
ATOM      4  H2  GLU A   1     -10.335  12.996  64.102  1.00  0.00     0.000 HD 
ATOM      5  OXT GLU A   1     -10.868  16.302  67.089  1.00  0.00    -0.290 OA 
ATOM      6  C   GLU A   1     -10.303  15.473  66.393  1.00  0.00    -0.296 C  
ATOM      7  O   GLU A   1      -8.964  15.257  66.436  1.00  0.00    -0.286 OA 
ENDROOT
BRANCH   2   8
ATOM      8  CB  GLU A   1     -12.129  13.729  65.943  1.00  0.00    -0.464 C  
BRANCH   8   9
ATOM      9  CG  GLU A   1     -11.656  12.450  66.642  1.00  0.00    -0.447 C  
ATOM     10  CD  GLU A   1     -11.904  12.510  68.128  1.00  0.00    -0.317 C  
ATOM     11  OE1 GLU A   1     -12.082  11.289  68.683  1.00  0.00    -0.543 OA 
ATOM     12  OE2 GLU A   1     -11.913  13.538  68.786  1.00  0.00    -0.338 OA 
ENDBRANCH   8   9
ENDBRANCH   2   8
TORSDOF 2
ENDMDL
MODEL       53
REMARK 921   NORMALIZED FREE ENERGY PREDICTED BY IDOCK:   -3.70 KCAL/MOL
REMARK 922        TOTAL FREE ENERGY PREDICTED BY IDOCK:   -4.18 KCAL/MOL
REMARK 923 INTER-LIGAND FREE ENERGY PREDICTED BY IDOCK:   -4.04 KCAL/MOL
REMARK 924 INTRA-LIGAND FREE ENERGY PREDICTED BY IDOCK:   -0.15 KCAL/MOL
REMARK 927      BINDING AFFINITY PREDICTED BY RF-SCORE:    0.00 PKD
ROOT
ATOM      1  N   GLU A   1     -12.398  15.302  68.746  1.00  0.00    -0.585 NA 
ATOM      2  CA  GLU A   1     -11.325  15.918  69.589  1.00  0.00    -0.342 C  
ATOM      3  H1  GLU A   1     -12.233  15.525  67.765  1.00  0.00     0.000 HD 
ATOM      4  H2  GLU A   1     -13.332  15.577  69.051  1.00  0.00     0.000 HD 
ATOM      5  OXT GLU A   1      -8.874  15.660  69.567  1.00  0.00    -0.264 OA 
ATOM      6  C   GLU A   1      -9.962  15.400  69.075  1.00  0.00    -0.229 C  
ATOM      7  O   GLU A   1     -10.111  14.619  67.976  1.00  0.00    -0.222 OA 
ENDROOT
BRANCH   2   8
ATOM      8  CB  GLU A   1     -11.573  15.583  71.064  1.00  0.00    -0.424 C  
BRANCH   8   9
ATOM      9  CG  GLU A   1     -13.045  15.313  71.392  1.00  0.00    -0.529 C  
ATOM     10  CD  GLU A   1     -13.294  13.849  71.649  1.00  0.00    -0.362 C  
ATOM     11  OE1 GLU A   1     -14.333  13.628  72.486  1.00  0.00    -0.707 OA 
ATOM     12  OE2 GLU A   1     -12.657  12.940  71.139  1.00  0.00    -0.370 OA 
ENDBRANCH   8   9
ENDBRANCH   2   8
TORSDOF 2
ENDMDL
MODEL       54
REMARK 921   NORMALIZED FREE ENERGY PREDICTED BY IDOCK:   -3.69 KCAL/MOL
REMARK 922        TOTAL FREE ENERGY PREDICTED BY IDOCK:   -4.18 KCAL/MOL
REMARK 923 INTER-LIGAND FREE ENERGY PREDICTED BY IDOCK:   -4.09 KCAL/MOL
REMARK 924 INTRA-LIGAND FREE ENERGY PREDICTED BY IDOCK:   -0.09 KCAL/MOL
REMARK 927      BINDING AFFINITY PREDICTED BY RF-SCORE:    0.00 PKD
ROOT
ATOM      1  N   GLU A   1     -10.755  13.429  69.433  1.00  0.00    -0.446 NA 
ATOM      2  CA  GLU A   1     -11.115  12.350  68.458  1.00  0.00    -0.258 C  
ATOM      3  H1  GLU A   1     -10.157  14.118  68.976  1.00  0.00     0.000 HD 
ATOM      4  H2  GLU A   1     -10.332  13.055  70.282  1.00  0.00     0.000 HD 
ATOM      5  OXT GLU A   1     -12.256  12.430  66.275  1.00  0.00    -0.620 OA 
ATOM      6  C   GLU A   1     -11.790  13.020  67.238  1.00  0.00    -0.363 C  
ATOM      7  O   GLU A   1     -11.788  14.371  67.351  1.00  0.00    -0.382 OA 
ENDROOT
BRANCH   2   8
ATOM      8  CB  GLU A   1     -12.014  11.317  69.144  1.00  0.00    -0.405 C  
BRANCH   8   9
ATOM      9  CG  GLU A   1     -11.286  10.472  70.195  1.00  0.00    -0.400 C  
ATOM     10  CD  GLU A   1     -12.191  10.132  71.352  1.00  0.00    -0.397 C  
ATOM     11  OE1 GLU A   1     -11.856   8.971  71.962  1.00  0.00    -0.358 OA 
ATOM     12  OE2 GLU A   1     -13.116  10.832  71.736  1.00  0.00    -0.458 OA 
ENDBRANCH   8   9
ENDBRANCH   2   8
TORSDOF 2
ENDMDL
MODEL       55
REMARK 921   NORMALIZED FREE ENERGY PREDICTED BY IDOCK:   -3.68 KCAL/MOL
REMARK 922        TOTAL FREE ENERGY PREDICTED BY IDOCK:   -4.16 KCAL/MOL
REMARK 923 INTER-LIGAND FREE ENERGY PREDICTED BY IDOCK:   -4.02 KCAL/MOL
REMARK 924 INTRA-LIGAND FREE ENERGY PREDICTED BY IDOCK:   -0.14 KCAL/MOL
REMARK 927      BINDING AFFINITY PREDICTED BY RF-SCORE:    0.00 PKD
ROOT
ATOM      1  N   GLU A   1      -9.569  13.802  65.717  1.00  0.00    -0.505 NA 
ATOM      2  CA  GLU A   1     -10.706  13.914  64.749  1.00  0.00    -0.423 C  
ATOM      3  H1  GLU A   1      -9.548  14.627  66.317  1.00  0.00     0.000 HD 
ATOM      4  H2  GLU A   1      -8.678  13.645  65.248  1.00  0.00     0.000 HD 
ATOM      5  OXT GLU A   1     -13.132  14.173  65.095  1.00  0.00    -0.757 OA 
ATOM      6  C   GLU A   1     -12.007  14.099  65.564  1.00  0.00    -0.391 C  
ATOM      7  O   GLU A   1     -11.750  14.193  66.893  1.00  0.00    -0.372 OA 
ENDROOT
BRANCH   2   8
ATOM      8  CB  GLU A   1     -10.738  12.675  63.848  1.00  0.00    -0.465 C  
BRANCH   8   9
ATOM      9  CG  GLU A   1     -10.444  11.368  64.592  1.00  0.00    -0.373 C  
ATOM     10  CD  GLU A   1      -9.455  10.515  63.839  1.00  0.00    -0.292 C  
ATOM     11  OE1 GLU A   1      -8.725   9.713  64.648  1.00  0.00    -0.173 OA 
ATOM     12  OE2 GLU A   1      -9.331  10.510  62.624  1.00  0.00    -0.270 OA 
ENDBRANCH   8   9
ENDBRANCH   2   8
TORSDOF 2
ENDMDL
MODEL       56
REMARK 921   NORMALIZED FREE ENERGY PREDICTED BY IDOCK:   -3.66 KCAL/MOL
REMARK 922        TOTAL FREE ENERGY PREDICTED BY IDOCK:   -4.14 KCAL/MOL
REMARK 923 INTER-LIGAND FREE ENERGY PREDICTED BY IDOCK:   -4.05 KCAL/MOL
REMARK 924 INTRA-LIGAND FREE ENERGY PREDICTED BY IDOCK:   -0.09 KCAL/MOL
REMARK 927      BINDING AFFINITY PREDICTED BY RF-SCORE:    0.00 PKD
ROOT
ATOM      1  N   GLU A   1     -12.840  12.056  63.662  1.00  0.00    -0.746 NA 
ATOM      2  CA  GLU A   1     -12.341  12.472  65.012  1.00  0.00    -0.453 C  
ATOM      3  H1  GLU A   1     -13.688  12.575  63.435  1.00  0.00     0.000 HD 
ATOM      4  H2  GLU A   1     -12.978  11.047  63.597  1.00  0.00     0.000 HD 
ATOM      5  OXT GLU A   1     -11.669  14.669  65.902  1.00  0.00    -0.353 OA 
ATOM      6  C   GLU A   1     -12.120  14.002  64.984  1.00  0.00    -0.415 C  
ATOM      7  O   GLU A   1     -12.514  14.538  63.802  1.00  0.00    -0.809 OA 
ENDROOT
BRANCH   2   8
ATOM      8  CB  GLU A   1     -11.066  11.692  65.351  1.00  0.00    -0.299 C  
BRANCH   8   9
ATOM      9  CG  GLU A   1     -10.912  11.390  66.845  1.00  0.00    -0.355 C  
ATOM     10  CD  GLU A   1     -10.228  10.066  67.073  1.00  0.00    -0.237 C  
ATOM     11  OE1 GLU A   1      -9.547  10.016  68.240  1.00  0.00    -0.139 OA 
ATOM     12  OE2 GLU A   1     -10.297   9.113  66.312  1.00  0.00    -0.244 OA 
ENDBRANCH   8   9
ENDBRANCH   2   8
TORSDOF 2
ENDMDL
MODEL       57
REMARK 921   NORMALIZED FREE ENERGY PREDICTED BY IDOCK:   -3.66 KCAL/MOL
REMARK 922        TOTAL FREE ENERGY PREDICTED BY IDOCK:   -4.14 KCAL/MOL
REMARK 923 INTER-LIGAND FREE ENERGY PREDICTED BY IDOCK:   -4.04 KCAL/MOL
REMARK 924 INTRA-LIGAND FREE ENERGY PREDICTED BY IDOCK:   -0.09 KCAL/MOL
REMARK 927      BINDING AFFINITY PREDICTED BY RF-SCORE:    0.00 PKD
ROOT
ATOM      1  N   GLU A   1     -11.701  12.287  70.317  1.00  0.00    -0.542 NA 
ATOM      2  CA  GLU A   1     -13.024  12.168  71.008  1.00  0.00    -0.070 C  
ATOM      3  H1  GLU A   1     -11.675  13.148  69.771  1.00  0.00     0.000 HD 
ATOM      4  H2  GLU A   1     -11.488  11.466  69.750  1.00  0.00     0.000 HD 
ATOM      5  OXT GLU A   1     -14.171  13.646  72.612  1.00  0.00    -0.735 OA 
ATOM      6  C   GLU A   1     -13.222  13.435  71.873  1.00  0.00    -0.431 C  
ATOM      7  O   GLU A   1     -12.206  14.316  71.700  1.00  0.00    -0.340 OA 
ENDROOT
BRANCH   2   8
ATOM      8  CB  GLU A   1     -13.062  10.874  71.828  1.00  0.00    -0.564 C  
BRANCH   8   9
ATOM      9  CG  GLU A   1     -13.120   9.606  70.970  1.00  0.00    -0.310 C  
ATOM     10  CD  GLU A   1     -12.332   8.482  71.594  1.00  0.00    -0.326 C  
ATOM     11  OE1 GLU A   1     -12.803   7.258  71.261  1.00  0.00    -0.367 OA 
ATOM     12  OE2 GLU A   1     -11.349   8.637  72.301  1.00  0.00    -0.359 OA 
ENDBRANCH   8   9
ENDBRANCH   2   8
TORSDOF 2
ENDMDL
MODEL       58
REMARK 921   NORMALIZED FREE ENERGY PREDICTED BY IDOCK:   -3.63 KCAL/MOL
REMARK 922        TOTAL FREE ENERGY PREDICTED BY IDOCK:   -4.11 KCAL/MOL
REMARK 923 INTER-LIGAND FREE ENERGY PREDICTED BY IDOCK:   -4.23 KCAL/MOL
REMARK 924 INTRA-LIGAND FREE ENERGY PREDICTED BY IDOCK:    0.12 KCAL/MOL
REMARK 927      BINDING AFFINITY PREDICTED BY RF-SCORE:    0.00 PKD
ROOT
ATOM      1  N   GLU A   1     -12.984  15.811  70.040  1.00  0.00    -0.618 NA 
ATOM      2  CA  GLU A   1     -13.226  14.464  70.649  1.00  0.00    -0.149 C  
ATOM      3  H1  GLU A   1     -13.720  16.455  70.328  1.00  0.00     0.000 HD 
ATOM      4  H2  GLU A   1     -12.891  15.763  69.025  1.00  0.00     0.000 HD 
ATOM      5  OXT GLU A   1     -13.438  13.743  72.995  1.00  0.00    -0.613 OA 
ATOM      6  C   GLU A   1     -13.301  14.644  72.183  1.00  0.00    -0.375 C  
ATOM      7  O   GLU A   1     -13.215  15.951  72.533  1.00  0.00    -0.469 OA 
ENDROOT
BRANCH   2   8
ATOM      8  CB  GLU A   1     -12.120  13.497  70.215  1.00  0.00    -0.425 C  
BRANCH   8   9
ATOM      9  CG  GLU A   1     -12.384  12.042  70.617  1.00  0.00    -0.394 C  
ATOM     10  CD  GLU A   1     -12.001  11.087  69.515  1.00  0.00    -0.342 C  
ATOM     11  OE1 GLU A   1     -11.640   9.867  69.974  1.00  0.00    -0.238 OA 
ATOM     12  OE2 GLU A   1     -12.037  11.357  68.324  1.00  0.00    -0.606 OA 
ENDBRANCH   8   9
ENDBRANCH   2   8
TORSDOF 2
ENDMDL
MODEL       59
REMARK 921   NORMALIZED FREE ENERGY PREDICTED BY IDOCK:   -3.63 KCAL/MOL
REMARK 922        TOTAL FREE ENERGY PREDICTED BY IDOCK:   -4.10 KCAL/MOL
REMARK 923 INTER-LIGAND FREE ENERGY PREDICTED BY IDOCK:   -3.90 KCAL/MOL
REMARK 924 INTRA-LIGAND FREE ENERGY PREDICTED BY IDOCK:   -0.21 KCAL/MOL
REMARK 927      BINDING AFFINITY PREDICTED BY RF-SCORE:    0.00 PKD
ROOT
ATOM      1  N   GLU A   1     -11.435  15.490  67.727  1.00  0.00    -0.292 NA 
ATOM      2  CA  GLU A   1     -11.960  14.087  67.699  1.00  0.00    -0.368 C  
ATOM      3  H1  GLU A   1     -11.892  16.011  68.475  1.00  0.00     0.000 HD 
ATOM      4  H2  GLU A   1     -11.527  15.953  66.823  1.00  0.00     0.000 HD 
ATOM      5  OXT GLU A   1     -11.989  12.315  69.411  1.00  0.00    -0.297 OA 
ATOM      6  C   GLU A   1     -11.727  13.466  69.095  1.00  0.00    -0.326 C  
ATOM      7  O   GLU A   1     -11.205  14.371  69.959  1.00  0.00    -0.229 OA 
ENDROOT
BRANCH   2   8
ATOM      8  CB  GLU A   1     -11.273  13.304  66.575  1.00  0.00    -0.329 C  
BRANCH   8   9
ATOM      9  CG  GLU A   1     -12.229  12.855  65.466  1.00  0.00    -0.527 C  
ATOM     10  CD  GLU A   1     -12.207  13.810  64.299  1.00  0.00    -0.400 C  
ATOM     11  OE1 GLU A   1     -12.514  13.214  63.124  1.00  0.00    -0.686 OA 
ATOM     12  OE2 GLU A   1     -11.972  15.005  64.388  1.00  0.00    -0.442 OA 
ENDBRANCH   8   9
ENDBRANCH   2   8
TORSDOF 2
ENDMDL
MODEL       60
REMARK 921   NORMALIZED FREE ENERGY PREDICTED BY IDOCK:   -3.60 KCAL/MOL
REMARK 922        TOTAL FREE ENERGY PREDICTED BY IDOCK:   -4.08 KCAL/MOL
REMARK 923 INTER-LIGAND FREE ENERGY PREDICTED BY IDOCK:   -4.01 KCAL/MOL
REMARK 924 INTRA-LIGAND FREE ENERGY PREDICTED BY IDOCK:   -0.07 KCAL/MOL
REMARK 927      BINDING AFFINITY PREDICTED BY RF-SCORE:    0.00 PKD
ROOT
ATOM      1  N   GLU A   1      -8.583  11.855  65.618  1.00  0.00    -0.315 NA 
ATOM      2  CA  GLU A   1      -9.788  10.969  65.695  1.00  0.00    -0.239 C  
ATOM      3  H1  GLU A   1      -8.097  11.851  66.515  1.00  0.00     0.000 HD 
ATOM      4  H2  GLU A   1      -8.819  12.799  65.313  1.00  0.00     0.000 HD 
ATOM      5  OXT GLU A   1     -10.028   8.575  66.225  1.00  0.00    -0.262 OA 
ATOM      6  C   GLU A   1      -9.313   9.559  66.115  1.00  0.00    -0.198 C  
ATOM      7  O   GLU A   1      -7.982   9.542  66.375  1.00  0.00    -0.109 OA 
ENDROOT
BRANCH   2   8
ATOM      8  CB  GLU A   1     -10.517  10.975  64.347  1.00  0.00    -0.422 C  
BRANCH   8   9
ATOM      9  CG  GLU A   1     -10.753  12.380  63.784  1.00  0.00    -0.492 C  
ATOM     10  CD  GLU A   1     -12.216  12.629  63.516  1.00  0.00    -0.547 C  
ATOM     11  OE1 GLU A   1     -12.555  13.935  63.607  1.00  0.00    -0.790 OA 
ATOM     12  OE2 GLU A   1     -13.020  11.760  63.215  1.00  0.00    -0.633 OA 
ENDBRANCH   8   9
ENDBRANCH   2   8
TORSDOF 2
ENDMDL
MODEL       61
REMARK 921   NORMALIZED FREE ENERGY PREDICTED BY IDOCK:   -3.59 KCAL/MOL
REMARK 922        TOTAL FREE ENERGY PREDICTED BY IDOCK:   -4.06 KCAL/MOL
REMARK 923 INTER-LIGAND FREE ENERGY PREDICTED BY IDOCK:   -3.99 KCAL/MOL
REMARK 924 INTRA-LIGAND FREE ENERGY PREDICTED BY IDOCK:   -0.07 KCAL/MOL
REMARK 927      BINDING AFFINITY PREDICTED BY RF-SCORE:    0.00 PKD
ROOT
ATOM      1  N   GLU A   1     -13.257  10.724  72.197  1.00  0.00    -0.591 NA 
ATOM      2  CA  GLU A   1     -12.653  11.024  70.859  1.00  0.00    -0.391 C  
ATOM      3  H1  GLU A   1     -13.466   9.728  72.262  1.00  0.00     0.000 HD 
ATOM      4  H2  GLU A   1     -14.075  11.302  72.387  1.00  0.00     0.000 HD 
ATOM      5  OXT GLU A   1     -10.635  10.156  69.743  1.00  0.00    -0.227 OA 
ATOM      6  C   GLU A   1     -11.399  10.134  70.695  1.00  0.00    -0.352 C  
ATOM      7  O   GLU A   1     -11.251   9.289  71.745  1.00  0.00    -0.362 OA 
ENDROOT
BRANCH   2   8
ATOM      8  CB  GLU A   1     -12.339  12.521  70.761  1.00  0.00    -0.376 C  
BRANCH   8   9
ATOM      9  CG  GLU A   1     -13.213  13.392  71.668  1.00  0.00    -0.449 C  
ATOM     10  CD  GLU A   1     -13.247  14.822  71.193  1.00  0.00    -0.393 C  
ATOM     11  OE1 GLU A   1     -14.389  15.464  71.531  1.00  0.00    -0.508 OA 
ATOM     12  OE2 GLU A   1     -12.338  15.373  70.593  1.00  0.00    -0.344 OA 
ENDBRANCH   8   9
ENDBRANCH   2   8
TORSDOF 2
ENDMDL
MODEL       62
REMARK 921   NORMALIZED FREE ENERGY PREDICTED BY IDOCK:   -3.59 KCAL/MOL
REMARK 922        TOTAL FREE ENERGY PREDICTED BY IDOCK:   -4.06 KCAL/MOL
REMARK 923 INTER-LIGAND FREE ENERGY PREDICTED BY IDOCK:   -3.88 KCAL/MOL
REMARK 924 INTRA-LIGAND FREE ENERGY PREDICTED BY IDOCK:   -0.17 KCAL/MOL
REMARK 927      BINDING AFFINITY PREDICTED BY RF-SCORE:    0.00 PKD
ROOT
ATOM      1  N   GLU A   1     -11.447  11.291  70.300  1.00  0.00    -0.478 NA 
ATOM      2  CA  GLU A   1     -11.995   9.965  70.728  1.00  0.00    -0.323 C  
ATOM      3  H1  GLU A   1     -12.206  11.883  69.963  1.00  0.00     0.000 HD 
ATOM      4  H2  GLU A   1     -10.700  11.195  69.612  1.00  0.00     0.000 HD 
ATOM      5  OXT GLU A   1     -13.697   9.361  72.405  1.00  0.00    -0.454 OA 
ATOM      6  C   GLU A   1     -13.078  10.224  71.801  1.00  0.00    -0.465 C  
ATOM      7  O   GLU A   1     -13.284  11.551  71.987  1.00  0.00    -0.509 OA 
ENDROOT
BRANCH   2   8
ATOM      8  CB  GLU A   1     -10.855   9.076  71.234  1.00  0.00    -0.385 C  
BRANCH   8   9
ATOM      9  CG  GLU A   1     -10.437   7.988  70.240  1.00  0.00    -0.222 C  
ATOM     10  CD  GLU A   1     -11.308   6.763  70.365  1.00  0.00    -0.347 C  
ATOM     11  OE1 GLU A   1     -11.409   6.067  69.209  1.00  0.00    -0.384 OA 
ATOM     12  OE2 GLU A   1     -11.847   6.401  71.399  1.00  0.00    -0.317 OA 
ENDBRANCH   8   9
ENDBRANCH   2   8
TORSDOF 2
ENDMDL
MODEL       63
REMARK 921   NORMALIZED FREE ENERGY PREDICTED BY IDOCK:   -3.57 KCAL/MOL
REMARK 922        TOTAL FREE ENERGY PREDICTED BY IDOCK:   -4.04 KCAL/MOL
REMARK 923 INTER-LIGAND FREE ENERGY PREDICTED BY IDOCK:   -3.80 KCAL/MOL
REMARK 924 INTRA-LIGAND FREE ENERGY PREDICTED BY IDOCK:   -0.24 KCAL/MOL
REMARK 927      BINDING AFFINITY PREDICTED BY RF-SCORE:    0.00 PKD
ROOT
ATOM      1  N   GLU A   1     -11.035  11.681  64.604  1.00  0.00    -0.310 NA 
ATOM      2  CA  GLU A   1     -11.605  12.483  65.733  1.00  0.00    -0.392 C  
ATOM      3  H1  GLU A   1     -11.784  11.179  64.127  1.00  0.00     0.000 HD 
ATOM      4  H2  GLU A   1     -10.290  11.056  64.913  1.00  0.00     0.000 HD 
ATOM      5  OXT GLU A   1     -13.314  14.256  65.782  1.00  0.00    -0.422 OA 
ATOM      6  C   GLU A   1     -12.682  13.425  65.149  1.00  0.00    -0.399 C  
ATOM      7  O   GLU A   1     -12.867  13.205  63.823  1.00  0.00    -0.655 OA 
ENDROOT
BRANCH   2   8
ATOM      8  CB  GLU A   1     -10.478  13.236  66.448  1.00  0.00    -0.286 C  
BRANCH   8   9
ATOM      9  CG  GLU A   1      -9.808  14.305  65.581  1.00  0.00    -0.301 C  
ATOM     10  CD  GLU A   1      -9.748  15.634  66.290  1.00  0.00    -0.301 C  
ATOM     11  OE1 GLU A   1      -8.708  16.401  65.891  1.00  0.00    -0.425 OA 
ATOM     12  OE2 GLU A   1     -10.563  16.012  67.117  1.00  0.00    -0.306 OA 
ENDBRANCH   8   9
ENDBRANCH   2   8
TORSDOF 2
ENDMDL
MODEL       64
REMARK 921   NORMALIZED FREE ENERGY PREDICTED BY IDOCK:   -3.55 KCAL/MOL
REMARK 922        TOTAL FREE ENERGY PREDICTED BY IDOCK:   -4.02 KCAL/MOL
REMARK 923 INTER-LIGAND FREE ENERGY PREDICTED BY IDOCK:   -3.98 KCAL/MOL
REMARK 924 INTRA-LIGAND FREE ENERGY PREDICTED BY IDOCK:   -0.05 KCAL/MOL
REMARK 927      BINDING AFFINITY PREDICTED BY RF-SCORE:    0.00 PKD
ROOT
ATOM      1  N   GLU A   1     -11.646  16.442  68.148  1.00  0.00    -0.122 NA 
ATOM      2  CA  GLU A   1     -11.628  15.011  67.704  1.00  0.00    -0.312 C  
ATOM      3  H1  GLU A   1     -12.478  16.615  68.712  1.00  0.00     0.000 HD 
ATOM      4  H2  GLU A   1     -11.571  17.089  67.364  1.00  0.00     0.000 HD 
ATOM      5  OXT GLU A   1     -11.649  12.901  68.976  1.00  0.00    -0.282 OA 
ATOM      6  C   GLU A   1     -11.696  14.122  68.967  1.00  0.00    -0.324 C  
ATOM      7  O   GLU A   1     -11.836  14.867  70.091  1.00  0.00    -0.271 OA 
ENDROOT
BRANCH   2   8
ATOM      8  CB  GLU A   1     -10.378  14.751  66.857  1.00  0.00    -0.267 C  
BRANCH   8   9
ATOM      9  CG  GLU A   1     -10.222  15.719  65.680  1.00  0.00    -0.407 C  
ATOM     10  CD  GLU A   1     -11.330  15.545  64.672  1.00  0.00    -0.357 C  
ATOM     11  OE1 GLU A   1     -11.601  16.677  63.984  1.00  0.00    -1.197 OA 
ATOM     12  OE2 GLU A   1     -11.912  14.492  64.460  1.00  0.00    -0.440 OA 
ENDBRANCH   8   9
ENDBRANCH   2   8
TORSDOF 2
ENDMDL
MODEL       65
REMARK 921   NORMALIZED FREE ENERGY PREDICTED BY IDOCK:   -3.54 KCAL/MOL
REMARK 922        TOTAL FREE ENERGY PREDICTED BY IDOCK:   -4.00 KCAL/MOL
REMARK 923 INTER-LIGAND FREE ENERGY PREDICTED BY IDOCK:   -3.85 KCAL/MOL
REMARK 924 INTRA-LIGAND FREE ENERGY PREDICTED BY IDOCK:   -0.15 KCAL/MOL
REMARK 927      BINDING AFFINITY PREDICTED BY RF-SCORE:    0.00 PKD
ROOT
ATOM      1  N   GLU A   1     -12.532  12.243  65.549  1.00  0.00    -0.508 NA 
ATOM      2  CA  GLU A   1     -11.441  13.056  66.176  1.00  0.00    -0.340 C  
ATOM      3  H1  GLU A   1     -12.296  11.253  65.605  1.00  0.00     0.000 HD 
ATOM      4  H2  GLU A   1     -12.729  12.537  64.592  1.00  0.00     0.000 HD 
ATOM      5  OXT GLU A   1     -10.488  13.040  68.448  1.00  0.00    -0.242 OA 
ATOM      6  C   GLU A   1     -11.259  12.563  67.630  1.00  0.00    -0.282 C  
ATOM      7  O   GLU A   1     -12.058  11.500  67.896  1.00  0.00    -0.630 OA 
ENDROOT
BRANCH   2   8
ATOM      8  CB  GLU A   1     -11.796  14.544  66.091  1.00  0.00    -0.344 C  
BRANCH   8   9
ATOM      9  CG  GLU A   1     -10.734  15.388  65.378  1.00  0.00    -0.416 C  
ATOM     10  CD  GLU A   1     -10.017  16.301  66.339  1.00  0.00    -0.300 C  
ATOM     11  OE1 GLU A   1      -8.755  16.593  65.950  1.00  0.00    -0.483 OA 
ATOM     12  OE2 GLU A   1     -10.515  16.765  67.353  1.00  0.00    -0.308 OA 
ENDBRANCH   8   9
ENDBRANCH   2   8
TORSDOF 2
ENDMDL
MODEL       66
REMARK 921   NORMALIZED FREE ENERGY PREDICTED BY IDOCK:   -3.53 KCAL/MOL
REMARK 922        TOTAL FREE ENERGY PREDICTED BY IDOCK:   -4.00 KCAL/MOL
REMARK 923 INTER-LIGAND FREE ENERGY PREDICTED BY IDOCK:   -3.69 KCAL/MOL
REMARK 924 INTRA-LIGAND FREE ENERGY PREDICTED BY IDOCK:   -0.31 KCAL/MOL
REMARK 927      BINDING AFFINITY PREDICTED BY RF-SCORE:    0.00 PKD
ROOT
ATOM      1  N   GLU A   1     -11.196   8.791  69.275  1.00  0.00    -0.419 NA 
ATOM      2  CA  GLU A   1     -11.586   9.370  70.600  1.00  0.00    -0.269 C  
ATOM      3  H1  GLU A   1     -10.545   8.018  69.418  1.00  0.00     0.000 HD 
ATOM      4  H2  GLU A   1     -10.821   9.497  68.642  1.00  0.00     0.000 HD 
ATOM      5  OXT GLU A   1     -12.652   8.360  72.579  1.00  0.00    -0.345 OA 
ATOM      6  C   GLU A   1     -12.183   8.231  71.458  1.00  0.00    -0.301 C  
ATOM      7  O   GLU A   1     -12.108   7.038  70.819  1.00  0.00    -0.355 OA 
ENDROOT
BRANCH   2   8
ATOM      8  CB  GLU A   1     -12.563  10.531  70.386  1.00  0.00    -0.364 C  
BRANCH   8   9
ATOM      9  CG  GLU A   1     -11.874  11.864  70.076  1.00  0.00    -0.407 C  
ATOM     10  CD  GLU A   1     -11.953  12.197  68.608  1.00  0.00    -0.237 C  
ATOM     11  OE1 GLU A   1     -11.930  13.528  68.366  1.00  0.00    -0.354 OA 
ATOM     12  OE2 GLU A   1     -12.000  11.368  67.713  1.00  0.00    -0.637 OA 
ENDBRANCH   8   9
ENDBRANCH   2   8
TORSDOF 2
ENDMDL
MODEL       67
REMARK 921   NORMALIZED FREE ENERGY PREDICTED BY IDOCK:   -3.52 KCAL/MOL
REMARK 922        TOTAL FREE ENERGY PREDICTED BY IDOCK:   -3.99 KCAL/MOL
REMARK 923 INTER-LIGAND FREE ENERGY PREDICTED BY IDOCK:   -3.86 KCAL/MOL
REMARK 924 INTRA-LIGAND FREE ENERGY PREDICTED BY IDOCK:   -0.13 KCAL/MOL
REMARK 927      BINDING AFFINITY PREDICTED BY RF-SCORE:    0.00 PKD
ROOT
ATOM      1  N   GLU A   1     -11.735  10.336  69.452  1.00  0.00    -0.464 NA 
ATOM      2  CA  GLU A   1     -12.613  10.368  70.665  1.00  0.00    -0.348 C  
ATOM      3  H1  GLU A   1     -12.124  10.945  68.732  1.00  0.00     0.000 HD 
ATOM      4  H2  GLU A   1     -11.584   9.387  69.111  1.00  0.00     0.000 HD 
ATOM      5  OXT GLU A   1     -13.336  12.225  72.114  1.00  0.00    -0.526 OA 
ATOM      6  C   GLU A   1     -12.735  11.839  71.124  1.00  0.00    -0.305 C  
ATOM      7  O   GLU A   1     -12.100  12.679  70.268  1.00  0.00    -0.349 OA 
ENDROOT
BRANCH   2   8
ATOM      8  CB  GLU A   1     -12.028   9.453  71.747  1.00  0.00    -0.452 C  
BRANCH   8   9
ATOM      9  CG  GLU A   1     -11.225   8.276  71.185  1.00  0.00    -0.296 C  
ATOM     10  CD  GLU A   1     -12.091   7.057  70.995  1.00  0.00    -0.368 C  
ATOM     11  OE1 GLU A   1     -11.651   6.245  70.006  1.00  0.00    -0.425 OA 
ATOM     12  OE2 GLU A   1     -13.073   6.794  71.673  1.00  0.00    -0.328 OA 
ENDBRANCH   8   9
ENDBRANCH   2   8
TORSDOF 2
ENDMDL
MODEL       68
REMARK 921   NORMALIZED FREE ENERGY PREDICTED BY IDOCK:   -3.51 KCAL/MOL
REMARK 922        TOTAL FREE ENERGY PREDICTED BY IDOCK:   -3.98 KCAL/MOL
REMARK 923 INTER-LIGAND FREE ENERGY PREDICTED BY IDOCK:   -3.85 KCAL/MOL
REMARK 924 INTRA-LIGAND FREE ENERGY PREDICTED BY IDOCK:   -0.12 KCAL/MOL
REMARK 927      BINDING AFFINITY PREDICTED BY RF-SCORE:    0.00 PKD
ROOT
ATOM      1  N   GLU A   1     -13.228  10.085  70.585  1.00  0.00    -0.607 NA 
ATOM      2  CA  GLU A   1     -11.778  10.432  70.731  1.00  0.00    -0.368 C  
ATOM      3  H1  GLU A   1     -13.736  10.887  70.214  1.00  0.00     0.000 HD 
ATOM      4  H2  GLU A   1     -13.631   9.743  71.457  1.00  0.00     0.000 HD 
ATOM      5  OXT GLU A   1     -10.104  11.196  69.093  1.00  0.00    -0.195 OA 
ATOM      6  C   GLU A   1     -11.258  10.888  69.349  1.00  0.00    -0.272 C  
ATOM      7  O   GLU A   1     -12.257  10.928  68.432  1.00  0.00    -0.540 OA 
ENDROOT
BRANCH   2   8
ATOM      8  CB  GLU A   1     -11.014   9.226  71.288  1.00  0.00    -0.421 C  
BRANCH   8   9
ATOM      9  CG  GLU A   1     -11.894   8.255  72.080  1.00  0.00    -0.431 C  
ATOM     10  CD  GLU A   1     -11.931   6.892  71.436  1.00  0.00    -0.349 C  
ATOM     11  OE1 GLU A   1     -12.149   5.894  72.323  1.00  0.00    -0.275 OA 
ATOM     12  OE2 GLU A   1     -11.812   6.691  70.238  1.00  0.00    -0.395 OA 
ENDBRANCH   8   9
ENDBRANCH   2   8
TORSDOF 2
ENDMDL
MODEL       69
REMARK 921   NORMALIZED FREE ENERGY PREDICTED BY IDOCK:   -3.50 KCAL/MOL
REMARK 922        TOTAL FREE ENERGY PREDICTED BY IDOCK:   -3.97 KCAL/MOL
REMARK 923 INTER-LIGAND FREE ENERGY PREDICTED BY IDOCK:   -3.72 KCAL/MOL
REMARK 924 INTRA-LIGAND FREE ENERGY PREDICTED BY IDOCK:   -0.24 KCAL/MOL
REMARK 927      BINDING AFFINITY PREDICTED BY RF-SCORE:    0.00 PKD
ROOT
ATOM      1  N   GLU A   1     -11.552  10.570  68.297  1.00  0.00    -0.672 NA 
ATOM      2  CA  GLU A   1     -12.286  11.698  68.955  1.00  0.00    -0.099 C  
ATOM      3  H1  GLU A   1     -11.636  10.651  67.284  1.00  0.00     0.000 HD 
ATOM      4  H2  GLU A   1     -11.862   9.659  68.636  1.00  0.00     0.000 HD 
ATOM      5  OXT GLU A   1     -12.039  14.142  68.767  1.00  0.00    -0.341 OA 
ATOM      6  C   GLU A   1     -11.707  13.023  68.408  1.00  0.00    -0.351 C  
ATOM      7  O   GLU A   1     -10.780  12.798  67.444  1.00  0.00    -0.226 OA 
ENDROOT
BRANCH   2   8
ATOM      8  CB  GLU A   1     -12.158  11.575  70.477  1.00  0.00    -0.472 C  
BRANCH   8   9
ATOM      9  CG  GLU A   1     -12.686  10.248  71.032  1.00  0.00    -0.491 C  
ATOM     10  CD  GLU A   1     -11.560   9.348  71.473  1.00  0.00    -0.397 C  
ATOM     11  OE1 GLU A   1     -11.918   8.500  72.465  1.00  0.00    -0.389 OA 
ATOM     12  OE2 GLU A   1     -10.443   9.346  70.979  1.00  0.00    -0.283 OA 
ENDBRANCH   8   9
ENDBRANCH   2   8
TORSDOF 2
ENDMDL
MODEL       70
REMARK 921   NORMALIZED FREE ENERGY PREDICTED BY IDOCK:   -3.50 KCAL/MOL
REMARK 922        TOTAL FREE ENERGY PREDICTED BY IDOCK:   -3.97 KCAL/MOL
REMARK 923 INTER-LIGAND FREE ENERGY PREDICTED BY IDOCK:   -3.88 KCAL/MOL
REMARK 924 INTRA-LIGAND FREE ENERGY PREDICTED BY IDOCK:   -0.09 KCAL/MOL
REMARK 927      BINDING AFFINITY PREDICTED BY RF-SCORE:    0.00 PKD
ROOT
ATOM      1  N   GLU A   1     -10.947   8.837  70.946  1.00  0.00    -0.249 NA 
ATOM      2  CA  GLU A   1     -12.141   9.351  71.688  1.00  0.00    -0.388 C  
ATOM      3  H1  GLU A   1     -10.611   7.981  71.387  1.00  0.00     0.000 HD 
ATOM      4  H2  GLU A   1     -10.213   9.541  70.864  1.00  0.00     0.000 HD 
ATOM      5  OXT GLU A   1     -14.324   8.323  72.190  1.00  0.00    -0.417 OA 
ATOM      6  C   GLU A   1     -13.204   8.229  71.711  1.00  0.00    -0.347 C  
ATOM      7  O   GLU A   1     -12.735   7.091  71.142  1.00  0.00    -0.381 OA 
ENDROOT
BRANCH   2   8
ATOM      8  CB  GLU A   1     -12.646  10.637  71.024  1.00  0.00    -0.516 C  
BRANCH   8   9
ATOM      9  CG  GLU A   1     -13.231  11.649  72.013  1.00  0.00    -0.443 C  
ATOM     10  CD  GLU A   1     -13.076  13.063  71.513  1.00  0.00    -0.310 C  
ATOM     11  OE1 GLU A   1     -14.036  13.896  71.976  1.00  0.00    -0.468 OA 
ATOM     12  OE2 GLU A   1     -12.169  13.444  70.790  1.00  0.00    -0.358 OA 
ENDBRANCH   8   9
ENDBRANCH   2   8
TORSDOF 2
ENDMDL
MODEL       71
REMARK 921   NORMALIZED FREE ENERGY PREDICTED BY IDOCK:   -3.50 KCAL/MOL
REMARK 922        TOTAL FREE ENERGY PREDICTED BY IDOCK:   -3.96 KCAL/MOL
REMARK 923 INTER-LIGAND FREE ENERGY PREDICTED BY IDOCK:   -3.88 KCAL/MOL
REMARK 924 INTRA-LIGAND FREE ENERGY PREDICTED BY IDOCK:   -0.08 KCAL/MOL
REMARK 927      BINDING AFFINITY PREDICTED BY RF-SCORE:    0.00 PKD
ROOT
ATOM      1  N   GLU A   1      -9.838  13.090  68.956  1.00  0.00    -0.392 NA 
ATOM      2  CA  GLU A   1     -11.259  12.860  68.540  1.00  0.00    -0.274 C  
ATOM      3  H1  GLU A   1      -9.238  12.386  68.527  1.00  0.00     0.000 HD 
ATOM      4  H2  GLU A   1      -9.734  13.117  69.970  1.00  0.00     0.000 HD 
ATOM      5  OXT GLU A   1     -12.322  12.782  66.318  1.00  0.00    -0.521 OA 
ATOM      6  C   GLU A   1     -11.310  12.886  66.995  1.00  0.00    -0.309 C  
ATOM      7  O   GLU A   1     -10.071  13.019  66.460  1.00  0.00    -0.258 OA 
ENDROOT
BRANCH   2   8
ATOM      8  CB  GLU A   1     -12.161  13.917  69.184  1.00  0.00    -0.377 C  
BRANCH   8   9
ATOM      9  CG  GLU A   1     -11.396  14.954  70.013  1.00  0.00    -0.310 C  
ATOM     10  CD  GLU A   1     -12.294  15.630  71.017  1.00  0.00    -0.428 C  
ATOM     11  OE1 GLU A   1     -11.630  16.062  72.114  1.00  0.00    -0.443 OA 
ATOM     12  OE2 GLU A   1     -13.492  15.808  70.863  1.00  0.00    -0.568 OA 
ENDBRANCH   8   9
ENDBRANCH   2   8
TORSDOF 2
ENDMDL
MODEL       72
REMARK 921   NORMALIZED FREE ENERGY PREDICTED BY IDOCK:   -3.49 KCAL/MOL
REMARK 922        TOTAL FREE ENERGY PREDICTED BY IDOCK:   -3.96 KCAL/MOL
REMARK 923 INTER-LIGAND FREE ENERGY PREDICTED BY IDOCK:   -3.89 KCAL/MOL
REMARK 924 INTRA-LIGAND FREE ENERGY PREDICTED BY IDOCK:   -0.07 KCAL/MOL
REMARK 927      BINDING AFFINITY PREDICTED BY RF-SCORE:    0.00 PKD
ROOT
ATOM      1  N   GLU A   1     -11.217  13.468  68.422  1.00  0.00    -0.261 NA 
ATOM      2  CA  GLU A   1     -11.991  14.393  67.534  1.00  0.00    -0.354 C  
ATOM      3  H1  GLU A   1     -11.781  12.646  68.636  1.00  0.00     0.000 HD 
ATOM      4  H2  GLU A   1     -10.883  13.935  69.265  1.00  0.00     0.000 HD 
ATOM      5  OXT GLU A   1     -13.005  14.062  65.313  1.00  0.00    -0.743 OA 
ATOM      6  C   GLU A   1     -12.405  13.602  66.272  1.00  0.00    -0.412 C  
ATOM      7  O   GLU A   1     -12.035  12.300  66.360  1.00  0.00    -0.589 OA 
ENDROOT
BRANCH   2   8
ATOM      8  CB  GLU A   1     -11.143  15.628  67.213  1.00  0.00    -0.238 C  
BRANCH   8   9
ATOM      9  CG  GLU A   1     -10.980  16.585  68.397  1.00  0.00    -0.348 C  
ATOM     10  CD  GLU A   1      -9.928  17.630  68.122  1.00  0.00    -0.330 C  
ATOM     11  OE1 GLU A   1     -10.143  18.786  68.790  1.00  0.00    -0.386 OA 
ATOM     12  OE2 GLU A   1      -8.958  17.459  67.400  1.00  0.00    -0.227 OA 
ENDBRANCH   8   9
ENDBRANCH   2   8
TORSDOF 2
ENDMDL
MODEL       73
REMARK 921   NORMALIZED FREE ENERGY PREDICTED BY IDOCK:   -3.46 KCAL/MOL
REMARK 922        TOTAL FREE ENERGY PREDICTED BY IDOCK:   -3.92 KCAL/MOL
REMARK 923 INTER-LIGAND FREE ENERGY PREDICTED BY IDOCK:   -3.99 KCAL/MOL
REMARK 924 INTRA-LIGAND FREE ENERGY PREDICTED BY IDOCK:    0.08 KCAL/MOL
REMARK 927      BINDING AFFINITY PREDICTED BY RF-SCORE:    0.00 PKD
ROOT
ATOM      1  N   GLU A   1     -11.941  12.227  65.983  1.00  0.00    -0.609 NA 
ATOM      2  CA  GLU A   1     -12.311  13.668  65.808  1.00  0.00    -0.482 C  
ATOM      3  H1  GLU A   1     -12.607  11.639  65.482  1.00  0.00     0.000 HD 
ATOM      4  H2  GLU A   1     -11.862  11.967  66.966  1.00  0.00     0.000 HD 
ATOM      5  OXT GLU A   1     -12.573  15.057  63.789  1.00  0.00    -0.776 OA 
ATOM      6  C   GLU A   1     -12.354  13.965  64.291  1.00  0.00    -0.348 C  
ATOM      7  O   GLU A   1     -12.136  12.844  63.560  1.00  0.00    -0.508 OA 
ENDROOT
BRANCH   2   8
ATOM      8  CB  GLU A   1     -11.309  14.551  66.560  1.00  0.00    -0.354 C  
BRANCH   8   9
ATOM      9  CG  GLU A   1      -9.848  14.151  66.334  1.00  0.00    -0.308 C  
ATOM     10  CD  GLU A   1      -9.368  13.191  67.393  1.00  0.00    -0.213 C  
ATOM     11  OE1 GLU A   1      -8.384  12.371  66.957  1.00  0.00    -0.179 OA 
ATOM     12  OE2 GLU A   1      -9.787  13.163  68.540  1.00  0.00    -0.218 OA 
ENDBRANCH   8   9
ENDBRANCH   2   8
TORSDOF 2
ENDMDL
MODEL       74
REMARK 921   NORMALIZED FREE ENERGY PREDICTED BY IDOCK:   -3.43 KCAL/MOL
REMARK 922        TOTAL FREE ENERGY PREDICTED BY IDOCK:   -3.88 KCAL/MOL
REMARK 923 INTER-LIGAND FREE ENERGY PREDICTED BY IDOCK:   -3.61 KCAL/MOL
REMARK 924 INTRA-LIGAND FREE ENERGY PREDICTED BY IDOCK:   -0.27 KCAL/MOL
REMARK 927      BINDING AFFINITY PREDICTED BY RF-SCORE:    0.00 PKD
ROOT
ATOM      1  N   GLU A   1     -12.469   6.249  72.348  1.00  0.00    -0.545 NA 
ATOM      2  CA  GLU A   1     -11.509   6.972  71.454  1.00  0.00    -0.276 C  
ATOM      3  H1  GLU A   1     -12.730   5.360  71.922  1.00  0.00     0.000 HD 
ATOM      4  H2  GLU A   1     -13.283   6.818  72.578  1.00  0.00     0.000 HD 
ATOM      5  OXT GLU A   1      -9.300   6.334  70.567  1.00  0.00    -0.160 OA 
ATOM      6  C   GLU A   1     -10.297   6.043  71.211  1.00  0.00    -0.215 C  
ATOM      7  O   GLU A   1     -10.479   4.830  71.789  1.00  0.00    -0.186 OA 
ENDROOT
BRANCH   2   8
ATOM      8  CB  GLU A   1     -11.117   8.308  72.094  1.00  0.00    -0.397 C  
BRANCH   8   9
ATOM      9  CG  GLU A   1     -11.766   9.523  71.423  1.00  0.00    -0.465 C  
ATOM     10  CD  GLU A   1     -13.083   9.872  72.067  1.00  0.00    -0.448 C  
ATOM     11  OE1 GLU A   1     -13.391  11.185  71.965  1.00  0.00    -0.454 OA 
ATOM     12  OE2 GLU A   1     -13.826   9.063  72.603  1.00  0.00    -0.467 OA 
ENDBRANCH   8   9
ENDBRANCH   2   8
TORSDOF 2
ENDMDL
MODEL       75
REMARK 921   NORMALIZED FREE ENERGY PREDICTED BY IDOCK:   -3.41 KCAL/MOL
REMARK 922        TOTAL FREE ENERGY PREDICTED BY IDOCK:   -3.87 KCAL/MOL
REMARK 923 INTER-LIGAND FREE ENERGY PREDICTED BY IDOCK:   -3.71 KCAL/MOL
REMARK 924 INTRA-LIGAND FREE ENERGY PREDICTED BY IDOCK:   -0.16 KCAL/MOL
REMARK 927      BINDING AFFINITY PREDICTED BY RF-SCORE:    0.00 PKD
ROOT
ATOM      1  N   GLU A   1     -11.957  16.516  71.995  1.00  0.00    -0.639 NA 
ATOM      2  CA  GLU A   1     -12.226  15.488  70.939  1.00  0.00    -0.400 C  
ATOM      3  H1  GLU A   1     -12.804  16.678  72.539  1.00  0.00     0.000 HD 
ATOM      4  H2  GLU A   1     -11.581  17.379  71.603  1.00  0.00     0.000 HD 
ATOM      5  OXT GLU A   1     -13.012  13.157  71.087  1.00  0.00    -0.288 OA 
ATOM      6  C   GLU A   1     -12.743  14.211  71.642  1.00  0.00    -0.349 C  
ATOM      7  O   GLU A   1     -12.887  14.404  72.977  1.00  0.00    -0.464 OA 
ENDROOT
BRANCH   2   8
ATOM      8  CB  GLU A   1     -10.954  15.244  70.122  1.00  0.00    -0.312 C  
BRANCH   8   9
ATOM      9  CG  GLU A   1     -11.119  15.538  68.627  1.00  0.00    -0.297 C  
ATOM     10  CD  GLU A   1     -10.503  16.862  68.253  1.00  0.00    -0.352 C  
ATOM     11  OE1 GLU A   1     -10.083  16.905  66.968  1.00  0.00    -0.274 OA 
ATOM     12  OE2 GLU A   1     -10.412  17.819  69.006  1.00  0.00    -0.332 OA 
ENDBRANCH   8   9
ENDBRANCH   2   8
TORSDOF 2
ENDMDL
MODEL       76
REMARK 921   NORMALIZED FREE ENERGY PREDICTED BY IDOCK:   -3.41 KCAL/MOL
REMARK 922        TOTAL FREE ENERGY PREDICTED BY IDOCK:   -3.86 KCAL/MOL
REMARK 923 INTER-LIGAND FREE ENERGY PREDICTED BY IDOCK:   -3.80 KCAL/MOL
REMARK 924 INTRA-LIGAND FREE ENERGY PREDICTED BY IDOCK:   -0.06 KCAL/MOL
REMARK 927      BINDING AFFINITY PREDICTED BY RF-SCORE:    0.00 PKD
ROOT
ATOM      1  N   GLU A   1     -11.091  14.438  66.676  1.00  0.00    -0.318 NA 
ATOM      2  CA  GLU A   1     -11.447  13.061  66.205  1.00  0.00    -0.340 C  
ATOM      3  H1  GLU A   1     -10.853  15.023  65.875  1.00  0.00     0.000 HD 
ATOM      4  H2  GLU A   1     -10.349  14.424  67.376  1.00  0.00     0.000 HD 
ATOM      5  OXT GLU A   1     -13.180  12.262  64.646  1.00  0.00    -0.763 OA 
ATOM      6  C   GLU A   1     -12.607  13.193  65.191  1.00  0.00    -0.465 C  
ATOM      7  O   GLU A   1     -12.911  14.493  64.952  1.00  0.00    -0.588 OA 
ENDROOT
BRANCH   2   8
ATOM      8  CB  GLU A   1     -11.804  12.182  67.408  1.00  0.00    -0.297 C  
BRANCH   8   9
ATOM      9  CG  GLU A   1     -10.590  11.767  68.246  1.00  0.00    -0.236 C  
ATOM     10  CD  GLU A   1     -10.980  10.816  69.348  1.00  0.00    -0.254 C  
ATOM     11  OE1 GLU A   1      -9.977   9.983  69.707  1.00  0.00    -0.225 OA 
ATOM     12  OE2 GLU A   1     -12.072  10.803  69.896  1.00  0.00    -0.309 OA 
ENDBRANCH   8   9
ENDBRANCH   2   8
TORSDOF 2
ENDMDL
MODEL       77
REMARK 921   NORMALIZED FREE ENERGY PREDICTED BY IDOCK:   -3.40 KCAL/MOL
REMARK 922        TOTAL FREE ENERGY PREDICTED BY IDOCK:   -3.85 KCAL/MOL
REMARK 923 INTER-LIGAND FREE ENERGY PREDICTED BY IDOCK:   -3.75 KCAL/MOL
REMARK 924 INTRA-LIGAND FREE ENERGY PREDICTED BY IDOCK:   -0.10 KCAL/MOL
REMARK 927      BINDING AFFINITY PREDICTED BY RF-SCORE:    0.00 PKD
ROOT
ATOM      1  N   GLU A   1     -10.172  17.630  68.922  1.00  0.00    -0.371 NA 
ATOM      2  CA  GLU A   1     -10.279  16.756  67.710  1.00  0.00    -0.303 C  
ATOM      3  H1  GLU A   1      -9.372  18.255  68.824  1.00  0.00     0.000 HD 
ATOM      4  H2  GLU A   1     -10.133  17.088  69.785  1.00  0.00     0.000 HD 
ATOM      5  OXT GLU A   1     -10.532  17.295  65.319  1.00  0.00    -0.661 OA 
ATOM      6  C   GLU A   1     -10.381  17.674  66.471  1.00  0.00    -0.337 C  
ATOM      7  O   GLU A   1     -10.261  18.981  66.811  1.00  0.00    -0.343 OA 
ENDROOT
BRANCH   2   8
ATOM      8  CB  GLU A   1     -11.481  15.817  67.858  1.00  0.00    -0.221 C  
BRANCH   8   9
ATOM      9  CG  GLU A   1     -11.166  14.358  67.513  1.00  0.00    -0.329 C  
ATOM     10  CD  GLU A   1     -11.866  13.406  68.449  1.00  0.00    -0.366 C  
ATOM     11  OE1 GLU A   1     -12.128  12.205  67.884  1.00  0.00    -0.502 OA 
ATOM     12  OE2 GLU A   1     -12.147  13.660  69.610  1.00  0.00    -0.316 OA 
ENDBRANCH   8   9
ENDBRANCH   2   8
TORSDOF 2
ENDMDL
MODEL       78
REMARK 921   NORMALIZED FREE ENERGY PREDICTED BY IDOCK:   -3.40 KCAL/MOL
REMARK 922        TOTAL FREE ENERGY PREDICTED BY IDOCK:   -3.85 KCAL/MOL
REMARK 923 INTER-LIGAND FREE ENERGY PREDICTED BY IDOCK:   -3.67 KCAL/MOL
REMARK 924 INTRA-LIGAND FREE ENERGY PREDICTED BY IDOCK:   -0.18 KCAL/MOL
REMARK 927      BINDING AFFINITY PREDICTED BY RF-SCORE:    0.00 PKD
ROOT
ATOM      1  N   GLU A   1     -10.884  11.896  62.994  1.00  0.00    -0.673 NA 
ATOM      2  CA  GLU A   1     -10.718  12.244  64.442  1.00  0.00    -0.331 C  
ATOM      3  H1  GLU A   1      -9.974  11.905  62.533  1.00  0.00     0.000 HD 
ATOM      4  H2  GLU A   1     -11.556  12.504  62.527  1.00  0.00     0.000 HD 
ATOM      5  OXT GLU A   1      -9.394  11.196  66.236  1.00  0.00    -0.183 OA 
ATOM      6  C   GLU A   1      -9.721  11.237  65.060  1.00  0.00    -0.251 C  
ATOM      7  O   GLU A   1      -9.221  10.395  64.121  1.00  0.00    -0.213 OA 
ENDROOT
BRANCH   2   8
ATOM      8  CB  GLU A   1     -12.085  12.231  65.134  1.00  0.00    -0.379 C  
BRANCH   8   9
ATOM      9  CG  GLU A   1     -12.280  13.379  66.129  1.00  0.00    -0.471 C  
ATOM     10  CD  GLU A   1     -11.978  12.943  67.540  1.00  0.00    -0.296 C  
ATOM     11  OE1 GLU A   1     -11.550  13.957  68.327  1.00  0.00    -0.295 OA 
ATOM     12  OE2 GLU A   1     -12.127  11.805  67.959  1.00  0.00    -0.572 OA 
ENDBRANCH   8   9
ENDBRANCH   2   8
TORSDOF 2
ENDMDL
MODEL       79
REMARK 921   NORMALIZED FREE ENERGY PREDICTED BY IDOCK:   -3.39 KCAL/MOL
REMARK 922        TOTAL FREE ENERGY PREDICTED BY IDOCK:   -3.84 KCAL/MOL
REMARK 923 INTER-LIGAND FREE ENERGY PREDICTED BY IDOCK:   -3.74 KCAL/MOL
REMARK 924 INTRA-LIGAND FREE ENERGY PREDICTED BY IDOCK:   -0.10 KCAL/MOL
REMARK 927      BINDING AFFINITY PREDICTED BY RF-SCORE:    0.00 PKD
ROOT
ATOM      1  N   GLU A   1      -9.781  12.599  68.559  1.00  0.00    -0.368 NA 
ATOM      2  CA  GLU A   1     -11.273  12.492  68.468  1.00  0.00    -0.283 C  
ATOM      3  H1  GLU A   1      -9.502  12.666  69.537  1.00  0.00     0.000 HD 
ATOM      4  H2  GLU A   1      -9.417  13.372  68.002  1.00  0.00     0.000 HD 
ATOM      5  OXT GLU A   1     -12.856  10.855  69.409  1.00  0.00    -0.201 OA 
ATOM      6  C   GLU A   1     -11.711  11.267  69.304  1.00  0.00    -0.334 C  
ATOM      7  O   GLU A   1     -10.657  10.699  69.941  1.00  0.00    -0.238 OA 
ENDROOT
BRANCH   2   8
ATOM      8  CB  GLU A   1     -11.692  12.391  66.998  1.00  0.00    -0.423 C  
BRANCH   8   9
ATOM      9  CG  GLU A   1     -12.252  13.699  66.428  1.00  0.00    -0.472 C  
ATOM     10  CD  GLU A   1     -11.685  13.993  65.063  1.00  0.00    -0.364 C  
ATOM     11  OE1 GLU A   1     -12.520  14.726  64.291  1.00  0.00    -0.661 OA 
ATOM     12  OE2 GLU A   1     -10.577  13.645  64.685  1.00  0.00    -0.398 OA 
ENDBRANCH   8   9
ENDBRANCH   2   8
TORSDOF 2
ENDMDL
MODEL       80
REMARK 921   NORMALIZED FREE ENERGY PREDICTED BY IDOCK:   -3.37 KCAL/MOL
REMARK 922        TOTAL FREE ENERGY PREDICTED BY IDOCK:   -3.82 KCAL/MOL
REMARK 923 INTER-LIGAND FREE ENERGY PREDICTED BY IDOCK:   -3.57 KCAL/MOL
REMARK 924 INTRA-LIGAND FREE ENERGY PREDICTED BY IDOCK:   -0.25 KCAL/MOL
REMARK 927      BINDING AFFINITY PREDICTED BY RF-SCORE:    0.00 PKD
ROOT
ATOM      1  N   GLU A   1     -12.290   7.477  72.492  1.00  0.00    -0.534 NA 
ATOM      2  CA  GLU A   1     -11.923   8.849  72.014  1.00  0.00    -0.369 C  
ATOM      3  H1  GLU A   1     -12.681   7.536  73.433  1.00  0.00     0.000 HD 
ATOM      4  H2  GLU A   1     -11.504   6.830  72.443  1.00  0.00     0.000 HD 
ATOM      5  OXT GLU A   1     -13.266  10.894  71.721  1.00  0.00    -0.444 OA 
ATOM      6  C   GLU A   1     -13.192   9.730  72.085  1.00  0.00    -0.436 C  
ATOM      7  O   GLU A   1     -14.234   9.055  72.629  1.00  0.00    -0.574 OA 
ENDROOT
BRANCH   2   8
ATOM      8  CB  GLU A   1     -11.336   8.760  70.601  1.00  0.00    -0.289 C  
BRANCH   8   9
ATOM      9  CG  GLU A   1     -10.065   7.910  70.517  1.00  0.00    -0.192 C  
ATOM     10  CD  GLU A   1     -10.302   6.638  69.745  1.00  0.00    -0.193 C  
ATOM     11  OE1 GLU A   1      -9.186   6.173  69.136  1.00  0.00    -0.127 OA 
ATOM     12  OE2 GLU A   1     -11.373   6.053  69.688  1.00  0.00    -0.411 OA 
ENDBRANCH   8   9
ENDBRANCH   2   8
TORSDOF 2
ENDMDL
MODEL       81
REMARK 921   NORMALIZED FREE ENERGY PREDICTED BY IDOCK:   -3.37 KCAL/MOL
REMARK 922        TOTAL FREE ENERGY PREDICTED BY IDOCK:   -3.82 KCAL/MOL
REMARK 923 INTER-LIGAND FREE ENERGY PREDICTED BY IDOCK:   -3.67 KCAL/MOL
REMARK 924 INTRA-LIGAND FREE ENERGY PREDICTED BY IDOCK:   -0.15 KCAL/MOL
REMARK 927      BINDING AFFINITY PREDICTED BY RF-SCORE:    0.00 PKD
ROOT
ATOM      1  N   GLU A   1     -11.686  10.525  68.113  1.00  0.00    -0.760 NA 
ATOM      2  CA  GLU A   1     -11.145  10.431  66.719  1.00  0.00     0.048 C  
ATOM      3  H1  GLU A   1     -11.926   9.592  68.450  1.00  0.00     0.000 HD 
ATOM      4  H2  GLU A   1     -12.473  11.170  68.177  1.00  0.00     0.000 HD 
ATOM      5  OXT GLU A   1      -9.221   9.205  65.789  1.00  0.00    -0.201 OA 
ATOM      6  C   GLU A   1      -9.934   9.471  66.745  1.00  0.00    -0.233 C  
ATOM      7  O   GLU A   1      -9.759   8.927  67.975  1.00  0.00    -0.149 OA 
ENDROOT
BRANCH   2   8
ATOM      8  CB  GLU A   1     -10.785  11.832  66.213  1.00  0.00    -0.312 C  
BRANCH   8   9
ATOM      9  CG  GLU A   1     -11.890  12.486  65.379  1.00  0.00    -0.479 C  
ATOM     10  CD  GLU A   1     -11.872  11.993  63.954  1.00  0.00    -0.448 C  
ATOM     11  OE1 GLU A   1     -13.088  12.033  63.365  1.00  0.00    -0.747 OA 
ATOM     12  OE2 GLU A   1     -10.868  11.622  63.365  1.00  0.00    -0.391 OA 
ENDBRANCH   8   9
ENDBRANCH   2   8
TORSDOF 2
ENDMDL
MODEL       82
REMARK 921   NORMALIZED FREE ENERGY PREDICTED BY IDOCK:   -3.37 KCAL/MOL
REMARK 922        TOTAL FREE ENERGY PREDICTED BY IDOCK:   -3.81 KCAL/MOL
REMARK 923 INTER-LIGAND FREE ENERGY PREDICTED BY IDOCK:   -3.72 KCAL/MOL
REMARK 924 INTRA-LIGAND FREE ENERGY PREDICTED BY IDOCK:   -0.09 KCAL/MOL
REMARK 927      BINDING AFFINITY PREDICTED BY RF-SCORE:    0.00 PKD
ROOT
ATOM      1  N   GLU A   1     -13.774   8.890  72.958  1.00  0.00    -1.038 NA 
ATOM      2  CA  GLU A   1     -12.333   8.906  72.550  1.00  0.00    -0.255 C  
ATOM      3  H1  GLU A   1     -14.083   9.841  73.161  1.00  0.00     0.000 HD 
ATOM      4  H2  GLU A   1     -13.945   8.256  73.738  1.00  0.00     0.000 HD 
ATOM      5  OXT GLU A   1     -11.163  10.065  70.716  1.00  0.00    -0.312 OA 
ATOM      6  C   GLU A   1     -12.194   9.855  71.337  1.00  0.00    -0.408 C  
ATOM      7  O   GLU A   1     -13.372  10.460  71.044  1.00  0.00    -0.342 OA 
ENDROOT
BRANCH   2   8
ATOM      8  CB  GLU A   1     -11.869   7.478  72.246  1.00  0.00    -0.331 C  
BRANCH   8   9
ATOM      9  CG  GLU A   1     -10.642   7.045  73.055  1.00  0.00    -0.323 C  
ATOM     10  CD  GLU A   1     -10.572   5.545  73.192  1.00  0.00    -0.247 C  
ATOM     11  OE1 GLU A   1      -9.307   5.086  73.333  1.00  0.00    -0.135 OA 
ATOM     12  OE2 GLU A   1     -11.544   4.807  73.208  1.00  0.00    -0.333 OA 
ENDBRANCH   8   9
ENDBRANCH   2   8
TORSDOF 2
ENDMDL
MODEL       83
REMARK 921   NORMALIZED FREE ENERGY PREDICTED BY IDOCK:   -3.36 KCAL/MOL
REMARK 922        TOTAL FREE ENERGY PREDICTED BY IDOCK:   -3.81 KCAL/MOL
REMARK 923 INTER-LIGAND FREE ENERGY PREDICTED BY IDOCK:   -3.72 KCAL/MOL
REMARK 924 INTRA-LIGAND FREE ENERGY PREDICTED BY IDOCK:   -0.08 KCAL/MOL
REMARK 927      BINDING AFFINITY PREDICTED BY RF-SCORE:    0.00 PKD
ROOT
ATOM      1  N   GLU A   1     -11.936  11.973  66.770  1.00  0.00    -0.610 NA 
ATOM      2  CA  GLU A   1     -11.055  12.255  65.591  1.00  0.00    -0.317 C  
ATOM      3  H1  GLU A   1     -12.577  12.753  66.913  1.00  0.00     0.000 HD 
ATOM      4  H2  GLU A   1     -11.398  11.759  67.609  1.00  0.00     0.000 HD 
ATOM      5  OXT GLU A   1     -11.581  12.728  63.231  1.00  0.00    -0.498 OA 
ATOM      6  C   GLU A   1     -11.967  12.516  64.370  1.00  0.00    -0.404 C  
ATOM      7  O   GLU A   1     -13.277  12.503  64.719  1.00  0.00    -0.839 OA 
ENDROOT
BRANCH   2   8
ATOM      8  CB  GLU A   1     -10.092  11.082  65.377  1.00  0.00    -0.326 C  
BRANCH   8   9
ATOM      9  CG  GLU A   1     -10.280   9.942  66.383  1.00  0.00    -0.292 C  
ATOM     10  CD  GLU A   1      -9.087   9.020  66.401  1.00  0.00    -0.170 C  
ATOM     11  OE1 GLU A   1      -8.909   8.410  67.595  1.00  0.00    -0.135 OA 
ATOM     12  OE2 GLU A   1      -8.363   8.808  65.441  1.00  0.00    -0.133 OA 
ENDBRANCH   8   9
ENDBRANCH   2   8
TORSDOF 2
ENDMDL
MODEL       84
REMARK 921   NORMALIZED FREE ENERGY PREDICTED BY IDOCK:   -3.35 KCAL/MOL
REMARK 922        TOTAL FREE ENERGY PREDICTED BY IDOCK:   -3.80 KCAL/MOL
REMARK 923 INTER-LIGAND FREE ENERGY PREDICTED BY IDOCK:   -3.66 KCAL/MOL
REMARK 924 INTRA-LIGAND FREE ENERGY PREDICTED BY IDOCK:   -0.13 KCAL/MOL
REMARK 927      BINDING AFFINITY PREDICTED BY RF-SCORE:    0.00 PKD
ROOT
ATOM      1  N   GLU A   1     -11.701  16.269  71.069  1.00  0.00    -0.599 NA 
ATOM      2  CA  GLU A   1     -11.735  16.065  69.585  1.00  0.00    -0.276 C  
ATOM      3  H1  GLU A   1     -12.555  15.898  71.485  1.00  0.00     0.000 HD 
ATOM      4  H2  GLU A   1     -11.544  17.245  71.319  1.00  0.00     0.000 HD 
ATOM      5  OXT GLU A   1     -11.948  14.026  68.218  1.00  0.00    -0.357 OA 
ATOM      6  C   GLU A   1     -11.927  14.554  69.319  1.00  0.00    -0.319 C  
ATOM      7  O   GLU A   1     -12.094  13.865  70.475  1.00  0.00    -0.328 OA 
ENDROOT
BRANCH   2   8
ATOM      8  CB  GLU A   1     -10.453  16.623  68.960  1.00  0.00    -0.328 C  
BRANCH   8   9
ATOM      9  CG  GLU A   1     -10.706  17.577  67.788  1.00  0.00    -0.333 C  
ATOM     10  CD  GLU A   1     -10.177  18.959  68.077  1.00  0.00    -0.388 C  
ATOM     11  OE1 GLU A   1      -9.824  19.634  66.960  1.00  0.00    -0.331 OA 
ATOM     12  OE2 GLU A   1     -10.099  19.449  69.193  1.00  0.00    -0.408 OA 
ENDBRANCH   8   9
ENDBRANCH   2   8
TORSDOF 2
ENDMDL
MODEL       85
REMARK 921   NORMALIZED FREE ENERGY PREDICTED BY IDOCK:   -3.34 KCAL/MOL
REMARK 922        TOTAL FREE ENERGY PREDICTED BY IDOCK:   -3.78 KCAL/MOL
REMARK 923 INTER-LIGAND FREE ENERGY PREDICTED BY IDOCK:   -3.72 KCAL/MOL
REMARK 924 INTRA-LIGAND FREE ENERGY PREDICTED BY IDOCK:   -0.06 KCAL/MOL
REMARK 927      BINDING AFFINITY PREDICTED BY RF-SCORE:    0.00 PKD
ROOT
ATOM      1  N   GLU A   1     -10.598  17.852  67.598  1.00  0.00    -0.401 NA 
ATOM      2  CA  GLU A   1      -9.686  16.925  66.856  1.00  0.00    -0.259 C  
ATOM      3  H1  GLU A   1     -10.073  18.342  68.323  1.00  0.00     0.000 HD 
ATOM      4  H2  GLU A   1     -11.414  17.369  67.975  1.00  0.00     0.000 HD 
ATOM      5  OXT GLU A   1      -7.615  17.337  65.586  1.00  0.00    -0.366 OA 
ATOM      6  C   GLU A   1      -8.517  17.764  66.289  1.00  0.00    -0.190 C  
ATOM      7  O   GLU A   1      -8.598  19.058  66.687  1.00  0.00    -0.290 OA 
ENDROOT
BRANCH   2   8
ATOM      8  CB  GLU A   1     -10.475  16.190  65.767  1.00  0.00    -0.384 C  
BRANCH   8   9
ATOM      9  CG  GLU A   1     -11.153  14.908  66.261  1.00  0.00    -0.340 C  
ATOM     10  CD  GLU A   1     -12.008  14.287  65.186  1.00  0.00    -0.395 C  
ATOM     11  OE1 GLU A   1     -12.128  12.946  65.316  1.00  0.00    -0.397 OA 
ATOM     12  OE2 GLU A   1     -12.569  14.914  64.301  1.00  0.00    -0.699 OA 
ENDBRANCH   8   9
ENDBRANCH   2   8
TORSDOF 2
ENDMDL
MODEL       86
REMARK 921   NORMALIZED FREE ENERGY PREDICTED BY IDOCK:   -3.34 KCAL/MOL
REMARK 922        TOTAL FREE ENERGY PREDICTED BY IDOCK:   -3.78 KCAL/MOL
REMARK 923 INTER-LIGAND FREE ENERGY PREDICTED BY IDOCK:   -3.56 KCAL/MOL
REMARK 924 INTRA-LIGAND FREE ENERGY PREDICTED BY IDOCK:   -0.22 KCAL/MOL
REMARK 927      BINDING AFFINITY PREDICTED BY RF-SCORE:    0.00 PKD
ROOT
ATOM      1  N   GLU A   1     -11.469  11.123  69.265  1.00  0.00    -0.265 NA 
ATOM      2  CA  GLU A   1     -11.791  12.189  70.266  1.00  0.00    -0.254 C  
ATOM      3  H1  GLU A   1     -11.071  10.314  69.742  1.00  0.00     0.000 HD 
ATOM      4  H2  GLU A   1     -10.864  11.465  68.519  1.00  0.00     0.000 HD 
ATOM      5  OXT GLU A   1     -13.251  12.184  72.251  1.00  0.00    -0.460 OA 
ATOM      6  C   GLU A   1     -12.746  11.579  71.318  1.00  0.00    -0.364 C  
ATOM      7  O   GLU A   1     -12.952  10.258  71.093  1.00  0.00    -0.364 OA 
ENDROOT
BRANCH   2   8
ATOM      8  CB  GLU A   1     -12.389  13.404  69.549  1.00  0.00    -0.155 C  
BRANCH   8   9
ATOM      9  CG  GLU A   1     -11.805  14.741  70.015  1.00  0.00    -0.362 C  
ATOM     10  CD  GLU A   1     -12.717  15.430  70.998  1.00  0.00    -0.448 C  
ATOM     11  OE1 GLU A   1     -12.055  16.234  71.861  1.00  0.00    -0.471 OA 
ATOM     12  OE2 GLU A   1     -13.933  15.314  71.010  1.00  0.00    -0.416 OA 
ENDBRANCH   8   9
ENDBRANCH   2   8
TORSDOF 2
ENDMDL
MODEL       87
REMARK 921   NORMALIZED FREE ENERGY PREDICTED BY IDOCK:   -3.33 KCAL/MOL
REMARK 922        TOTAL FREE ENERGY PREDICTED BY IDOCK:   -3.78 KCAL/MOL
REMARK 923 INTER-LIGAND FREE ENERGY PREDICTED BY IDOCK:   -3.58 KCAL/MOL
REMARK 924 INTRA-LIGAND FREE ENERGY PREDICTED BY IDOCK:   -0.20 KCAL/MOL
REMARK 927      BINDING AFFINITY PREDICTED BY RF-SCORE:    0.00 PKD
ROOT
ATOM      1  N   GLU A   1      -7.398  19.468  69.085  1.00  0.00    -0.362 NA 
ATOM      2  CA  GLU A   1      -7.991  18.990  67.796  1.00  0.00    -0.263 C  
ATOM      3  H1  GLU A   1      -6.381  19.402  69.040  1.00  0.00     0.000 HD 
ATOM      4  H2  GLU A   1      -7.779  18.972  69.891  1.00  0.00     0.000 HD 
ATOM      5  OXT GLU A   1      -7.683  19.749  65.472  1.00  0.00    -0.392 OA 
ATOM      6  C   GLU A   1      -7.384  19.836  66.653  1.00  0.00    -0.250 C  
ATOM      7  O   GLU A   1      -6.442  20.693  67.118  1.00  0.00    -0.226 OA 
ENDROOT
BRANCH   2   8
ATOM      8  CB  GLU A   1      -9.518  19.089  67.865  1.00  0.00    -0.360 C  
BRANCH   8   9
ATOM      9  CG  GLU A   1     -10.238  17.835  67.360  1.00  0.00    -0.353 C  
ATOM     10  CD  GLU A   1     -10.593  17.952  65.899  1.00  0.00    -0.215 C  
ATOM     11  OE1 GLU A   1     -10.656  16.754  65.273  1.00  0.00    -0.621 OA 
ATOM     12  OE2 GLU A   1     -10.833  19.005  65.329  1.00  0.00    -0.540 OA 
ENDBRANCH   8   9
ENDBRANCH   2   8
TORSDOF 2
ENDMDL
MODEL       88
REMARK 921   NORMALIZED FREE ENERGY PREDICTED BY IDOCK:   -3.33 KCAL/MOL
REMARK 922        TOTAL FREE ENERGY PREDICTED BY IDOCK:   -3.77 KCAL/MOL
REMARK 923 INTER-LIGAND FREE ENERGY PREDICTED BY IDOCK:   -3.67 KCAL/MOL
REMARK 924 INTRA-LIGAND FREE ENERGY PREDICTED BY IDOCK:   -0.10 KCAL/MOL
REMARK 927      BINDING AFFINITY PREDICTED BY RF-SCORE:    0.00 PKD
ROOT
ATOM      1  N   GLU A   1      -8.847  12.081  65.881  1.00  0.00    -0.409 NA 
ATOM      2  CA  GLU A   1      -9.992  12.917  66.365  1.00  0.00    -0.267 C  
ATOM      3  H1  GLU A   1      -8.592  11.402  66.598  1.00  0.00     0.000 HD 
ATOM      4  H2  GLU A   1      -8.052  12.650  65.591  1.00  0.00     0.000 HD 
ATOM      5  OXT GLU A   1     -12.261  12.311  67.111  1.00  0.00    -0.506 OA 
ATOM      6  C   GLU A   1     -11.153  11.964  66.730  1.00  0.00    -0.308 C  
ATOM      7  O   GLU A   1     -10.789  10.665  66.596  1.00  0.00    -0.217 OA 
ENDROOT
BRANCH   2   8
ATOM      8  CB  GLU A   1     -10.374  13.938  65.288  1.00  0.00    -0.396 C  
BRANCH   8   9
ATOM      9  CG  GLU A   1     -10.961  15.235  65.853  1.00  0.00    -0.325 C  
ATOM     10  CD  GLU A   1      -9.974  16.372  65.764  1.00  0.00    -0.302 C  
ATOM     11  OE1 GLU A   1     -10.569  17.582  65.665  1.00  0.00    -0.549 OA 
ATOM     12  OE2 GLU A   1      -8.761  16.238  65.807  1.00  0.00    -0.390 OA 
ENDBRANCH   8   9
ENDBRANCH   2   8
TORSDOF 2
ENDMDL
MODEL       89
REMARK 921   NORMALIZED FREE ENERGY PREDICTED BY IDOCK:   -3.30 KCAL/MOL
REMARK 922        TOTAL FREE ENERGY PREDICTED BY IDOCK:   -3.74 KCAL/MOL
REMARK 923 INTER-LIGAND FREE ENERGY PREDICTED BY IDOCK:   -3.65 KCAL/MOL
REMARK 924 INTRA-LIGAND FREE ENERGY PREDICTED BY IDOCK:   -0.09 KCAL/MOL
REMARK 927      BINDING AFFINITY PREDICTED BY RF-SCORE:    0.00 PKD
ROOT
ATOM      1  N   GLU A   1      -9.323   9.938  70.114  1.00  0.00    -0.368 NA 
ATOM      2  CA  GLU A   1     -10.791   9.718  69.911  1.00  0.00    -0.272 C  
ATOM      3  H1  GLU A   1      -8.866  10.057  69.210  1.00  0.00     0.000 HD 
ATOM      4  H2  GLU A   1      -8.895   9.195  70.666  1.00  0.00     0.000 HD 
ATOM      5  OXT GLU A   1     -12.516  11.092  68.812  1.00  0.00    -0.468 OA 
ATOM      6  C   GLU A   1     -11.344  10.919  69.111  1.00  0.00    -0.283 C  
ATOM      7  O   GLU A   1     -10.353  11.773  68.750  1.00  0.00    -0.213 OA 
ENDROOT
BRANCH   2   8
ATOM      8  CB  GLU A   1     -11.476   9.540  71.270  1.00  0.00    -0.447 C  
BRANCH   8   9
ATOM      9  CG  GLU A   1     -12.171   8.184  71.433  1.00  0.00    -0.324 C  
ATOM     10  CD  GLU A   1     -13.601   8.347  71.881  1.00  0.00    -0.379 C  
ATOM     11  OE1 GLU A   1     -14.400   7.333  71.478  1.00  0.00    -0.437 OA 
ATOM     12  OE2 GLU A   1     -14.010   9.274  72.564  1.00  0.00    -0.459 OA 
ENDBRANCH   8   9
ENDBRANCH   2   8
TORSDOF 2
ENDMDL
MODEL       90
REMARK 921   NORMALIZED FREE ENERGY PREDICTED BY IDOCK:   -3.29 KCAL/MOL
REMARK 922        TOTAL FREE ENERGY PREDICTED BY IDOCK:   -3.73 KCAL/MOL
REMARK 923 INTER-LIGAND FREE ENERGY PREDICTED BY IDOCK:   -3.42 KCAL/MOL
REMARK 924 INTRA-LIGAND FREE ENERGY PREDICTED BY IDOCK:   -0.31 KCAL/MOL
REMARK 927      BINDING AFFINITY PREDICTED BY RF-SCORE:    0.00 PKD
ROOT
ATOM      1  N   GLU A   1     -11.432   9.010  70.476  1.00  0.00    -0.350 NA 
ATOM      2  CA  GLU A   1     -11.728  10.473  70.601  1.00  0.00    -0.357 C  
ATOM      3  H1  GLU A   1     -11.164   8.636  71.386  1.00  0.00     0.000 HD 
ATOM      4  H2  GLU A   1     -10.732   8.819  69.760  1.00  0.00     0.000 HD 
ATOM      5  OXT GLU A   1     -13.349  11.702  71.991  1.00  0.00    -0.481 OA 
ATOM      6  C   GLU A   1     -12.831  10.644  71.671  1.00  0.00    -0.465 C  
ATOM      7  O   GLU A   1     -13.152   9.458  72.245  1.00  0.00    -0.415 OA 
ENDROOT
BRANCH   2   8
ATOM      8  CB  GLU A   1     -12.131  11.035  69.234  1.00  0.00    -0.363 C  
BRANCH   8   9
ATOM      9  CG  GLU A   1     -10.939  11.440  68.361  1.00  0.00    -0.263 C  
ATOM     10  CD  GLU A   1     -10.636  10.391  67.321  1.00  0.00    -0.267 C  
ATOM     11  OE1 GLU A   1     -10.061  10.902  66.208  1.00  0.00    -0.218 OA 
ATOM     12  OE2 GLU A   1     -10.850   9.197  67.460  1.00  0.00    -0.242 OA 
ENDBRANCH   8   9
ENDBRANCH   2   8
TORSDOF 2
ENDMDL
MODEL       91
REMARK 921   NORMALIZED FREE ENERGY PREDICTED BY IDOCK:   -3.29 KCAL/MOL
REMARK 922        TOTAL FREE ENERGY PREDICTED BY IDOCK:   -3.73 KCAL/MOL
REMARK 923 INTER-LIGAND FREE ENERGY PREDICTED BY IDOCK:   -3.70 KCAL/MOL
REMARK 924 INTRA-LIGAND FREE ENERGY PREDICTED BY IDOCK:   -0.02 KCAL/MOL
REMARK 927      BINDING AFFINITY PREDICTED BY RF-SCORE:    0.00 PKD
ROOT
ATOM      1  N   GLU A   1      -8.305  15.558  67.821  1.00  0.00    -0.142 NA 
ATOM      2  CA  GLU A   1      -9.455  14.727  67.341  1.00  0.00    -0.207 C  
ATOM      3  H1  GLU A   1      -8.015  15.240  68.745  1.00  0.00     0.000 HD 
ATOM      4  H2  GLU A   1      -8.520  16.555  67.808  1.00  0.00     0.000 HD 
ATOM      5  OXT GLU A   1      -9.680  12.301  66.974  1.00  0.00    -0.198 OA 
ATOM      6  C   GLU A   1      -9.007  13.247  67.354  1.00  0.00    -0.215 C  
ATOM      7  O   GLU A   1      -7.759  13.112  67.867  1.00  0.00    -0.118 OA 
ENDROOT
BRANCH   2   8
ATOM      8  CB  GLU A   1      -9.891  15.206  65.952  1.00  0.00    -0.372 C  
BRANCH   8   9
ATOM      9  CG  GLU A   1     -11.337  14.842  65.604  1.00  0.00    -0.343 C  
ATOM     10  CD  GLU A   1     -11.826  15.611  64.403  1.00  0.00    -0.182 C  
ATOM     11  OE1 GLU A   1     -12.782  14.954  63.706  1.00  0.00    -0.754 OA 
ATOM     12  OE2 GLU A   1     -11.437  16.726  64.091  1.00  0.00    -1.171 OA 
ENDBRANCH   8   9
ENDBRANCH   2   8
TORSDOF 2
ENDMDL
MODEL       92
REMARK 921   NORMALIZED FREE ENERGY PREDICTED BY IDOCK:   -3.28 KCAL/MOL
REMARK 922        TOTAL FREE ENERGY PREDICTED BY IDOCK:   -3.72 KCAL/MOL
REMARK 923 INTER-LIGAND FREE ENERGY PREDICTED BY IDOCK:   -3.59 KCAL/MOL
REMARK 924 INTRA-LIGAND FREE ENERGY PREDICTED BY IDOCK:   -0.13 KCAL/MOL
REMARK 927      BINDING AFFINITY PREDICTED BY RF-SCORE:    0.00 PKD
ROOT
ATOM      1  N   GLU A   1      -9.762  15.633  67.141  1.00  0.00    -0.221 NA 
ATOM      2  CA  GLU A   1     -10.474  16.679  66.338  1.00  0.00    -0.266 C  
ATOM      3  H1  GLU A   1     -10.370  14.823  67.263  1.00  0.00     0.000 HD 
ATOM      4  H2  GLU A   1      -9.424  15.997  68.032  1.00  0.00     0.000 HD 
ATOM      5  OXT GLU A   1     -11.457  16.621  64.080  1.00  0.00    -1.192 OA 
ATOM      6  C   GLU A   1     -10.899  16.038  64.997  1.00  0.00    -0.404 C  
ATOM      7  O   GLU A   1     -10.593  14.718  64.960  1.00  0.00    -0.386 OA 
ENDROOT
BRANCH   2   8
ATOM      8  CB  GLU A   1      -9.561  17.896  66.156  1.00  0.00    -0.192 C  
BRANCH   8   9
ATOM      9  CG  GLU A   1      -8.728  18.230  67.397  1.00  0.00    -0.257 C  
ATOM     10  CD  GLU A   1      -7.255  18.276  67.077  1.00  0.00    -0.202 C  
ATOM     11  OE1 GLU A   1      -6.563  19.106  67.891  1.00  0.00    -0.219 OA 
ATOM     12  OE2 GLU A   1      -6.718  17.617  66.200  1.00  0.00    -0.247 OA 
ENDBRANCH   8   9
ENDBRANCH   2   8
TORSDOF 2
ENDMDL
MODEL       93
REMARK 921   NORMALIZED FREE ENERGY PREDICTED BY IDOCK:   -3.27 KCAL/MOL
REMARK 922        TOTAL FREE ENERGY PREDICTED BY IDOCK:   -3.71 KCAL/MOL
REMARK 923 INTER-LIGAND FREE ENERGY PREDICTED BY IDOCK:   -3.59 KCAL/MOL
REMARK 924 INTRA-LIGAND FREE ENERGY PREDICTED BY IDOCK:   -0.12 KCAL/MOL
REMARK 927      BINDING AFFINITY PREDICTED BY RF-SCORE:    0.00 PKD
ROOT
ATOM      1  N   GLU A   1     -11.374  16.250  68.256  1.00  0.00    -0.331 NA 
ATOM      2  CA  GLU A   1     -10.331  15.200  68.488  1.00  0.00    -0.230 C  
ATOM      3  H1  GLU A   1     -11.285  16.982  68.960  1.00  0.00     0.000 HD 
ATOM      4  H2  GLU A   1     -12.315  15.857  68.226  1.00  0.00     0.000 HD 
ATOM      5  OXT GLU A   1      -7.872  15.325  68.570  1.00  0.00    -0.124 OA 
ATOM      6  C   GLU A   1      -8.949  15.891  68.465  1.00  0.00    -0.199 C  
ATOM      7  O   GLU A   1      -9.070  17.235  68.332  1.00  0.00    -0.250 OA 
ENDROOT
BRANCH   2   8
ATOM      8  CB  GLU A   1     -10.465  14.099  67.430  1.00  0.00    -0.271 C  
BRANCH   8   9
ATOM      9  CG  GLU A   1     -11.263  14.530  66.195  1.00  0.00    -0.339 C  
ATOM     10  CD  GLU A   1     -12.334  13.526  65.852  1.00  0.00    -0.456 C  
ATOM     11  OE1 GLU A   1     -13.395  14.079  65.221  1.00  0.00    -0.741 OA 
ATOM     12  OE2 GLU A   1     -12.259  12.329  66.082  1.00  0.00    -0.647 OA 
ENDBRANCH   8   9
ENDBRANCH   2   8
TORSDOF 2
ENDMDL
MODEL       94
REMARK 921   NORMALIZED FREE ENERGY PREDICTED BY IDOCK:   -3.26 KCAL/MOL
REMARK 922        TOTAL FREE ENERGY PREDICTED BY IDOCK:   -3.70 KCAL/MOL
REMARK 923 INTER-LIGAND FREE ENERGY PREDICTED BY IDOCK:   -3.59 KCAL/MOL
REMARK 924 INTRA-LIGAND FREE ENERGY PREDICTED BY IDOCK:   -0.10 KCAL/MOL
REMARK 927      BINDING AFFINITY PREDICTED BY RF-SCORE:    0.00 PKD
ROOT
ATOM      1  N   GLU A   1     -10.609  12.852  69.104  1.00  0.00    -0.441 NA 
ATOM      2  CA  GLU A   1     -10.879  12.038  67.876  1.00  0.00    -0.215 C  
ATOM      3  H1  GLU A   1     -10.261  13.772  68.835  1.00  0.00     0.000 HD 
ATOM      4  H2  GLU A   1      -9.980  12.376  69.750  1.00  0.00     0.000 HD 
ATOM      5  OXT GLU A   1     -12.354  12.432  65.942  1.00  0.00    -0.638 OA 
ATOM      6  C   GLU A   1     -11.876  12.825  66.995  1.00  0.00    -0.361 C  
ATOM      7  O   GLU A   1     -12.154  14.041  67.527  1.00  0.00    -0.391 OA 
ENDROOT
BRANCH   2   8
ATOM      8  CB  GLU A   1     -11.402  10.655  68.280  1.00  0.00    -0.357 C  
BRANCH   8   9
ATOM      9  CG  GLU A   1     -11.605  10.493  69.789  1.00  0.00    -0.368 C  
ATOM     10  CD  GLU A   1     -10.945   9.239  70.304  1.00  0.00    -0.247 C  
ATOM     11  OE1 GLU A   1     -10.568   9.333  71.599  1.00  0.00    -0.349 OA 
ATOM     12  OE2 GLU A   1     -10.787   8.222  69.646  1.00  0.00    -0.226 OA 
ENDBRANCH   8   9
ENDBRANCH   2   8
TORSDOF 2
ENDMDL
MODEL       95
REMARK 921   NORMALIZED FREE ENERGY PREDICTED BY IDOCK:   -3.23 KCAL/MOL
REMARK 922        TOTAL FREE ENERGY PREDICTED BY IDOCK:   -3.66 KCAL/MOL
REMARK 923 INTER-LIGAND FREE ENERGY PREDICTED BY IDOCK:   -3.53 KCAL/MOL
REMARK 924 INTRA-LIGAND FREE ENERGY PREDICTED BY IDOCK:   -0.13 KCAL/MOL
REMARK 927      BINDING AFFINITY PREDICTED BY RF-SCORE:    0.00 PKD
ROOT
ATOM      1  N   GLU A   1      -8.538   8.981  71.594  1.00  0.00    -0.351 NA 
ATOM      2  CA  GLU A   1      -9.912   8.814  72.168  1.00  0.00    -0.289 C  
ATOM      3  H1  GLU A   1      -7.851   8.988  72.348  1.00  0.00     0.000 HD 
ATOM      4  H2  GLU A   1      -8.467   9.808  71.002  1.00  0.00     0.000 HD 
ATOM      5  OXT GLU A   1     -10.895   7.043  73.570  1.00  0.00    -0.341 OA 
ATOM      6  C   GLU A   1      -9.921   7.512  73.002  1.00  0.00    -0.268 C  
ATOM      7  O   GLU A   1      -8.690   6.946  73.052  1.00  0.00    -0.119 OA 
ENDROOT
BRANCH   2   8
ATOM      8  CB  GLU A   1     -10.944   8.804  71.035  1.00  0.00    -0.328 C  
BRANCH   8   9
ATOM      9  CG  GLU A   1     -11.647  10.150  70.835  1.00  0.00    -0.459 C  
ATOM     10  CD  GLU A   1     -12.907  10.243  71.658  1.00  0.00    -0.463 C  
ATOM     11  OE1 GLU A   1     -13.223  11.513  71.999  1.00  0.00    -0.509 OA 
ATOM     12  OE2 GLU A   1     -13.601   9.287  71.969  1.00  0.00    -0.405 OA 
ENDBRANCH   8   9
ENDBRANCH   2   8
TORSDOF 2
ENDMDL
MODEL       96
REMARK 921   NORMALIZED FREE ENERGY PREDICTED BY IDOCK:   -3.23 KCAL/MOL
REMARK 922        TOTAL FREE ENERGY PREDICTED BY IDOCK:   -3.66 KCAL/MOL
REMARK 923 INTER-LIGAND FREE ENERGY PREDICTED BY IDOCK:   -3.57 KCAL/MOL
REMARK 924 INTRA-LIGAND FREE ENERGY PREDICTED BY IDOCK:   -0.08 KCAL/MOL
REMARK 927      BINDING AFFINITY PREDICTED BY RF-SCORE:    0.00 PKD
ROOT
ATOM      1  N   GLU A   1     -12.417  10.720  69.035  1.00  0.00    -0.728 NA 
ATOM      2  CA  GLU A   1     -11.022  10.201  68.867  1.00  0.00    -0.223 C  
ATOM      3  H1  GLU A   1     -12.977  10.038  69.547  1.00  0.00     0.000 HD 
ATOM      4  H2  GLU A   1     -12.842  10.975  68.144  1.00  0.00     0.000 HD 
ATOM      5  OXT GLU A   1      -9.326   9.502  70.513  1.00  0.00    -0.252 OA 
ATOM      6  C   GLU A   1     -10.458   9.894  70.274  1.00  0.00    -0.291 C  
ATOM      7  O   GLU A   1     -11.393  10.093  71.236  1.00  0.00    -0.325 OA 
ENDROOT
BRANCH   2   8
ATOM      8  CB  GLU A   1     -10.181  11.226  68.099  1.00  0.00    -0.196 C  
BRANCH   8   9
ATOM      9  CG  GLU A   1     -11.005  12.372  67.503  1.00  0.00    -0.293 C  
ATOM     10  CD  GLU A   1     -11.353  12.109  66.060  1.00  0.00    -0.358 C  
ATOM     11  OE1 GLU A   1     -12.503  12.710  65.675  1.00  0.00    -0.622 OA 
ATOM     12  OE2 GLU A   1     -10.667  11.453  65.292  1.00  0.00    -0.287 OA 
ENDBRANCH   8   9
ENDBRANCH   2   8
TORSDOF 2
ENDMDL
MODEL       97
REMARK 921   NORMALIZED FREE ENERGY PREDICTED BY IDOCK:   -3.22 KCAL/MOL
REMARK 922        TOTAL FREE ENERGY PREDICTED BY IDOCK:   -3.65 KCAL/MOL
REMARK 923 INTER-LIGAND FREE ENERGY PREDICTED BY IDOCK:   -3.55 KCAL/MOL
REMARK 924 INTRA-LIGAND FREE ENERGY PREDICTED BY IDOCK:   -0.11 KCAL/MOL
REMARK 927      BINDING AFFINITY PREDICTED BY RF-SCORE:    0.00 PKD
ROOT
ATOM      1  N   GLU A   1     -11.680  13.896  70.608  1.00  0.00    -0.515 NA 
ATOM      2  CA  GLU A   1     -11.879  13.467  69.186  1.00  0.00    -0.336 C  
ATOM      3  H1  GLU A   1     -12.432  13.522  71.186  1.00  0.00     0.000 HD 
ATOM      4  H2  GLU A   1     -11.594  14.908  70.695  1.00  0.00     0.000 HD 
ATOM      5  OXT GLU A   1     -12.051  11.233  68.159  1.00  0.00    -0.635 OA 
ATOM      6  C   GLU A   1     -11.946  11.922  69.162  1.00  0.00    -0.276 C  
ATOM      7  O   GLU A   1     -11.895  11.405  70.415  1.00  0.00    -0.336 OA 
ENDROOT
BRANCH   2   8
ATOM      8  CB  GLU A   1     -10.748  14.028  68.317  1.00  0.00    -0.262 C  
BRANCH   8   9
ATOM      9  CG  GLU A   1     -10.076  15.270  68.911  1.00  0.00    -0.225 C  
ATOM     10  CD  GLU A   1     -10.397  16.507  68.112  1.00  0.00    -0.296 C  
ATOM     11  OE1 GLU A   1     -10.369  17.638  68.853  1.00  0.00    -0.363 OA 
ATOM     12  OE2 GLU A   1     -10.629  16.513  66.912  1.00  0.00    -0.302 OA 
ENDBRANCH   8   9
ENDBRANCH   2   8
TORSDOF 2
ENDMDL
MODEL       98
REMARK 921   NORMALIZED FREE ENERGY PREDICTED BY IDOCK:   -3.22 KCAL/MOL
REMARK 922        TOTAL FREE ENERGY PREDICTED BY IDOCK:   -3.65 KCAL/MOL
REMARK 923 INTER-LIGAND FREE ENERGY PREDICTED BY IDOCK:   -3.60 KCAL/MOL
REMARK 924 INTRA-LIGAND FREE ENERGY PREDICTED BY IDOCK:   -0.05 KCAL/MOL
REMARK 927      BINDING AFFINITY PREDICTED BY RF-SCORE:    0.00 PKD
ROOT
ATOM      1  N   GLU A   1     -12.088   6.913  70.184  1.00  0.00    -0.641 NA 
ATOM      2  CA  GLU A   1     -12.062   7.647  71.490  1.00  0.00    -0.310 C  
ATOM      3  H1  GLU A   1     -12.695   6.097  70.262  1.00  0.00     0.000 HD 
ATOM      4  H2  GLU A   1     -11.153   6.667  69.862  1.00  0.00     0.000 HD 
ATOM      5  OXT GLU A   1     -13.860   8.661  72.835  1.00  0.00    -0.225 OA 
ATOM      6  C   GLU A   1     -13.518   8.013  71.857  1.00  0.00    -0.304 C  
ATOM      7  O   GLU A   1     -14.399   7.504  70.960  1.00  0.00    -0.283 OA 
ENDROOT
BRANCH   2   8
ATOM      8  CB  GLU A   1     -11.150   8.873  71.372  1.00  0.00    -0.376 C  
BRANCH   8   9
ATOM      9  CG  GLU A   1     -11.847  10.101  70.780  1.00  0.00    -0.443 C  
ATOM     10  CD  GLU A   1     -11.226  10.510  69.468  1.00  0.00    -0.271 C  
ATOM     11  OE1 GLU A   1     -12.096  11.135  68.643  1.00  0.00    -0.556 OA 
ATOM     12  OE2 GLU A   1     -10.054  10.333  69.175  1.00  0.00    -0.195 OA 
ENDBRANCH   8   9
ENDBRANCH   2   8
TORSDOF 2
ENDMDL
MODEL       99
REMARK 921   NORMALIZED FREE ENERGY PREDICTED BY IDOCK:   -3.21 KCAL/MOL
REMARK 922        TOTAL FREE ENERGY PREDICTED BY IDOCK:   -3.64 KCAL/MOL
REMARK 923 INTER-LIGAND FREE ENERGY PREDICTED BY IDOCK:   -3.54 KCAL/MOL
REMARK 924 INTRA-LIGAND FREE ENERGY PREDICTED BY IDOCK:   -0.10 KCAL/MOL
REMARK 927      BINDING AFFINITY PREDICTED BY RF-SCORE:    0.00 PKD
ROOT
ATOM      1  N   GLU A   1      -6.888  17.483  69.085  1.00  0.00    -0.248 NA 
ATOM      2  CA  GLU A   1      -7.108  18.773  68.355  1.00  0.00    -0.265 C  
ATOM      3  H1  GLU A   1      -5.899  17.235  69.052  1.00  0.00     0.000 HD 
ATOM      4  H2  GLU A   1      -7.483  16.734  68.730  1.00  0.00     0.000 HD 
ATOM      5  OXT GLU A   1      -6.161  21.023  68.687  1.00  0.00    -0.319 OA 
ATOM      6  C   GLU A   1      -6.198  19.843  69.001  1.00  0.00    -0.298 C  
ATOM      7  O   GLU A   1      -5.411  19.307  69.967  1.00  0.00    -0.197 OA 
ENDROOT
BRANCH   2   8
ATOM      8  CB  GLU A   1      -8.593  19.144  68.404  1.00  0.00    -0.387 C  
BRANCH   8   9
ATOM      9  CG  GLU A   1      -9.059  19.973  67.203  1.00  0.00    -0.468 C  
ATOM     10  CD  GLU A   1      -9.817  19.129  66.211  1.00  0.00    -0.383 C  
ATOM     11  OE1 GLU A   1     -10.724  19.836  65.498  1.00  0.00    -0.479 OA 
ATOM     12  OE2 GLU A   1      -9.627  17.936  66.030  1.00  0.00    -0.502 OA 
ENDBRANCH   8   9
ENDBRANCH   2   8
TORSDOF 2
ENDMDL
MODEL      100
REMARK 921   NORMALIZED FREE ENERGY PREDICTED BY IDOCK:   -3.21 KCAL/MOL
REMARK 922        TOTAL FREE ENERGY PREDICTED BY IDOCK:   -3.64 KCAL/MOL
REMARK 923 INTER-LIGAND FREE ENERGY PREDICTED BY IDOCK:   -3.41 KCAL/MOL
REMARK 924 INTRA-LIGAND FREE ENERGY PREDICTED BY IDOCK:   -0.22 KCAL/MOL
REMARK 927      BINDING AFFINITY PREDICTED BY RF-SCORE:    0.00 PKD
ROOT
ATOM      1  N   GLU A   1      -9.997  12.914  64.577  1.00  0.00    -0.591 NA 
ATOM      2  CA  GLU A   1     -10.539  11.877  65.512  1.00  0.00    -0.269 C  
ATOM      3  H1  GLU A   1     -10.768  13.390  64.109  1.00  0.00     0.000 HD 
ATOM      4  H2  GLU A   1      -9.328  12.523  63.914  1.00  0.00     0.000 HD 
ATOM      5  OXT GLU A   1     -12.077  12.046  67.430  1.00  0.00    -0.566 OA 
ATOM      6  C   GLU A   1     -11.498  12.583  66.499  1.00  0.00    -0.362 C  
ATOM      7  O   GLU A   1     -11.643  13.897  66.194  1.00  0.00    -0.335 OA 
ENDROOT
BRANCH   2   8
ATOM      8  CB  GLU A   1      -9.380  11.162  66.215  1.00  0.00    -0.216 C  
BRANCH   8   9
ATOM      9  CG  GLU A   1      -9.418   9.638  66.064  1.00  0.00    -0.284 C  
ATOM     10  CD  GLU A   1     -10.183   8.991  67.191  1.00  0.00    -0.265 C  
ATOM     11  OE1 GLU A   1     -10.754   7.817  66.837  1.00  0.00    -0.345 OA 
ATOM     12  OE2 GLU A   1     -10.264   9.446  68.322  1.00  0.00    -0.180 OA 
ENDBRANCH   8   9
ENDBRANCH   2   8
TORSDOF 2
ENDMDL
MODEL      101
REMARK 921   NORMALIZED FREE ENERGY PREDICTED BY IDOCK:   -3.19 KCAL/MOL
REMARK 922        TOTAL FREE ENERGY PREDICTED BY IDOCK:   -3.62 KCAL/MOL
REMARK 923 INTER-LIGAND FREE ENERGY PREDICTED BY IDOCK:   -3.47 KCAL/MOL
REMARK 924 INTRA-LIGAND FREE ENERGY PREDICTED BY IDOCK:   -0.15 KCAL/MOL
REMARK 927      BINDING AFFINITY PREDICTED BY RF-SCORE:    0.00 PKD
ROOT
ATOM      1  N   GLU A   1     -12.314  14.093  68.109  1.00  0.00    -0.538 NA 
ATOM      2  CA  GLU A   1     -11.985  14.296  66.662  1.00  0.00    -0.430 C  
ATOM      3  H1  GLU A   1     -13.086  13.433  68.196  1.00  0.00     0.000 HD 
ATOM      4  H2  GLU A   1     -12.506  14.973  68.588  1.00  0.00     0.000 HD 
ATOM      5  OXT GLU A   1     -11.307  12.714  64.900  1.00  0.00    -0.295 OA 
ATOM      6  C   GLU A   1     -11.665  12.913  66.050  1.00  0.00    -0.404 C  
ATOM      7  O   GLU A   1     -11.852  11.917  66.952  1.00  0.00    -0.590 OA 
ENDROOT
BRANCH   2   8
ATOM      8  CB  GLU A   1     -10.825  15.289  66.533  1.00  0.00    -0.311 C  
BRANCH   8   9
ATOM      9  CG  GLU A   1      -9.656  14.992  67.478  1.00  0.00    -0.203 C  
ATOM     10  CD  GLU A   1      -9.282  16.205  68.291  1.00  0.00    -0.197 C  
ATOM     11  OE1 GLU A   1      -8.734  15.891  69.487  1.00  0.00    -0.241 OA 
ATOM     12  OE2 GLU A   1      -9.421  17.359  67.915  1.00  0.00    -0.255 OA 
ENDBRANCH   8   9
ENDBRANCH   2   8
TORSDOF 2
ENDMDL
MODEL      102
REMARK 921   NORMALIZED FREE ENERGY PREDICTED BY IDOCK:   -3.18 KCAL/MOL
REMARK 922        TOTAL FREE ENERGY PREDICTED BY IDOCK:   -3.61 KCAL/MOL
REMARK 923 INTER-LIGAND FREE ENERGY PREDICTED BY IDOCK:   -3.29 KCAL/MOL
REMARK 924 INTRA-LIGAND FREE ENERGY PREDICTED BY IDOCK:   -0.32 KCAL/MOL
REMARK 927      BINDING AFFINITY PREDICTED BY RF-SCORE:    0.00 PKD
ROOT
ATOM      1  N   GLU A   1     -11.481  11.481  70.325  1.00  0.00    -0.515 NA 
ATOM      2  CA  GLU A   1     -11.986  10.151  70.793  1.00  0.00    -0.348 C  
ATOM      3  H1  GLU A   1     -12.262  12.046  69.991  1.00  0.00     0.000 HD 
ATOM      4  H2  GLU A   1     -10.746  11.389  69.623  1.00  0.00     0.000 HD 
ATOM      5  OXT GLU A   1     -13.636   9.541  72.517  1.00  0.00    -0.433 OA 
ATOM      6  C   GLU A   1     -13.053  10.405  71.882  1.00  0.00    -0.458 C  
ATOM      7  O   GLU A   1     -13.290  11.731  72.043  1.00  0.00    -0.487 OA 
ENDROOT
BRANCH   2   8
ATOM      8  CB  GLU A   1     -10.812   9.303  71.294  1.00  0.00    -0.417 C  
BRANCH   8   9
ATOM      9  CG  GLU A   1     -10.174   8.434  70.206  1.00  0.00    -0.204 C  
ATOM     10  CD  GLU A   1      -8.891   9.040  69.697  1.00  0.00    -0.145 C  
ATOM     11  OE1 GLU A   1      -8.017   8.117  69.233  1.00  0.00    -0.111 OA 
ATOM     12  OE2 GLU A   1      -8.657  10.239  69.666  1.00  0.00    -0.170 OA 
ENDBRANCH   8   9
ENDBRANCH   2   8
TORSDOF 2
ENDMDL
MODEL      103
REMARK 921   NORMALIZED FREE ENERGY PREDICTED BY IDOCK:   -3.18 KCAL/MOL
REMARK 922        TOTAL FREE ENERGY PREDICTED BY IDOCK:   -3.61 KCAL/MOL
REMARK 923 INTER-LIGAND FREE ENERGY PREDICTED BY IDOCK:   -3.58 KCAL/MOL
REMARK 924 INTRA-LIGAND FREE ENERGY PREDICTED BY IDOCK:   -0.02 KCAL/MOL
REMARK 927      BINDING AFFINITY PREDICTED BY RF-SCORE:    0.00 PKD
ROOT
ATOM      1  N   GLU A   1     -10.329  16.577  65.251  1.00  0.00    -0.628 NA 
ATOM      2  CA  GLU A   1      -9.507  15.674  66.119  1.00  0.00    -0.341 C  
ATOM      3  H1  GLU A   1     -10.252  16.279  64.278  1.00  0.00     0.000 HD 
ATOM      4  H2  GLU A   1     -10.081  17.558  65.373  1.00  0.00     0.000 HD 
ATOM      5  OXT GLU A   1      -9.580  13.237  66.478  1.00  0.00    -0.258 OA 
ATOM      6  C   GLU A   1      -9.996  14.225  65.892  1.00  0.00    -0.319 C  
ATOM      7  O   GLU A   1     -10.949  14.168  64.929  1.00  0.00    -0.355 OA 
ENDROOT
BRANCH   2   8
ATOM      8  CB  GLU A   1      -9.623  16.121  67.580  1.00  0.00    -0.229 C  
BRANCH   8   9
ATOM      9  CG  GLU A   1     -10.712  17.172  67.815  1.00  0.00    -0.329 C  
ATOM     10  CD  GLU A   1     -10.131  18.561  67.895  1.00  0.00    -0.369 C  
ATOM     11  OE1 GLU A   1     -11.000  19.521  67.505  1.00  0.00    -0.452 OA 
ATOM     12  OE2 GLU A   1      -9.006  18.817  68.298  1.00  0.00    -0.304 OA 
ENDBRANCH   8   9
ENDBRANCH   2   8
TORSDOF 2
ENDMDL
MODEL      104
REMARK 921   NORMALIZED FREE ENERGY PREDICTED BY IDOCK:   -3.18 KCAL/MOL
REMARK 922        TOTAL FREE ENERGY PREDICTED BY IDOCK:   -3.60 KCAL/MOL
REMARK 923 INTER-LIGAND FREE ENERGY PREDICTED BY IDOCK:   -3.54 KCAL/MOL
REMARK 924 INTRA-LIGAND FREE ENERGY PREDICTED BY IDOCK:   -0.06 KCAL/MOL
REMARK 927      BINDING AFFINITY PREDICTED BY RF-SCORE:    0.00 PKD
ROOT
ATOM      1  N   GLU A   1     -10.021  10.082  67.707  1.00  0.00    -0.163 NA 
ATOM      2  CA  GLU A   1     -11.319  10.824  67.806  1.00  0.00    -0.279 C  
ATOM      3  H1  GLU A   1      -9.933   9.670  66.778  1.00  0.00     0.000 HD 
ATOM      4  H2  GLU A   1      -9.917   9.389  68.447  1.00  0.00     0.000 HD 
ATOM      5  OXT GLU A   1     -12.242  12.691  66.491  1.00  0.00    -0.538 OA 
ATOM      6  C   GLU A   1     -11.351  11.876  66.674  1.00  0.00    -0.337 C  
ATOM      7  O   GLU A   1     -10.260  11.778  65.875  1.00  0.00    -0.221 OA 
ENDROOT
BRANCH   2   8
ATOM      8  CB  GLU A   1     -11.452  11.443  69.201  1.00  0.00    -0.365 C  
BRANCH   8   9
ATOM      9  CG  GLU A   1     -11.711  10.415  70.307  1.00  0.00    -0.406 C  
ATOM     10  CD  GLU A   1     -12.779  10.888  71.260  1.00  0.00    -0.437 C  
ATOM     11  OE1 GLU A   1     -13.455   9.871  71.842  1.00  0.00    -0.397 OA 
ATOM     12  OE2 GLU A   1     -13.005  12.060  71.519  1.00  0.00    -0.397 OA 
ENDBRANCH   8   9
ENDBRANCH   2   8
TORSDOF 2
ENDMDL
MODEL      105
REMARK 921   NORMALIZED FREE ENERGY PREDICTED BY IDOCK:   -3.16 KCAL/MOL
REMARK 922        TOTAL FREE ENERGY PREDICTED BY IDOCK:   -3.58 KCAL/MOL
REMARK 923 INTER-LIGAND FREE ENERGY PREDICTED BY IDOCK:   -3.43 KCAL/MOL
REMARK 924 INTRA-LIGAND FREE ENERGY PREDICTED BY IDOCK:   -0.14 KCAL/MOL
REMARK 927      BINDING AFFINITY PREDICTED BY RF-SCORE:    0.00 PKD
ROOT
ATOM      1  N   GLU A   1      -9.013  17.003  68.363  1.00  0.00    -0.239 NA 
ATOM      2  CA  GLU A   1      -9.766  18.219  67.917  1.00  0.00    -0.303 C  
ATOM      3  H1  GLU A   1      -9.551  16.166  68.139  1.00  0.00     0.000 HD 
ATOM      4  H2  GLU A   1      -8.763  17.047  69.351  1.00  0.00     0.000 HD 
ATOM      5  OXT GLU A   1     -10.600  18.906  65.703  1.00  0.00    -0.575 OA 
ATOM      6  C   GLU A   1     -10.048  18.072  66.404  1.00  0.00    -0.384 C  
ATOM      7  O   GLU A   1      -9.622  16.873  65.935  1.00  0.00    -0.469 OA 
ENDROOT
BRANCH   2   8
ATOM      8  CB  GLU A   1      -8.957  19.476  68.254  1.00  0.00    -0.386 C  
BRANCH   8   9
ATOM      9  CG  GLU A   1      -7.473  19.367  67.890  1.00  0.00    -0.305 C  
ATOM     10  CD  GLU A   1      -6.596  19.492  69.110  1.00  0.00    -0.327 C  
ATOM     11  OE1 GLU A   1      -5.419  18.837  68.984  1.00  0.00    -0.197 OA 
ATOM     12  OE2 GLU A   1      -6.884  20.139  70.105  1.00  0.00    -0.248 OA 
ENDBRANCH   8   9
ENDBRANCH   2   8
TORSDOF 2
ENDMDL
MODEL      106
REMARK 921   NORMALIZED FREE ENERGY PREDICTED BY IDOCK:   -3.14 KCAL/MOL
REMARK 922        TOTAL FREE ENERGY PREDICTED BY IDOCK:   -3.56 KCAL/MOL
REMARK 923 INTER-LIGAND FREE ENERGY PREDICTED BY IDOCK:   -3.47 KCAL/MOL
REMARK 924 INTRA-LIGAND FREE ENERGY PREDICTED BY IDOCK:   -0.09 KCAL/MOL
REMARK 927      BINDING AFFINITY PREDICTED BY RF-SCORE:    0.00 PKD
ROOT
ATOM      1  N   GLU A   1     -11.550   8.638  70.245  1.00  0.00    -0.461 NA 
ATOM      2  CA  GLU A   1     -12.376   8.057  71.352  1.00  0.00    -0.306 C  
ATOM      3  H1  GLU A   1     -12.150   8.856  69.449  1.00  0.00     0.000 HD 
ATOM      4  H2  GLU A   1     -10.773   8.031  69.985  1.00  0.00     0.000 HD 
ATOM      5  OXT GLU A   1     -14.311   8.946  72.591  1.00  0.00    -0.613 OA 
ATOM      6  C   GLU A   1     -13.488   9.074  71.698  1.00  0.00    -0.386 C  
ATOM      7  O   GLU A   1     -13.459  10.142  70.863  1.00  0.00    -0.345 OA 
ENDROOT
BRANCH   2   8
ATOM      8  CB  GLU A   1     -11.475   7.729  72.547  1.00  0.00    -0.428 C  
BRANCH   8   9
ATOM      9  CG  GLU A   1     -10.091   8.382  72.470  1.00  0.00    -0.362 C  
ATOM     10  CD  GLU A   1      -9.107   7.701  73.387  1.00  0.00    -0.241 C  
ATOM     11  OE1 GLU A   1      -7.829   7.796  72.955  1.00  0.00    -0.102 OA 
ATOM     12  OE2 GLU A   1      -9.408   7.145  74.432  1.00  0.00    -0.225 OA 
ENDBRANCH   8   9
ENDBRANCH   2   8
TORSDOF 2
ENDMDL
MODEL      107
REMARK 921   NORMALIZED FREE ENERGY PREDICTED BY IDOCK:   -3.12 KCAL/MOL
REMARK 922        TOTAL FREE ENERGY PREDICTED BY IDOCK:   -3.54 KCAL/MOL
REMARK 923 INTER-LIGAND FREE ENERGY PREDICTED BY IDOCK:   -3.28 KCAL/MOL
REMARK 924 INTRA-LIGAND FREE ENERGY PREDICTED BY IDOCK:   -0.26 KCAL/MOL
REMARK 927      BINDING AFFINITY PREDICTED BY RF-SCORE:    0.00 PKD
ROOT
ATOM      1  N   GLU A   1     -12.553   6.375  72.311  1.00  0.00    -0.552 NA 
ATOM      2  CA  GLU A   1     -11.139   6.818  72.092  1.00  0.00    -0.250 C  
ATOM      3  H1  GLU A   1     -12.932   6.835  73.139  1.00  0.00     0.000 HD 
ATOM      4  H2  GLU A   1     -12.634   5.360  72.365  1.00  0.00     0.000 HD 
ATOM      5  OXT GLU A   1     -10.158   9.051  71.744  1.00  0.00    -0.326 OA 
ATOM      6  C   GLU A   1     -11.138   8.360  71.976  1.00  0.00    -0.327 C  
ATOM      7  O   GLU A   1     -12.375   8.873  72.188  1.00  0.00    -0.357 OA 
ENDROOT
BRANCH   2   8
ATOM      8  CB  GLU A   1     -10.571   6.126  70.849  1.00  0.00    -0.298 C  
BRANCH   8   9
ATOM      9  CG  GLU A   1     -11.470   6.247  69.614  1.00  0.00    -0.425 C  
ATOM     10  CD  GLU A   1     -10.757   6.934  68.478  1.00  0.00    -0.207 C  
ATOM     11  OE1 GLU A   1     -11.212   6.554  67.262  1.00  0.00    -0.376 OA 
ATOM     12  OE2 GLU A   1      -9.881   7.773  68.618  1.00  0.00    -0.161 OA 
ENDBRANCH   8   9
ENDBRANCH   2   8
TORSDOF 2
ENDMDL
MODEL      108
REMARK 921   NORMALIZED FREE ENERGY PREDICTED BY IDOCK:   -3.12 KCAL/MOL
REMARK 922        TOTAL FREE ENERGY PREDICTED BY IDOCK:   -3.54 KCAL/MOL
REMARK 923 INTER-LIGAND FREE ENERGY PREDICTED BY IDOCK:   -3.43 KCAL/MOL
REMARK 924 INTRA-LIGAND FREE ENERGY PREDICTED BY IDOCK:   -0.11 KCAL/MOL
REMARK 927      BINDING AFFINITY PREDICTED BY RF-SCORE:    0.00 PKD
ROOT
ATOM      1  N   GLU A   1     -12.016  15.760  68.525  1.00  0.00    -0.488 NA 
ATOM      2  CA  GLU A   1     -10.585  15.547  68.136  1.00  0.00    -0.266 C  
ATOM      3  H1  GLU A   1     -12.314  15.016  69.155  1.00  0.00     0.000 HD 
ATOM      4  H2  GLU A   1     -12.627  15.843  67.712  1.00  0.00     0.000 HD 
ATOM      5  OXT GLU A   1      -8.531  15.373  69.485  1.00  0.00    -0.256 OA 
ATOM      6  C   GLU A   1      -9.746  15.486  69.433  1.00  0.00    -0.283 C  
ATOM      7  O   GLU A   1     -10.533  15.553  70.536  1.00  0.00    -0.302 OA 
ENDROOT
BRANCH   2   8
ATOM      8  CB  GLU A   1     -10.138  16.666  67.189  1.00  0.00    -0.276 C  
BRANCH   8   9
ATOM      9  CG  GLU A   1     -10.054  18.040  67.859  1.00  0.00    -0.360 C  
ATOM     10  CD  GLU A   1      -9.704  19.119  66.865  1.00  0.00    -0.328 C  
ATOM     11  OE1 GLU A   1     -10.184  20.334  67.212  1.00  0.00    -0.412 OA 
ATOM     12  OE2 GLU A   1      -9.030  18.941  65.862  1.00  0.00    -0.455 OA 
ENDBRANCH   8   9
ENDBRANCH   2   8
TORSDOF 2
ENDMDL
MODEL      109
REMARK 921   NORMALIZED FREE ENERGY PREDICTED BY IDOCK:   -3.10 KCAL/MOL
REMARK 922        TOTAL FREE ENERGY PREDICTED BY IDOCK:   -3.52 KCAL/MOL
REMARK 923 INTER-LIGAND FREE ENERGY PREDICTED BY IDOCK:   -3.39 KCAL/MOL
REMARK 924 INTRA-LIGAND FREE ENERGY PREDICTED BY IDOCK:   -0.13 KCAL/MOL
REMARK 927      BINDING AFFINITY PREDICTED BY RF-SCORE:    0.00 PKD
ROOT
ATOM      1  N   GLU A   1     -12.505  10.575  69.211  1.00  0.00    -0.717 NA 
ATOM      2  CA  GLU A   1     -11.371  10.915  68.294  1.00  0.00    -0.308 C  
ATOM      3  H1  GLU A   1     -12.421   9.605  69.515  1.00  0.00     0.000 HD 
ATOM      4  H2  GLU A   1     -13.413  10.768  68.789  1.00  0.00     0.000 HD 
ATOM      5  OXT GLU A   1      -8.929  10.846  68.616  1.00  0.00    -0.150 OA 
ATOM      6  C   GLU A   1     -10.051  10.632  69.048  1.00  0.00    -0.213 C  
ATOM      7  O   GLU A   1     -10.284  10.086  70.267  1.00  0.00    -0.268 OA 
ENDROOT
BRANCH   2   8
ATOM      8  CB  GLU A   1     -11.497  12.373  67.839  1.00  0.00    -0.385 C  
BRANCH   8   9
ATOM      9  CG  GLU A   1     -11.411  13.384  68.987  1.00  0.00    -0.348 C  
ATOM     10  CD  GLU A   1     -11.598  14.796  68.494  1.00  0.00    -0.321 C  
ATOM     11  OE1 GLU A   1     -12.120  15.619  69.432  1.00  0.00    -0.356 OA 
ATOM     12  OE2 GLU A   1     -11.287  15.185  67.378  1.00  0.00    -0.328 OA 
ENDBRANCH   8   9
ENDBRANCH   2   8
TORSDOF 2
ENDMDL
MODEL      110
REMARK 921   NORMALIZED FREE ENERGY PREDICTED BY IDOCK:   -3.10 KCAL/MOL
REMARK 922        TOTAL FREE ENERGY PREDICTED BY IDOCK:   -3.52 KCAL/MOL
REMARK 923 INTER-LIGAND FREE ENERGY PREDICTED BY IDOCK:   -3.46 KCAL/MOL
REMARK 924 INTRA-LIGAND FREE ENERGY PREDICTED BY IDOCK:   -0.06 KCAL/MOL
REMARK 927      BINDING AFFINITY PREDICTED BY RF-SCORE:    0.00 PKD
ROOT
ATOM      1  N   GLU A   1      -9.831  16.033  67.143  1.00  0.00    -0.233 NA 
ATOM      2  CA  GLU A   1     -10.289  17.129  68.056  1.00  0.00    -0.353 C  
ATOM      3  H1  GLU A   1      -9.619  16.420  66.223  1.00  0.00     0.000 HD 
ATOM      4  H2  GLU A   1     -10.503  15.268  67.092  1.00  0.00     0.000 HD 
ATOM      5  OXT GLU A   1      -9.201  19.216  68.784  1.00  0.00    -0.360 OA 
ATOM      6  C   GLU A   1      -9.181  18.206  68.097  1.00  0.00    -0.291 C  
ATOM      7  O   GLU A   1      -8.167  17.906  67.248  1.00  0.00    -0.212 OA 
ENDROOT
BRANCH   2   8
ATOM      8  CB  GLU A   1     -10.608  16.548  69.437  1.00  0.00    -0.329 C  
BRANCH   8   9
ATOM      9  CG  GLU A   1     -11.924  15.765  69.485  1.00  0.00    -0.326 C  
ATOM     10  CD  GLU A   1     -12.421  15.607  70.899  1.00  0.00    -0.445 C  
ATOM     11  OE1 GLU A   1     -13.767  15.493  70.977  1.00  0.00    -0.546 OA 
ATOM     12  OE2 GLU A   1     -11.700  15.552  71.883  1.00  0.00    -0.365 OA 
ENDBRANCH   8   9
ENDBRANCH   2   8
TORSDOF 2
ENDMDL
MODEL      111
REMARK 921   NORMALIZED FREE ENERGY PREDICTED BY IDOCK:   -3.10 KCAL/MOL
REMARK 922        TOTAL FREE ENERGY PREDICTED BY IDOCK:   -3.51 KCAL/MOL
REMARK 923 INTER-LIGAND FREE ENERGY PREDICTED BY IDOCK:   -3.49 KCAL/MOL
REMARK 924 INTRA-LIGAND FREE ENERGY PREDICTED BY IDOCK:   -0.02 KCAL/MOL
REMARK 927      BINDING AFFINITY PREDICTED BY RF-SCORE:    0.00 PKD
ROOT
ATOM      1  N   GLU A   1     -12.097   7.270  70.254  1.00  0.00    -0.557 NA 
ATOM      2  CA  GLU A   1     -12.096   8.223  71.409  1.00  0.00    -0.300 C  
ATOM      3  H1  GLU A   1     -12.505   6.381  70.544  1.00  0.00     0.000 HD 
ATOM      4  H2  GLU A   1     -11.168   7.153  69.851  1.00  0.00     0.000 HD 
ATOM      5  OXT GLU A   1     -13.924   9.103  72.807  1.00  0.00    -0.450 OA 
ATOM      6  C   GLU A   1     -13.552   8.364  71.909  1.00  0.00    -0.379 C  
ATOM      7  O   GLU A   1     -14.389   7.538  71.234  1.00  0.00    -0.413 OA 
ENDROOT
BRANCH   2   8
ATOM      8  CB  GLU A   1     -11.483   9.559  70.973  1.00  0.00    -0.420 C  
BRANCH   8   9
ATOM      9  CG  GLU A   1     -10.155   9.409  70.225  1.00  0.00    -0.288 C  
ATOM     10  CD  GLU A   1      -9.083   8.831  71.114  1.00  0.00    -0.225 C  
ATOM     11  OE1 GLU A   1      -8.144   8.139  70.428  1.00  0.00    -0.103 OA 
ATOM     12  OE2 GLU A   1      -9.032   8.985  72.324  1.00  0.00    -0.360 OA 
ENDBRANCH   8   9
ENDBRANCH   2   8
TORSDOF 2
ENDMDL
MODEL      112
REMARK 921   NORMALIZED FREE ENERGY PREDICTED BY IDOCK:   -3.10 KCAL/MOL
REMARK 922        TOTAL FREE ENERGY PREDICTED BY IDOCK:   -3.51 KCAL/MOL
REMARK 923 INTER-LIGAND FREE ENERGY PREDICTED BY IDOCK:   -3.25 KCAL/MOL
REMARK 924 INTRA-LIGAND FREE ENERGY PREDICTED BY IDOCK:   -0.26 KCAL/MOL
REMARK 927      BINDING AFFINITY PREDICTED BY RF-SCORE:    0.00 PKD
ROOT
ATOM      1  N   GLU A   1     -11.516   7.579  73.217  1.00  0.00    -0.632 NA 
ATOM      2  CA  GLU A   1     -12.141   7.706  71.862  1.00  0.00    -0.298 C  
ATOM      3  H1  GLU A   1     -11.715   6.654  73.600  1.00  0.00     0.000 HD 
ATOM      4  H2  GLU A   1     -11.808   8.325  73.847  1.00  0.00     0.000 HD 
ATOM      5  OXT GLU A   1     -11.856   6.392  69.797  1.00  0.00    -0.357 OA 
ATOM      6  C   GLU A   1     -11.596   6.560  70.979  1.00  0.00    -0.348 C  
ATOM      7  O   GLU A   1     -10.791   5.729  71.687  1.00  0.00    -0.248 OA 
ENDROOT
BRANCH   2   8
ATOM      8  CB  GLU A   1     -11.843   9.095  71.288  1.00  0.00    -0.396 C  
BRANCH   8   9
ATOM      9  CG  GLU A   1     -10.350   9.363  71.073  1.00  0.00    -0.382 C  
ATOM     10  CD  GLU A   1     -10.059   9.753  69.646  1.00  0.00    -0.229 C  
ATOM     11  OE1 GLU A   1      -8.970  10.546  69.526  1.00  0.00    -0.145 OA 
ATOM     12  OE2 GLU A   1     -10.706   9.376  68.681  1.00  0.00    -0.213 OA 
ENDBRANCH   8   9
ENDBRANCH   2   8
TORSDOF 2
ENDMDL
MODEL      113
REMARK 921   NORMALIZED FREE ENERGY PREDICTED BY IDOCK:   -3.09 KCAL/MOL
REMARK 922        TOTAL FREE ENERGY PREDICTED BY IDOCK:   -3.51 KCAL/MOL
REMARK 923 INTER-LIGAND FREE ENERGY PREDICTED BY IDOCK:   -3.31 KCAL/MOL
REMARK 924 INTRA-LIGAND FREE ENERGY PREDICTED BY IDOCK:   -0.20 KCAL/MOL
REMARK 927      BINDING AFFINITY PREDICTED BY RF-SCORE:    0.00 PKD
ROOT
ATOM      1  N   GLU A   1     -11.240   6.501  73.352  1.00  0.00    -0.462 NA 
ATOM      2  CA  GLU A   1     -11.036   7.181  72.033  1.00  0.00    -0.245 C  
ATOM      3  H1  GLU A   1     -10.384   6.017  73.623  1.00  0.00     0.000 HD 
ATOM      4  H2  GLU A   1     -12.047   5.878  73.343  1.00  0.00     0.000 HD 
ATOM      5  OXT GLU A   1      -9.411   8.883  71.302  1.00  0.00    -0.225 OA 
ATOM      6  C   GLU A   1      -9.826   8.132  72.172  1.00  0.00    -0.246 C  
ATOM      7  O   GLU A   1      -9.247   8.022  73.393  1.00  0.00    -0.266 OA 
ENDROOT
BRANCH   2   8
ATOM      8  CB  GLU A   1     -12.322   7.909  71.626  1.00  0.00    -0.344 C  
BRANCH   8   9
ATOM      9  CG  GLU A   1     -12.591   9.180  72.437  1.00  0.00    -0.381 C  
ATOM     10  CD  GLU A   1     -12.695  10.391  71.546  1.00  0.00    -0.459 C  
ATOM     11  OE1 GLU A   1     -13.484  11.361  72.062  1.00  0.00    -0.393 OA 
ATOM     12  OE2 GLU A   1     -12.111  10.518  70.481  1.00  0.00    -0.289 OA 
ENDBRANCH   8   9
ENDBRANCH   2   8
TORSDOF 2
ENDMDL
MODEL      114
REMARK 921   NORMALIZED FREE ENERGY PREDICTED BY IDOCK:   -3.09 KCAL/MOL
REMARK 922        TOTAL FREE ENERGY PREDICTED BY IDOCK:   -3.51 KCAL/MOL
REMARK 923 INTER-LIGAND FREE ENERGY PREDICTED BY IDOCK:   -3.42 KCAL/MOL
REMARK 924 INTRA-LIGAND FREE ENERGY PREDICTED BY IDOCK:   -0.09 KCAL/MOL
REMARK 927      BINDING AFFINITY PREDICTED BY RF-SCORE:    0.00 PKD
ROOT
ATOM      1  N   GLU A   1      -9.845   7.924  70.115  1.00  0.00    -0.184 NA 
ATOM      2  CA  GLU A   1     -10.572   7.744  71.412  1.00  0.00    -0.213 C  
ATOM      3  H1  GLU A   1      -9.413   7.042  69.839  1.00  0.00     0.000 HD 
ATOM      4  H2  GLU A   1      -9.169   8.686  70.155  1.00  0.00     0.000 HD 
ATOM      5  OXT GLU A   1     -12.398   6.226  72.068  1.00  0.00    -0.328 OA 
ATOM      6  C   GLU A   1     -11.598   6.603  71.226  1.00  0.00    -0.323 C  
ATOM      7  O   GLU A   1     -11.496   6.040  69.996  1.00  0.00    -0.372 OA 
ENDROOT
BRANCH   2   8
ATOM      8  CB  GLU A   1     -11.220   9.069  71.826  1.00  0.00    -0.448 C  
BRANCH   8   9
ATOM      9  CG  GLU A   1     -11.357  10.071  70.675  1.00  0.00    -0.425 C  
ATOM     10  CD  GLU A   1     -12.344  11.161  71.006  1.00  0.00    -0.382 C  
ATOM     11  OE1 GLU A   1     -12.081  12.324  70.368  1.00  0.00    -0.355 OA 
ATOM     12  OE2 GLU A   1     -13.306  11.020  71.745  1.00  0.00    -0.390 OA 
ENDBRANCH   8   9
ENDBRANCH   2   8
TORSDOF 2
ENDMDL
MODEL      115
REMARK 921   NORMALIZED FREE ENERGY PREDICTED BY IDOCK:   -3.09 KCAL/MOL
REMARK 922        TOTAL FREE ENERGY PREDICTED BY IDOCK:   -3.51 KCAL/MOL
REMARK 923 INTER-LIGAND FREE ENERGY PREDICTED BY IDOCK:   -3.19 KCAL/MOL
REMARK 924 INTRA-LIGAND FREE ENERGY PREDICTED BY IDOCK:   -0.32 KCAL/MOL
REMARK 927      BINDING AFFINITY PREDICTED BY RF-SCORE:    0.00 PKD
ROOT
ATOM      1  N   GLU A   1      -8.787  15.056  68.245  1.00  0.00    -0.167 NA 
ATOM      2  CA  GLU A   1     -10.025  15.726  67.735  1.00  0.00    -0.227 C  
ATOM      3  H1  GLU A   1      -7.964  15.497  67.832  1.00  0.00     0.000 HD 
ATOM      4  H2  GLU A   1      -8.802  14.049  68.089  1.00  0.00     0.000 HD 
ATOM      5  OXT GLU A   1     -10.780  18.070  67.836  1.00  0.00    -0.395 OA 
ATOM      6  C   GLU A   1      -9.920  17.233  68.065  1.00  0.00    -0.304 C  
ATOM      7  O   GLU A   1      -8.725  17.533  68.632  1.00  0.00    -0.279 OA 
ENDROOT
BRANCH   2   8
ATOM      8  CB  GLU A   1     -11.260  15.065  68.355  1.00  0.00    -0.303 C  
BRANCH   8   9
ATOM      9  CG  GLU A   1     -11.818  13.906  67.523  1.00  0.00    -0.431 C  
ATOM     10  CD  GLU A   1     -11.393  12.571  68.081  1.00  0.00    -0.295 C  
ATOM     11  OE1 GLU A   1     -12.274  11.581  67.812  1.00  0.00    -0.560 OA 
ATOM     12  OE2 GLU A   1     -10.351  12.376  68.688  1.00  0.00    -0.225 OA 
ENDBRANCH   8   9
ENDBRANCH   2   8
TORSDOF 2
ENDMDL
MODEL      116
REMARK 921   NORMALIZED FREE ENERGY PREDICTED BY IDOCK:   -3.09 KCAL/MOL
REMARK 922        TOTAL FREE ENERGY PREDICTED BY IDOCK:   -3.50 KCAL/MOL
REMARK 923 INTER-LIGAND FREE ENERGY PREDICTED BY IDOCK:   -3.39 KCAL/MOL
REMARK 924 INTRA-LIGAND FREE ENERGY PREDICTED BY IDOCK:   -0.11 KCAL/MOL
REMARK 927      BINDING AFFINITY PREDICTED BY RF-SCORE:    0.00 PKD
ROOT
ATOM      1  N   GLU A   1      -7.520  19.414  69.076  1.00  0.00    -0.364 NA 
ATOM      2  CA  GLU A   1      -8.415  18.941  67.972  1.00  0.00    -0.295 C  
ATOM      3  H1  GLU A   1      -6.574  19.542  68.719  1.00  0.00     0.000 HD 
ATOM      4  H2  GLU A   1      -7.545  18.792  69.884  1.00  0.00     0.000 HD 
ATOM      5  OXT GLU A   1      -8.984  19.931  65.788  1.00  0.00    -0.329 OA 
ATOM      6  C   GLU A   1      -8.340  19.976  66.825  1.00  0.00    -0.323 C  
ATOM      7  O   GLU A   1      -7.440  20.953  67.098  1.00  0.00    -0.339 OA 
ENDROOT
BRANCH   2   8
ATOM      8  CB  GLU A   1      -9.837  18.749  68.509  1.00  0.00    -0.444 C  
BRANCH   8   9
ATOM      9  CG  GLU A   1     -10.615  17.635  67.801  1.00  0.00    -0.380 C  
ATOM     10  CD  GLU A   1     -10.745  16.412  68.673  1.00  0.00    -0.317 C  
ATOM     11  OE1 GLU A   1     -11.853  15.684  68.401  1.00  0.00    -0.346 OA 
ATOM     12  OE2 GLU A   1      -9.930  16.077  69.519  1.00  0.00    -0.256 OA 
ENDBRANCH   8   9
ENDBRANCH   2   8
TORSDOF 2
ENDMDL
MODEL      117
REMARK 921   NORMALIZED FREE ENERGY PREDICTED BY IDOCK:   -3.09 KCAL/MOL
REMARK 922        TOTAL FREE ENERGY PREDICTED BY IDOCK:   -3.50 KCAL/MOL
REMARK 923 INTER-LIGAND FREE ENERGY PREDICTED BY IDOCK:   -3.40 KCAL/MOL
REMARK 924 INTRA-LIGAND FREE ENERGY PREDICTED BY IDOCK:   -0.11 KCAL/MOL
REMARK 927      BINDING AFFINITY PREDICTED BY RF-SCORE:    0.00 PKD
ROOT
ATOM      1  N   GLU A   1     -11.524  10.718  68.346  1.00  0.00    -0.400 NA 
ATOM      2  CA  GLU A   1     -11.807  12.167  68.601  1.00  0.00    -0.306 C  
ATOM      3  H1  GLU A   1     -11.724  10.497  67.371  1.00  0.00     0.000 HD 
ATOM      4  H2  GLU A   1     -12.030  10.109  68.989  1.00  0.00     0.000 HD 
ATOM      5  OXT GLU A   1     -10.903  14.216  67.574  1.00  0.00    -0.269 OA 
ATOM      6  C   GLU A   1     -10.958  12.996  67.611  1.00  0.00    -0.254 C  
ATOM      7  O   GLU A   1     -10.278  12.197  66.751  1.00  0.00    -0.202 OA 
ENDROOT
BRANCH   2   8
ATOM      8  CB  GLU A   1     -11.507  12.499  70.067  1.00  0.00    -0.095 C  
BRANCH   8   9
ATOM      9  CG  GLU A   1     -12.445  13.554  70.661  1.00  0.00    -0.405 C  
ATOM     10  CD  GLU A   1     -13.091  13.066  71.933  1.00  0.00    -0.384 C  
ATOM     11  OE1 GLU A   1     -13.411  14.070  72.782  1.00  0.00    -0.576 OA 
ATOM     12  OE2 GLU A   1     -13.337  11.895  72.177  1.00  0.00    -0.503 OA 
ENDBRANCH   8   9
ENDBRANCH   2   8
TORSDOF 2
ENDMDL
MODEL      118
REMARK 921   NORMALIZED FREE ENERGY PREDICTED BY IDOCK:   -3.08 KCAL/MOL
REMARK 922        TOTAL FREE ENERGY PREDICTED BY IDOCK:   -3.50 KCAL/MOL
REMARK 923 INTER-LIGAND FREE ENERGY PREDICTED BY IDOCK:   -3.38 KCAL/MOL
REMARK 924 INTRA-LIGAND FREE ENERGY PREDICTED BY IDOCK:   -0.11 KCAL/MOL
REMARK 927      BINDING AFFINITY PREDICTED BY RF-SCORE:    0.00 PKD
ROOT
ATOM      1  N   GLU A   1     -12.148   8.535  70.560  1.00  0.00    -0.482 NA 
ATOM      2  CA  GLU A   1     -12.169   7.056  70.796  1.00  0.00    -0.295 C  
ATOM      3  H1  GLU A   1     -12.662   9.008  71.304  1.00  0.00     0.000 HD 
ATOM      4  H2  GLU A   1     -12.498   8.782  69.635  1.00  0.00     0.000 HD 
ATOM      5  OXT GLU A   1     -11.396   5.690  72.695  1.00  0.00    -0.285 OA 
ATOM      6  C   GLU A   1     -11.577   6.791  72.199  1.00  0.00    -0.288 C  
ATOM      7  O   GLU A   1     -11.291   7.950  72.843  1.00  0.00    -0.406 OA 
ENDROOT
BRANCH   2   8
ATOM      8  CB  GLU A   1     -11.397   6.347  69.678  1.00  0.00    -0.479 C  
BRANCH   8   9
ATOM      9  CG  GLU A   1     -10.504   7.283  68.859  1.00  0.00    -0.216 C  
ATOM     10  CD  GLU A   1     -10.680   7.059  67.379  1.00  0.00    -0.313 C  
ATOM     11  OE1 GLU A   1     -10.429   8.165  66.642  1.00  0.00    -0.303 OA 
ATOM     12  OE2 GLU A   1     -10.984   5.989  66.874  1.00  0.00    -0.318 OA 
ENDBRANCH   8   9
ENDBRANCH   2   8
TORSDOF 2
ENDMDL
MODEL      119
REMARK 921   NORMALIZED FREE ENERGY PREDICTED BY IDOCK:   -3.06 KCAL/MOL
REMARK 922        TOTAL FREE ENERGY PREDICTED BY IDOCK:   -3.48 KCAL/MOL
REMARK 923 INTER-LIGAND FREE ENERGY PREDICTED BY IDOCK:   -3.21 KCAL/MOL
REMARK 924 INTRA-LIGAND FREE ENERGY PREDICTED BY IDOCK:   -0.27 KCAL/MOL
REMARK 927      BINDING AFFINITY PREDICTED BY RF-SCORE:    0.00 PKD
ROOT
ATOM      1  N   GLU A   1      -8.844  12.525  66.119  1.00  0.00    -0.418 NA 
ATOM      2  CA  GLU A   1      -9.526  12.179  67.408  1.00  0.00    -0.179 C  
ATOM      3  H1  GLU A   1      -7.921  12.912  66.314  1.00  0.00     0.000 HD 
ATOM      4  H2  GLU A   1      -9.408  13.147  65.541  1.00  0.00     0.000 HD 
ATOM      5  OXT GLU A   1      -8.881  10.672  69.248  1.00  0.00    -0.153 OA 
ATOM      6  C   GLU A   1      -8.612  11.199  68.179  1.00  0.00    -0.140 C  
ATOM      7  O   GLU A   1      -7.438  11.000  67.529  1.00  0.00    -0.096 OA 
ENDROOT
BRANCH   2   8
ATOM      8  CB  GLU A   1     -10.913  11.596  67.115  1.00  0.00    -0.330 C  
BRANCH   8   9
ATOM      9  CG  GLU A   1     -11.876  12.599  66.473  1.00  0.00    -0.463 C  
ATOM     10  CD  GLU A   1     -12.138  12.264  65.026  1.00  0.00    -0.327 C  
ATOM     11  OE1 GLU A   1     -13.351  12.683  64.597  1.00  0.00    -0.767 OA 
ATOM     12  OE2 GLU A   1     -11.340  11.702  64.292  1.00  0.00    -0.332 OA 
ENDBRANCH   8   9
ENDBRANCH   2   8
TORSDOF 2
ENDMDL
MODEL      120
REMARK 921   NORMALIZED FREE ENERGY PREDICTED BY IDOCK:   -3.06 KCAL/MOL
REMARK 922        TOTAL FREE ENERGY PREDICTED BY IDOCK:   -3.47 KCAL/MOL
REMARK 923 INTER-LIGAND FREE ENERGY PREDICTED BY IDOCK:   -3.31 KCAL/MOL
REMARK 924 INTRA-LIGAND FREE ENERGY PREDICTED BY IDOCK:   -0.16 KCAL/MOL
REMARK 927      BINDING AFFINITY PREDICTED BY RF-SCORE:    0.00 PKD
ROOT
ATOM      1  N   GLU A   1      -9.137   7.555  74.421  1.00  0.00    -0.431 NA 
ATOM      2  CA  GLU A   1     -10.431   7.136  73.795  1.00  0.00    -0.329 C  
ATOM      3  H1  GLU A   1      -8.966   7.001  75.260  1.00  0.00     0.000 HD 
ATOM      4  H2  GLU A   1      -9.107   8.557  74.610  1.00  0.00     0.000 HD 
ATOM      5  OXT GLU A   1     -11.212   4.956  72.953  1.00  0.00    -0.260 OA 
ATOM      6  C   GLU A   1     -10.349   5.619  73.508  1.00  0.00    -0.233 C  
ATOM      7  O   GLU A   1      -9.190   5.089  73.971  1.00  0.00    -0.118 OA 
ENDROOT
BRANCH   2   8
ATOM      8  CB  GLU A   1     -10.687   7.969  72.535  1.00  0.00    -0.407 C  
BRANCH   8   9
ATOM      9  CG  GLU A   1     -12.161   8.328  72.325  1.00  0.00    -0.428 C  
ATOM     10  CD  GLU A   1     -12.826   7.387  71.353  1.00  0.00    -0.365 C  
ATOM     11  OE1 GLU A   1     -14.154   7.253  71.571  1.00  0.00    -0.419 OA 
ATOM     12  OE2 GLU A   1     -12.251   6.821  70.437  1.00  0.00    -0.324 OA 
ENDBRANCH   8   9
ENDBRANCH   2   8
TORSDOF 2
ENDMDL
MODEL      121
REMARK 921   NORMALIZED FREE ENERGY PREDICTED BY IDOCK:   -3.04 KCAL/MOL
REMARK 922        TOTAL FREE ENERGY PREDICTED BY IDOCK:   -3.45 KCAL/MOL
REMARK 923 INTER-LIGAND FREE ENERGY PREDICTED BY IDOCK:   -3.22 KCAL/MOL
REMARK 924 INTRA-LIGAND FREE ENERGY PREDICTED BY IDOCK:   -0.24 KCAL/MOL
REMARK 927      BINDING AFFINITY PREDICTED BY RF-SCORE:    0.00 PKD
ROOT
ATOM      1  N   GLU A   1     -12.035  11.433  68.010  1.00  0.00    -0.640 NA 
ATOM      2  CA  GLU A   1     -11.627  11.733  66.600  1.00  0.00    -0.197 C  
ATOM      3  H1  GLU A   1     -11.838  10.455  68.222  1.00  0.00     0.000 HD 
ATOM      4  H2  GLU A   1     -13.009  11.676  68.188  1.00  0.00     0.000 HD 
ATOM      5  OXT GLU A   1      -9.458  11.542  65.448  1.00  0.00    -0.224 OA 
ATOM      6  C   GLU A   1     -10.130  11.375  66.454  1.00  0.00    -0.218 C  
ATOM      7  O   GLU A   1      -9.640  10.822  67.590  1.00  0.00    -0.157 OA 
ENDROOT
BRANCH   2   8
ATOM      8  CB  GLU A   1     -11.924  13.202  66.281  1.00  0.00    -0.473 C  
BRANCH   8   9
ATOM      9  CG  GLU A   1     -11.551  14.163  67.414  1.00  0.00    -0.399 C  
ATOM     10  CD  GLU A   1     -10.576  15.215  66.948  1.00  0.00    -0.297 C  
ATOM     11  OE1 GLU A   1     -10.672  16.370  67.644  1.00  0.00    -0.322 OA 
ATOM     12  OE2 GLU A   1      -9.755  15.050  66.058  1.00  0.00    -0.289 OA 
ENDBRANCH   8   9
ENDBRANCH   2   8
TORSDOF 2
ENDMDL
MODEL      122
REMARK 921   NORMALIZED FREE ENERGY PREDICTED BY IDOCK:   -3.03 KCAL/MOL
REMARK 922        TOTAL FREE ENERGY PREDICTED BY IDOCK:   -3.44 KCAL/MOL
REMARK 923 INTER-LIGAND FREE ENERGY PREDICTED BY IDOCK:   -3.33 KCAL/MOL
REMARK 924 INTRA-LIGAND FREE ENERGY PREDICTED BY IDOCK:   -0.12 KCAL/MOL
REMARK 927      BINDING AFFINITY PREDICTED BY RF-SCORE:    0.00 PKD
ROOT
ATOM      1  N   GLU A   1     -11.948   5.267  72.893  1.00  0.00    -0.448 NA 
ATOM      2  CA  GLU A   1     -10.947   5.899  71.975  1.00  0.00    -0.266 C  
ATOM      3  H1  GLU A   1     -11.464   4.828  73.676  1.00  0.00     0.000 HD 
ATOM      4  H2  GLU A   1     -12.559   4.613  72.404  1.00  0.00     0.000 HD 
ATOM      5  OXT GLU A   1      -9.237   7.631  72.361  1.00  0.00    -0.137 OA 
ATOM      6  C   GLU A   1     -10.111   6.902  72.804  1.00  0.00    -0.177 C  
ATOM      7  O   GLU A   1     -10.452   6.865  74.116  1.00  0.00    -0.357 OA 
ENDROOT
BRANCH   2   8
ATOM      8  CB  GLU A   1     -11.674   6.559  70.798  1.00  0.00    -0.427 C  
BRANCH   8   9
ATOM      9  CG  GLU A   1     -12.158   7.981  71.095  1.00  0.00    -0.284 C  
ATOM     10  CD  GLU A   1     -13.512   7.975  71.759  1.00  0.00    -0.341 C  
ATOM     11  OE1 GLU A   1     -13.716   9.050  72.555  1.00  0.00    -0.472 OA 
ATOM     12  OE2 GLU A   1     -14.363   7.117  71.584  1.00  0.00    -0.417 OA 
ENDBRANCH   8   9
ENDBRANCH   2   8
TORSDOF 2
ENDMDL
MODEL      123
REMARK 921   NORMALIZED FREE ENERGY PREDICTED BY IDOCK:   -3.00 KCAL/MOL
REMARK 922        TOTAL FREE ENERGY PREDICTED BY IDOCK:   -3.40 KCAL/MOL
REMARK 923 INTER-LIGAND FREE ENERGY PREDICTED BY IDOCK:   -3.28 KCAL/MOL
REMARK 924 INTRA-LIGAND FREE ENERGY PREDICTED BY IDOCK:   -0.12 KCAL/MOL
REMARK 927      BINDING AFFINITY PREDICTED BY RF-SCORE:    0.00 PKD
ROOT
ATOM      1  N   GLU A   1     -12.396  10.624  68.870  1.00  0.00    -0.790 NA 
ATOM      2  CA  GLU A   1     -11.156  11.465  68.889  1.00  0.00    -0.233 C  
ATOM      3  H1  GLU A   1     -13.208  11.215  68.691  1.00  0.00     0.000 HD 
ATOM      4  H2  GLU A   1     -12.501  10.075  69.722  1.00  0.00     0.000 HD 
ATOM      5  OXT GLU A   1     -10.157  12.947  67.194  1.00  0.00    -0.237 OA 
ATOM      6  C   GLU A   1     -11.070  12.213  67.539  1.00  0.00    -0.275 C  
ATOM      7  O   GLU A   1     -12.159  11.971  66.768  1.00  0.00    -0.613 OA 
ENDROOT
BRANCH   2   8
ATOM      8  CB  GLU A   1      -9.937  10.576  69.158  1.00  0.00    -0.236 C  
BRANCH   8   9
ATOM      9  CG  GLU A   1      -9.561   9.677  67.977  1.00  0.00    -0.161 C  
ATOM     10  CD  GLU A   1     -10.337   8.385  67.998  1.00  0.00    -0.215 C  
ATOM     11  OE1 GLU A   1     -10.517   7.855  66.766  1.00  0.00    -0.327 OA 
ATOM     12  OE2 GLU A   1     -10.743   7.839  69.012  1.00  0.00    -0.195 OA 
ENDBRANCH   8   9
ENDBRANCH   2   8
TORSDOF 2
ENDMDL
MODEL      124
REMARK 921   NORMALIZED FREE ENERGY PREDICTED BY IDOCK:   -3.00 KCAL/MOL
REMARK 922        TOTAL FREE ENERGY PREDICTED BY IDOCK:   -3.40 KCAL/MOL
REMARK 923 INTER-LIGAND FREE ENERGY PREDICTED BY IDOCK:   -3.17 KCAL/MOL
REMARK 924 INTRA-LIGAND FREE ENERGY PREDICTED BY IDOCK:   -0.23 KCAL/MOL
REMARK 927      BINDING AFFINITY PREDICTED BY RF-SCORE:    0.00 PKD
ROOT
ATOM      1  N   GLU A   1     -13.436   9.824  70.799  1.00  0.00    -0.588 NA 
ATOM      2  CA  GLU A   1     -12.032   9.537  71.237  1.00  0.00    -0.365 C  
ATOM      3  H1  GLU A   1     -13.541  10.822  70.619  1.00  0.00     0.000 HD 
ATOM      4  H2  GLU A   1     -14.125   9.478  71.466  1.00  0.00     0.000 HD 
ATOM      5  OXT GLU A   1      -9.861   9.940  70.144  1.00  0.00    -0.247 OA 
ATOM      6  C   GLU A   1     -11.077  10.055  70.138  1.00  0.00    -0.310 C  
ATOM      7  O   GLU A   1     -11.757  10.687  69.148  1.00  0.00    -0.283 OA 
ENDROOT
BRANCH   2   8
ATOM      8  CB  GLU A   1     -11.874   8.037  71.507  1.00  0.00    -0.328 C  
BRANCH   8   9
ATOM      9  CG  GLU A   1     -11.276   7.720  72.881  1.00  0.00    -0.434 C  
ATOM     10  CD  GLU A   1      -9.789   7.489  72.796  1.00  0.00    -0.208 C  
ATOM     11  OE1 GLU A   1      -9.139   7.799  73.941  1.00  0.00    -0.268 OA 
ATOM     12  OE2 GLU A   1      -9.215   7.038  71.817  1.00  0.00    -0.142 OA 
ENDBRANCH   8   9
ENDBRANCH   2   8
TORSDOF 2
ENDMDL
MODEL      125
REMARK 921   NORMALIZED FREE ENERGY PREDICTED BY IDOCK:   -2.99 KCAL/MOL
REMARK 922        TOTAL FREE ENERGY PREDICTED BY IDOCK:   -3.39 KCAL/MOL
REMARK 923 INTER-LIGAND FREE ENERGY PREDICTED BY IDOCK:   -3.08 KCAL/MOL
REMARK 924 INTRA-LIGAND FREE ENERGY PREDICTED BY IDOCK:   -0.31 KCAL/MOL
REMARK 927      BINDING AFFINITY PREDICTED BY RF-SCORE:    0.00 PKD
ROOT
ATOM      1  N   GLU A   1      -9.746   7.373  71.669  1.00  0.00    -0.155 NA 
ATOM      2  CA  GLU A   1     -10.919   6.971  72.510  1.00  0.00    -0.264 C  
ATOM      3  H1  GLU A   1      -8.884   7.053  72.110  1.00  0.00     0.000 HD 
ATOM      4  H2  GLU A   1      -9.734   8.375  71.481  1.00  0.00     0.000 HD 
ATOM      5  OXT GLU A   1     -11.702   4.765  73.281  1.00  0.00    -0.312 OA 
ATOM      6  C   GLU A   1     -10.869   5.436  72.691  1.00  0.00    -0.256 C  
ATOM      7  O   GLU A   1      -9.755   4.907  72.125  1.00  0.00    -0.153 OA 
ENDROOT
BRANCH   2   8
ATOM      8  CB  GLU A   1     -12.215   7.451  71.848  1.00  0.00    -0.344 C  
BRANCH   8   9
ATOM      9  CG  GLU A   1     -12.761   8.753  72.441  1.00  0.00    -0.433 C  
ATOM     10  CD  GLU A   1     -12.343   9.949  71.625  1.00  0.00    -0.406 C  
ATOM     11  OE1 GLU A   1     -13.220  10.977  71.705  1.00  0.00    -0.414 OA 
ATOM     12  OE2 GLU A   1     -11.309  10.017  70.978  1.00  0.00    -0.347 OA 
ENDBRANCH   8   9
ENDBRANCH   2   8
TORSDOF 2
ENDMDL
MODEL      126
REMARK 921   NORMALIZED FREE ENERGY PREDICTED BY IDOCK:   -2.99 KCAL/MOL
REMARK 922        TOTAL FREE ENERGY PREDICTED BY IDOCK:   -3.39 KCAL/MOL
REMARK 923 INTER-LIGAND FREE ENERGY PREDICTED BY IDOCK:   -3.32 KCAL/MOL
REMARK 924 INTRA-LIGAND FREE ENERGY PREDICTED BY IDOCK:   -0.07 KCAL/MOL
REMARK 927      BINDING AFFINITY PREDICTED BY RF-SCORE:    0.00 PKD
ROOT
ATOM      1  N   GLU A   1      -8.603  14.143  67.727  1.00  0.00    -0.172 NA 
ATOM      2  CA  GLU A   1      -8.860  15.057  66.569  1.00  0.00    -0.251 C  
ATOM      3  H1  GLU A   1      -7.609  13.919  67.773  1.00  0.00     0.000 HD 
ATOM      4  H2  GLU A   1      -9.184  13.305  67.693  1.00  0.00     0.000 HD 
ATOM      5  OXT GLU A   1      -7.962  17.282  66.009  1.00  0.00    -0.462 OA 
ATOM      6  C   GLU A   1      -7.969  16.308  66.746  1.00  0.00    -0.271 C  
ATOM      7  O   GLU A   1      -7.160  16.191  67.828  1.00  0.00    -0.121 OA 
ENDROOT
BRANCH   2   8
ATOM      8  CB  GLU A   1     -10.353  15.392  66.500  1.00  0.00    -0.293 C  
BRANCH   8   9
ATOM      9  CG  GLU A   1     -10.839  15.747  65.091  1.00  0.00    -0.444 C  
ATOM     10  CD  GLU A   1     -12.028  14.911  64.691  1.00  0.00    -0.401 C  
ATOM     11  OE1 GLU A   1     -12.837  15.534  63.804  1.00  0.00    -0.526 OA 
ATOM     12  OE2 GLU A   1     -12.241  13.776  65.090  1.00  0.00    -0.385 OA 
ENDBRANCH   8   9
ENDBRANCH   2   8
TORSDOF 2
ENDMDL
MODEL      127
REMARK 921   NORMALIZED FREE ENERGY PREDICTED BY IDOCK:   -2.99 KCAL/MOL
REMARK 922        TOTAL FREE ENERGY PREDICTED BY IDOCK:   -3.39 KCAL/MOL
REMARK 923 INTER-LIGAND FREE ENERGY PREDICTED BY IDOCK:   -3.16 KCAL/MOL
REMARK 924 INTRA-LIGAND FREE ENERGY PREDICTED BY IDOCK:   -0.23 KCAL/MOL
REMARK 927      BINDING AFFINITY PREDICTED BY RF-SCORE:    0.00 PKD
ROOT
ATOM      1  N   GLU A   1     -10.697  16.800  64.966  1.00  0.00    -0.697 NA 
ATOM      2  CA  GLU A   1      -9.733  16.202  65.944  1.00  0.00    -0.340 C  
ATOM      3  H1  GLU A   1     -10.556  16.380  64.047  1.00  0.00     0.000 HD 
ATOM      4  H2  GLU A   1     -10.636  17.817  64.937  1.00  0.00     0.000 HD 
ATOM      5  OXT GLU A   1      -9.359  13.875  66.662  1.00  0.00    -0.269 OA 
ATOM      6  C   GLU A   1      -9.944  14.671  65.943  1.00  0.00    -0.328 C  
ATOM      7  O   GLU A   1     -10.860  14.298  65.016  1.00  0.00    -0.355 OA 
ENDROOT
BRANCH   2   8
ATOM      8  CB  GLU A   1      -9.945  16.833  67.325  1.00  0.00    -0.272 C  
BRANCH   8   9
ATOM      9  CG  GLU A   1      -8.655  17.355  67.965  1.00  0.00    -0.240 C  
ATOM     10  CD  GLU A   1      -8.053  16.338  68.902  1.00  0.00    -0.231 C  
ATOM     11  OE1 GLU A   1      -6.710  16.453  69.014  1.00  0.00    -0.166 OA 
ATOM     12  OE2 GLU A   1      -8.696  15.511  69.529  1.00  0.00    -0.261 OA 
ENDBRANCH   8   9
ENDBRANCH   2   8
TORSDOF 2
ENDMDL
MODEL      128
REMARK 921   NORMALIZED FREE ENERGY PREDICTED BY IDOCK:   -2.98 KCAL/MOL
REMARK 922        TOTAL FREE ENERGY PREDICTED BY IDOCK:   -3.39 KCAL/MOL
REMARK 923 INTER-LIGAND FREE ENERGY PREDICTED BY IDOCK:   -3.26 KCAL/MOL
REMARK 924 INTRA-LIGAND FREE ENERGY PREDICTED BY IDOCK:   -0.13 KCAL/MOL
REMARK 927      BINDING AFFINITY PREDICTED BY RF-SCORE:    0.00 PKD
ROOT
ATOM      1  N   GLU A   1      -9.545  13.870  65.530  1.00  0.00    -0.529 NA 
ATOM      2  CA  GLU A   1      -9.758  14.966  66.528  1.00  0.00    -0.276 C  
ATOM      3  H1  GLU A   1      -9.687  12.966  65.979  1.00  0.00     0.000 HD 
ATOM      4  H2  GLU A   1      -8.634  13.935  65.076  1.00  0.00     0.000 HD 
ATOM      5  OXT GLU A   1     -11.703  15.556  67.921  1.00  0.00    -0.293 OA 
ATOM      6  C   GLU A   1     -11.179  14.803  67.115  1.00  0.00    -0.343 C  
ATOM      7  O   GLU A   1     -11.787  13.689  66.637  1.00  0.00    -0.364 OA 
ENDROOT
BRANCH   2   8
ATOM      8  CB  GLU A   1      -9.544  16.325  65.853  1.00  0.00    -0.336 C  
BRANCH   8   9
ATOM      9  CG  GLU A   1      -8.294  17.063  66.342  1.00  0.00    -0.319 C  
ATOM     10  CD  GLU A   1      -8.651  18.199  67.268  1.00  0.00    -0.240 C  
ATOM     11  OE1 GLU A   1      -7.674  18.479  68.162  1.00  0.00    -0.267 OA 
ATOM     12  OE2 GLU A   1      -9.692  18.834  67.213  1.00  0.00    -0.291 OA 
ENDBRANCH   8   9
ENDBRANCH   2   8
TORSDOF 2
ENDMDL
MODEL      129
REMARK 921   NORMALIZED FREE ENERGY PREDICTED BY IDOCK:   -2.98 KCAL/MOL
REMARK 922        TOTAL FREE ENERGY PREDICTED BY IDOCK:   -3.38 KCAL/MOL
REMARK 923 INTER-LIGAND FREE ENERGY PREDICTED BY IDOCK:   -3.13 KCAL/MOL
REMARK 924 INTRA-LIGAND FREE ENERGY PREDICTED BY IDOCK:   -0.25 KCAL/MOL
REMARK 927      BINDING AFFINITY PREDICTED BY RF-SCORE:    0.00 PKD
ROOT
ATOM      1  N   GLU A   1      -9.404  11.755  65.099  1.00  0.00    -0.424 NA 
ATOM      2  CA  GLU A   1     -10.065  11.230  66.337  1.00  0.00    -0.220 C  
ATOM      3  H1  GLU A   1      -8.475  11.344  65.006  1.00  0.00     0.000 HD 
ATOM      4  H2  GLU A   1      -9.377  12.774  65.080  1.00  0.00     0.000 HD 
ATOM      5  OXT GLU A   1     -10.609   8.937  67.055  1.00  0.00    -0.274 OA 
ATOM      6  C   GLU A   1     -10.096   9.687  66.240  1.00  0.00    -0.252 C  
ATOM      7  O   GLU A   1      -9.454   9.248  65.129  1.00  0.00    -0.235 OA 
ENDROOT
BRANCH   2   8
ATOM      8  CB  GLU A   1     -11.460  11.847  66.476  1.00  0.00    -0.381 C  
BRANCH   8   9
ATOM      9  CG  GLU A   1     -11.595  12.799  67.669  1.00  0.00    -0.412 C  
ATOM     10  CD  GLU A   1     -11.265  14.218  67.282  1.00  0.00    -0.318 C  
ATOM     11  OE1 GLU A   1     -11.908  15.136  68.041  1.00  0.00    -0.331 OA 
ATOM     12  OE2 GLU A   1     -10.478  14.529  66.401  1.00  0.00    -0.284 OA 
ENDBRANCH   8   9
ENDBRANCH   2   8
TORSDOF 2
ENDMDL
MODEL      130
REMARK 921   NORMALIZED FREE ENERGY PREDICTED BY IDOCK:   -2.97 KCAL/MOL
REMARK 922        TOTAL FREE ENERGY PREDICTED BY IDOCK:   -3.37 KCAL/MOL
REMARK 923 INTER-LIGAND FREE ENERGY PREDICTED BY IDOCK:   -3.31 KCAL/MOL
REMARK 924 INTRA-LIGAND FREE ENERGY PREDICTED BY IDOCK:   -0.07 KCAL/MOL
REMARK 927      BINDING AFFINITY PREDICTED BY RF-SCORE:    0.00 PKD
ROOT
ATOM      1  N   GLU A   1     -12.127   8.568  71.190  1.00  0.00    -0.355 NA 
ATOM      2  CA  GLU A   1     -10.724   8.884  70.773  1.00  0.00    -0.233 C  
ATOM      3  H1  GLU A   1     -12.178   7.603  71.519  1.00  0.00     0.000 HD 
ATOM      4  H2  GLU A   1     -12.801   8.757  70.449  1.00  0.00     0.000 HD 
ATOM      5  OXT GLU A   1      -8.593   8.810  72.007  1.00  0.00    -0.321 OA 
ATOM      6  C   GLU A   1      -9.797   8.610  71.980  1.00  0.00    -0.325 C  
ATOM      7  O   GLU A   1     -10.486   8.090  73.025  1.00  0.00    -0.342 OA 
ENDROOT
BRANCH   2   8
ATOM      8  CB  GLU A   1     -10.649  10.333  70.279  1.00  0.00    -0.264 C  
BRANCH   8   9
ATOM      9  CG  GLU A   1     -11.813  10.731  69.367  1.00  0.00    -0.370 C  
ATOM     10  CD  GLU A   1     -11.396  11.780  68.367  1.00  0.00    -0.270 C  
ATOM     11  OE1 GLU A   1     -12.115  11.735  67.223  1.00  0.00    -0.595 OA 
ATOM     12  OE2 GLU A   1     -10.525  12.614  68.563  1.00  0.00    -0.235 OA 
ENDBRANCH   8   9
ENDBRANCH   2   8
TORSDOF 2
ENDMDL
MODEL      131
REMARK 921   NORMALIZED FREE ENERGY PREDICTED BY IDOCK:   -2.96 KCAL/MOL
REMARK 922        TOTAL FREE ENERGY PREDICTED BY IDOCK:   -3.36 KCAL/MOL
REMARK 923 INTER-LIGAND FREE ENERGY PREDICTED BY IDOCK:   -3.29 KCAL/MOL
REMARK 924 INTRA-LIGAND FREE ENERGY PREDICTED BY IDOCK:   -0.07 KCAL/MOL
REMARK 927      BINDING AFFINITY PREDICTED BY RF-SCORE:    0.00 PKD
ROOT
ATOM      1  N   GLU A   1      -9.369  19.166  68.699  1.00  0.00    -0.372 NA 
ATOM      2  CA  GLU A   1      -8.404  18.088  68.312  1.00  0.00    -0.290 C  
ATOM      3  H1  GLU A   1      -9.092  19.568  69.595  1.00  0.00     0.000 HD 
ATOM      4  H2  GLU A   1     -10.333  18.833  68.709  1.00  0.00     0.000 HD 
ATOM      5  OXT GLU A   1      -5.966  18.125  67.955  1.00  0.00    -0.160 OA 
ATOM      6  C   GLU A   1      -6.988  18.708  68.282  1.00  0.00    -0.246 C  
ATOM      7  O   GLU A   1      -7.005  20.002  68.689  1.00  0.00    -0.312 OA 
ENDROOT
BRANCH   2   8
ATOM      8  CB  GLU A   1      -8.820  17.484  66.967  1.00  0.00    -0.252 C  
BRANCH   8   9
ATOM      9  CG  GLU A   1      -9.880  16.386  67.089  1.00  0.00    -0.249 C  
ATOM     10  CD  GLU A   1     -10.530  16.096  65.760  1.00  0.00    -0.367 C  
ATOM     11  OE1 GLU A   1     -10.983  14.825  65.658  1.00  0.00    -0.319 OA 
ATOM     12  OE2 GLU A   1     -10.672  16.917  64.867  1.00  0.00    -0.725 OA 
ENDBRANCH   8   9
ENDBRANCH   2   8
TORSDOF 2
ENDMDL
MODEL      132
REMARK 921   NORMALIZED FREE ENERGY PREDICTED BY IDOCK:   -2.96 KCAL/MOL
REMARK 922        TOTAL FREE ENERGY PREDICTED BY IDOCK:   -3.35 KCAL/MOL
REMARK 923 INTER-LIGAND FREE ENERGY PREDICTED BY IDOCK:   -3.28 KCAL/MOL
REMARK 924 INTRA-LIGAND FREE ENERGY PREDICTED BY IDOCK:   -0.08 KCAL/MOL
REMARK 927      BINDING AFFINITY PREDICTED BY RF-SCORE:    0.00 PKD
ROOT
ATOM      1  N   GLU A   1     -10.387  17.421  67.695  1.00  0.00    -0.342 NA 
ATOM      2  CA  GLU A   1      -9.956  15.987  67.679  1.00  0.00    -0.239 C  
ATOM      3  H1  GLU A   1      -9.914  17.929  66.946  1.00  0.00     0.000 HD 
ATOM      4  H2  GLU A   1     -10.242  17.857  68.605  1.00  0.00     0.000 HD 
ATOM      5  OXT GLU A   1     -10.087  14.257  65.930  1.00  0.00    -0.300 OA 
ATOM      6  C   GLU A   1     -10.264  15.414  66.277  1.00  0.00    -0.290 C  
ATOM      7  O   GLU A   1     -10.746  16.372  65.446  1.00  0.00    -0.416 OA 
ENDROOT
BRANCH   2   8
ATOM      8  CB  GLU A   1     -10.665  15.225  68.804  1.00  0.00    -0.241 C  
BRANCH   8   9
ATOM      9  CG  GLU A   1     -11.496  16.124  69.724  1.00  0.00    -0.282 C  
ATOM     10  CD  GLU A   1     -12.414  15.314  70.605  1.00  0.00    -0.406 C  
ATOM     11  OE1 GLU A   1     -12.696  15.925  71.779  1.00  0.00    -0.447 OA 
ATOM     12  OE2 GLU A   1     -12.890  14.233  70.297  1.00  0.00    -0.315 OA 
ENDBRANCH   8   9
ENDBRANCH   2   8
TORSDOF 2
ENDMDL
MODEL      133
REMARK 921   NORMALIZED FREE ENERGY PREDICTED BY IDOCK:   -2.93 KCAL/MOL
REMARK 922        TOTAL FREE ENERGY PREDICTED BY IDOCK:   -3.33 KCAL/MOL
REMARK 923 INTER-LIGAND FREE ENERGY PREDICTED BY IDOCK:   -3.24 KCAL/MOL
REMARK 924 INTRA-LIGAND FREE ENERGY PREDICTED BY IDOCK:   -0.09 KCAL/MOL
REMARK 927      BINDING AFFINITY PREDICTED BY RF-SCORE:    0.00 PKD
ROOT
ATOM      1  N   GLU A   1      -9.996  13.015  63.982  1.00  0.00    -0.734 NA 
ATOM      2  CA  GLU A   1     -10.860  11.989  64.648  1.00  0.00    -0.309 C  
ATOM      3  H1  GLU A   1     -10.541  13.859  63.804  1.00  0.00     0.000 HD 
ATOM      4  H2  GLU A   1      -9.556  12.656  63.135  1.00  0.00     0.000 HD 
ATOM      5  OXT GLU A   1     -12.139  12.044  66.754  1.00  0.00    -0.613 OA 
ATOM      6  C   GLU A   1     -11.433  12.619  65.939  1.00  0.00    -0.363 C  
ATOM      7  O   GLU A   1     -11.071  13.920  66.058  1.00  0.00    -0.288 OA 
ENDROOT
BRANCH   2   8
ATOM      8  CB  GLU A   1     -10.041  10.722  64.916  1.00  0.00    -0.387 C  
BRANCH   8   9
ATOM      9  CG  GLU A   1      -8.840  10.559  63.979  1.00  0.00    -0.206 C  
ATOM     10  CD  GLU A   1      -7.662   9.947  64.693  1.00  0.00    -0.142 C  
ATOM     11  OE1 GLU A   1      -6.848   9.249  63.869  1.00  0.00    -0.089 OA 
ATOM     12  OE2 GLU A   1      -7.430  10.082  65.885  1.00  0.00    -0.104 OA 
ENDBRANCH   8   9
ENDBRANCH   2   8
TORSDOF 2
ENDMDL
MODEL      134
REMARK 921   NORMALIZED FREE ENERGY PREDICTED BY IDOCK:   -2.93 KCAL/MOL
REMARK 922        TOTAL FREE ENERGY PREDICTED BY IDOCK:   -3.33 KCAL/MOL
REMARK 923 INTER-LIGAND FREE ENERGY PREDICTED BY IDOCK:   -3.18 KCAL/MOL
REMARK 924 INTRA-LIGAND FREE ENERGY PREDICTED BY IDOCK:   -0.15 KCAL/MOL
REMARK 927      BINDING AFFINITY PREDICTED BY RF-SCORE:    0.00 PKD
ROOT
ATOM      1  N   GLU A   1     -11.436  12.942  70.100  1.00  0.00    -0.519 NA 
ATOM      2  CA  GLU A   1     -11.067  12.999  68.649  1.00  0.00    -0.269 C  
ATOM      3  H1  GLU A   1     -10.986  13.709  70.598  1.00  0.00     0.000 HD 
ATOM      4  H2  GLU A   1     -11.222  12.036  70.515  1.00  0.00     0.000 HD 
ATOM      5  OXT GLU A   1     -11.370  14.759  66.951  1.00  0.00    -0.344 OA 
ATOM      6  C   GLU A   1     -11.478  14.389  68.110  1.00  0.00    -0.310 C  
ATOM      7  O   GLU A   1     -11.966  15.179  69.099  1.00  0.00    -0.307 OA 
ENDROOT
BRANCH   2   8
ATOM      8  CB  GLU A   1     -11.744  11.846  67.901  1.00  0.00    -0.368 C  
BRANCH   8   9
ATOM      9  CG  GLU A   1     -10.768  10.977  67.101  1.00  0.00    -0.313 C  
ATOM     10  CD  GLU A   1     -10.660   9.590  67.681  1.00  0.00    -0.269 C  
ATOM     11  OE1 GLU A   1     -10.339   8.654  66.759  1.00  0.00    -0.286 OA 
ATOM     12  OE2 GLU A   1     -10.811   9.322  68.863  1.00  0.00    -0.194 OA 
ENDBRANCH   8   9
ENDBRANCH   2   8
TORSDOF 2
ENDMDL
MODEL      135
REMARK 921   NORMALIZED FREE ENERGY PREDICTED BY IDOCK:   -2.93 KCAL/MOL
REMARK 922        TOTAL FREE ENERGY PREDICTED BY IDOCK:   -3.32 KCAL/MOL
REMARK 923 INTER-LIGAND FREE ENERGY PREDICTED BY IDOCK:   -3.21 KCAL/MOL
REMARK 924 INTRA-LIGAND FREE ENERGY PREDICTED BY IDOCK:   -0.11 KCAL/MOL
REMARK 927      BINDING AFFINITY PREDICTED BY RF-SCORE:    0.00 PKD
ROOT
ATOM      1  N   GLU A   1      -8.657  10.152  70.328  1.00  0.00    -0.342 NA 
ATOM      2  CA  GLU A   1      -9.721   9.269  69.753  1.00  0.00    -0.189 C  
ATOM      3  H1  GLU A   1      -7.831  10.128  69.729  1.00  0.00     0.000 HD 
ATOM      4  H2  GLU A   1      -8.437   9.911  71.295  1.00  0.00     0.000 HD 
ATOM      5  OXT GLU A   1     -10.860   9.288  67.568  1.00  0.00    -0.259 OA 
ATOM      6  C   GLU A   1     -10.009   9.751  68.313  1.00  0.00    -0.153 C  
ATOM      7  O   GLU A   1      -9.176  10.758  67.951  1.00  0.00    -0.146 OA 
ENDROOT
BRANCH   2   8
ATOM      8  CB  GLU A   1     -10.961   9.306  70.653  1.00  0.00    -0.336 C  
BRANCH   8   9
ATOM      9  CG  GLU A   1     -11.699  10.648  70.627  1.00  0.00    -0.454 C  
ATOM     10  CD  GLU A   1     -12.899  10.636  71.539  1.00  0.00    -0.462 C  
ATOM     11  OE1 GLU A   1     -13.212  11.862  72.017  1.00  0.00    -0.495 OA 
ATOM     12  OE2 GLU A   1     -13.554   9.640  71.806  1.00  0.00    -0.379 OA 
ENDBRANCH   8   9
ENDBRANCH   2   8
TORSDOF 2
ENDMDL
MODEL      136
REMARK 921   NORMALIZED FREE ENERGY PREDICTED BY IDOCK:   -2.93 KCAL/MOL
REMARK 922        TOTAL FREE ENERGY PREDICTED BY IDOCK:   -3.32 KCAL/MOL
REMARK 923 INTER-LIGAND FREE ENERGY PREDICTED BY IDOCK:   -3.23 KCAL/MOL
REMARK 924 INTRA-LIGAND FREE ENERGY PREDICTED BY IDOCK:   -0.09 KCAL/MOL
REMARK 927      BINDING AFFINITY PREDICTED BY RF-SCORE:    0.00 PKD
ROOT
ATOM      1  N   GLU A   1     -11.313   7.062  68.582  1.00  0.00    -0.497 NA 
ATOM      2  CA  GLU A   1     -10.439   7.705  69.614  1.00  0.00    -0.235 C  
ATOM      3  H1  GLU A   1     -11.359   6.057  68.750  1.00  0.00     0.000 HD 
ATOM      4  H2  GLU A   1     -11.009   7.278  67.632  1.00  0.00     0.000 HD 
ATOM      5  OXT GLU A   1     -10.579   7.758  72.074  1.00  0.00    -0.210 OA 
ATOM      6  C   GLU A   1     -11.014   7.355  71.006  1.00  0.00    -0.251 C  
ATOM      7  O   GLU A   1     -12.072   6.512  70.907  1.00  0.00    -0.355 OA 
ENDROOT
BRANCH   2   8
ATOM      8  CB  GLU A   1     -10.370   9.215  69.360  1.00  0.00    -0.220 C  
BRANCH   8   9
ATOM      9  CG  GLU A   1     -10.836   9.624  67.960  1.00  0.00    -0.250 C  
ATOM     10  CD  GLU A   1     -11.621  10.911  67.993  1.00  0.00    -0.215 C  
ATOM     11  OE1 GLU A   1     -11.537  11.611  66.839  1.00  0.00    -0.507 OA 
ATOM     12  OE2 GLU A   1     -12.295  11.285  68.941  1.00  0.00    -0.485 OA 
ENDBRANCH   8   9
ENDBRANCH   2   8
TORSDOF 2
ENDMDL
MODEL      137
REMARK 921   NORMALIZED FREE ENERGY PREDICTED BY IDOCK:   -2.92 KCAL/MOL
REMARK 922        TOTAL FREE ENERGY PREDICTED BY IDOCK:   -3.31 KCAL/MOL
REMARK 923 INTER-LIGAND FREE ENERGY PREDICTED BY IDOCK:   -3.18 KCAL/MOL
REMARK 924 INTRA-LIGAND FREE ENERGY PREDICTED BY IDOCK:   -0.13 KCAL/MOL
REMARK 927      BINDING AFFINITY PREDICTED BY RF-SCORE:    0.00 PKD
ROOT
ATOM      1  N   GLU A   1     -12.492  15.975  70.004  1.00  0.00    -0.500 NA 
ATOM      2  CA  GLU A   1     -12.181  14.566  69.604  1.00  0.00    -0.292 C  
ATOM      3  H1  GLU A   1     -13.470  16.043  70.286  1.00  0.00     0.000 HD 
ATOM      4  H2  GLU A   1     -12.256  16.644  69.271  1.00  0.00     0.000 HD 
ATOM      5  OXT GLU A   1     -12.350  12.439  70.836  1.00  0.00    -0.377 OA 
ATOM      6  C   GLU A   1     -12.528  13.647  70.798  1.00  0.00    -0.359 C  
ATOM      7  O   GLU A   1     -13.085  14.347  71.816  1.00  0.00    -0.320 OA 
ENDROOT
BRANCH   2   8
ATOM      8  CB  GLU A   1     -10.711  14.465  69.181  1.00  0.00    -0.254 C  
BRANCH   8   9
ATOM      9  CG  GLU A   1     -10.278  15.560  68.201  1.00  0.00    -0.227 C  
ATOM     10  CD  GLU A   1     -10.704  15.238  66.791  1.00  0.00    -0.313 C  
ATOM     11  OE1 GLU A   1     -10.902  16.341  66.033  1.00  0.00    -0.244 OA 
ATOM     12  OE2 GLU A   1     -10.830  14.106  66.348  1.00  0.00    -0.299 OA 
ENDBRANCH   8   9
ENDBRANCH   2   8
TORSDOF 2
ENDMDL
MODEL      138
REMARK 921   NORMALIZED FREE ENERGY PREDICTED BY IDOCK:   -2.88 KCAL/MOL
REMARK 922        TOTAL FREE ENERGY PREDICTED BY IDOCK:   -3.27 KCAL/MOL
REMARK 923 INTER-LIGAND FREE ENERGY PREDICTED BY IDOCK:   -3.21 KCAL/MOL
REMARK 924 INTRA-LIGAND FREE ENERGY PREDICTED BY IDOCK:   -0.06 KCAL/MOL
REMARK 927      BINDING AFFINITY PREDICTED BY RF-SCORE:    0.00 PKD
ROOT
ATOM      1  N   GLU A   1     -11.474   4.485  64.958  1.00  0.00    -1.108 NA 
ATOM      2  CA  GLU A   1     -10.095   4.708  65.497  1.00  0.00    -0.183 C  
ATOM      3  H1  GLU A   1     -11.433   4.377  63.944  1.00  0.00     0.000 HD 
ATOM      4  H2  GLU A   1     -12.121   5.221  65.240  1.00  0.00     0.000 HD 
ATOM      5  OXT GLU A   1      -8.044   3.349  65.362  1.00  0.00    -0.089 OA 
ATOM      6  C   GLU A   1      -9.214   3.517  65.055  1.00  0.00    -0.149 C  
ATOM      7  O   GLU A   1      -9.899   2.668  64.248  1.00  0.00    -0.150 OA 
ENDROOT
BRANCH   2   8
ATOM      8  CB  GLU A   1     -10.158   4.870  67.020  1.00  0.00    -0.243 C  
BRANCH   8   9
ATOM      9  CG  GLU A   1     -10.887   6.139  67.472  1.00  0.00    -0.422 C  
ATOM     10  CD  GLU A   1     -10.807   6.318  68.967  1.00  0.00    -0.337 C  
ATOM     11  OE1 GLU A   1     -10.870   7.614  69.348  1.00  0.00    -0.212 OA 
ATOM     12  OE2 GLU A   1     -10.726   5.401  69.769  1.00  0.00    -0.315 OA 
ENDBRANCH   8   9
ENDBRANCH   2   8
TORSDOF 2
ENDMDL
MODEL      139
REMARK 921   NORMALIZED FREE ENERGY PREDICTED BY IDOCK:   -2.88 KCAL/MOL
REMARK 922        TOTAL FREE ENERGY PREDICTED BY IDOCK:   -3.27 KCAL/MOL
REMARK 923 INTER-LIGAND FREE ENERGY PREDICTED BY IDOCK:   -3.16 KCAL/MOL
REMARK 924 INTRA-LIGAND FREE ENERGY PREDICTED BY IDOCK:   -0.11 KCAL/MOL
REMARK 927      BINDING AFFINITY PREDICTED BY RF-SCORE:    0.00 PKD
ROOT
ATOM      1  N   GLU A   1      -8.247  17.005  67.091  1.00  0.00    -0.184 NA 
ATOM      2  CA  GLU A   1      -9.448  17.864  66.846  1.00  0.00    -0.279 C  
ATOM      3  H1  GLU A   1      -7.398  17.548  66.932  1.00  0.00     0.000 HD 
ATOM      4  H2  GLU A   1      -8.265  16.150  66.535  1.00  0.00     0.000 HD 
ATOM      5  OXT GLU A   1     -10.181  19.984  67.866  1.00  0.00    -0.414 OA 
ATOM      6  C   GLU A   1      -9.344  19.100  67.769  1.00  0.00    -0.305 C  
ATOM      7  O   GLU A   1      -8.178  19.103  68.462  1.00  0.00    -0.339 OA 
ENDROOT
BRANCH   2   8
ATOM      8  CB  GLU A   1     -10.722  17.047  67.085  1.00  0.00    -0.177 C  
BRANCH   8   9
ATOM      9  CG  GLU A   1     -10.546  15.547  66.831  1.00  0.00    -0.307 C  
ATOM     10  CD  GLU A   1     -10.737  15.208  65.374  1.00  0.00    -0.381 C  
ATOM     11  OE1 GLU A   1     -10.043  14.112  64.991  1.00  0.00    -0.383 OA 
ATOM     12  OE2 GLU A   1     -11.464  15.826  64.611  1.00  0.00    -0.393 OA 
ENDBRANCH   8   9
ENDBRANCH   2   8
TORSDOF 2
ENDMDL
MODEL      140
REMARK 921   NORMALIZED FREE ENERGY PREDICTED BY IDOCK:   -2.87 KCAL/MOL
REMARK 922        TOTAL FREE ENERGY PREDICTED BY IDOCK:   -3.26 KCAL/MOL
REMARK 923 INTER-LIGAND FREE ENERGY PREDICTED BY IDOCK:   -3.17 KCAL/MOL
REMARK 924 INTRA-LIGAND FREE ENERGY PREDICTED BY IDOCK:   -0.09 KCAL/MOL
REMARK 927      BINDING AFFINITY PREDICTED BY RF-SCORE:    0.00 PKD
ROOT
ATOM      1  N   GLU A   1      -8.932  15.435  69.157  1.00  0.00    -0.229 NA 
ATOM      2  CA  GLU A   1     -10.057  14.776  68.420  1.00  0.00    -0.225 C  
ATOM      3  H1  GLU A   1      -8.429  14.738  69.707  1.00  0.00     0.000 HD 
ATOM      4  H2  GLU A   1      -9.251  16.217  69.727  1.00  0.00     0.000 HD 
ATOM      5  OXT GLU A   1     -10.087  12.933  66.785  1.00  0.00    -0.231 OA 
ATOM      6  C   GLU A   1      -9.458  13.644  67.555  1.00  0.00    -0.222 C  
ATOM      7  O   GLU A   1      -8.126  13.510  67.767  1.00  0.00    -0.147 OA 
ENDROOT
BRANCH   2   8
ATOM      8  CB  GLU A   1     -10.812  15.823  67.594  1.00  0.00    -0.310 C  
BRANCH   8   9
ATOM      9  CG  GLU A   1     -10.545  17.264  68.038  1.00  0.00    -0.394 C  
ATOM     10  CD  GLU A   1     -10.483  18.202  66.859  1.00  0.00    -0.357 C  
ATOM     11  OE1 GLU A   1     -10.848  19.467  67.170  1.00  0.00    -0.491 OA 
ATOM     12  OE2 GLU A   1     -10.113  17.882  65.740  1.00  0.00    -0.563 OA 
ENDBRANCH   8   9
ENDBRANCH   2   8
TORSDOF 2
ENDMDL
MODEL      141
REMARK 921   NORMALIZED FREE ENERGY PREDICTED BY IDOCK:   -2.87 KCAL/MOL
REMARK 922        TOTAL FREE ENERGY PREDICTED BY IDOCK:   -3.26 KCAL/MOL
REMARK 923 INTER-LIGAND FREE ENERGY PREDICTED BY IDOCK:   -3.13 KCAL/MOL
REMARK 924 INTRA-LIGAND FREE ENERGY PREDICTED BY IDOCK:   -0.13 KCAL/MOL
REMARK 927      BINDING AFFINITY PREDICTED BY RF-SCORE:    0.00 PKD
ROOT
ATOM      1  N   GLU A   1      -9.103  17.070  68.477  1.00  0.00    -0.253 NA 
ATOM      2  CA  GLU A   1      -9.365  18.352  67.749  1.00  0.00    -0.274 C  
ATOM      3  H1  GLU A   1      -9.988  16.631  68.728  1.00  0.00     0.000 HD 
ATOM      4  H2  GLU A   1      -8.497  17.203  69.286  1.00  0.00     0.000 HD 
ATOM      5  OXT GLU A   1     -10.608  18.835  65.677  1.00  0.00    -0.596 OA 
ATOM      6  C   GLU A   1     -10.246  18.029  66.521  1.00  0.00    -0.382 C  
ATOM      7  O   GLU A   1     -10.598  16.719  66.495  1.00  0.00    -0.287 OA 
ENDROOT
BRANCH   2   8
ATOM      8  CB  GLU A   1      -8.034  19.011  67.372  1.00  0.00    -0.272 C  
BRANCH   8   9
ATOM      9  CG  GLU A   1      -7.285  18.284  66.251  1.00  0.00    -0.297 C  
ATOM     10  CD  GLU A   1      -6.525  19.250  65.378  1.00  0.00    -0.275 C  
ATOM     11  OE1 GLU A   1      -5.432  18.696  64.804  1.00  0.00    -0.193 OA 
ATOM     12  OE2 GLU A   1      -6.862  20.405  65.171  1.00  0.00    -0.300 OA 
ENDBRANCH   8   9
ENDBRANCH   2   8
TORSDOF 2
ENDMDL
MODEL      142
REMARK 921   NORMALIZED FREE ENERGY PREDICTED BY IDOCK:   -2.87 KCAL/MOL
REMARK 922        TOTAL FREE ENERGY PREDICTED BY IDOCK:   -3.25 KCAL/MOL
REMARK 923 INTER-LIGAND FREE ENERGY PREDICTED BY IDOCK:   -3.15 KCAL/MOL
REMARK 924 INTRA-LIGAND FREE ENERGY PREDICTED BY IDOCK:   -0.10 KCAL/MOL
REMARK 927      BINDING AFFINITY PREDICTED BY RF-SCORE:    0.00 PKD
ROOT
ATOM      1  N   GLU A   1      -8.489  16.667  66.019  1.00  0.00    -0.452 NA 
ATOM      2  CA  GLU A   1      -8.692  16.629  67.502  1.00  0.00    -0.190 C  
ATOM      3  H1  GLU A   1      -7.608  16.212  65.782  1.00  0.00     0.000 HD 
ATOM      4  H2  GLU A   1      -8.545  17.615  65.647  1.00  0.00     0.000 HD 
ATOM      5  OXT GLU A   1      -8.817  14.749  69.090  1.00  0.00    -0.163 OA 
ATOM      6  C   GLU A   1      -8.638  15.150  67.950  1.00  0.00    -0.153 C  
ATOM      7  O   GLU A   1      -8.343  14.329  66.913  1.00  0.00    -0.172 OA 
ENDROOT
BRANCH   2   8
ATOM      8  CB  GLU A   1     -10.017  17.312  67.858  1.00  0.00    -0.297 C  
BRANCH   8   9
ATOM      9  CG  GLU A   1     -10.299  18.570  67.031  1.00  0.00    -0.433 C  
ATOM     10  CD  GLU A   1     -10.081  19.823  67.841  1.00  0.00    -0.430 C  
ATOM     11  OE1 GLU A   1      -9.727  20.887  67.084  1.00  0.00    -0.431 OA 
ATOM     12  OE2 GLU A   1     -10.235  19.900  69.050  1.00  0.00    -0.432 OA 
ENDBRANCH   8   9
ENDBRANCH   2   8
TORSDOF 2
ENDMDL
MODEL      143
REMARK 921   NORMALIZED FREE ENERGY PREDICTED BY IDOCK:   -2.85 KCAL/MOL
REMARK 922        TOTAL FREE ENERGY PREDICTED BY IDOCK:   -3.24 KCAL/MOL
REMARK 923 INTER-LIGAND FREE ENERGY PREDICTED BY IDOCK:   -3.00 KCAL/MOL
REMARK 924 INTRA-LIGAND FREE ENERGY PREDICTED BY IDOCK:   -0.24 KCAL/MOL
REMARK 927      BINDING AFFINITY PREDICTED BY RF-SCORE:    0.00 PKD
ROOT
ATOM      1  N   GLU A   1      -9.142  10.087  70.120  1.00  0.00    -0.379 NA 
ATOM      2  CA  GLU A   1     -10.555   9.763  69.744  1.00  0.00    -0.257 C  
ATOM      3  H1  GLU A   1      -8.611  10.324  69.283  1.00  0.00     0.000 HD 
ATOM      4  H2  GLU A   1      -8.704   9.336  70.653  1.00  0.00     0.000 HD 
ATOM      5  OXT GLU A   1     -12.283  11.079  68.580  1.00  0.00    -0.582 OA 
ATOM      6  C   GLU A   1     -11.136  10.980  68.988  1.00  0.00    -0.244 C  
ATOM      7  O   GLU A   1     -10.198  11.943  68.805  1.00  0.00    -0.207 OA 
ENDROOT
BRANCH   2   8
ATOM      8  CB  GLU A   1     -11.354   9.406  71.002  1.00  0.00    -0.407 C  
BRANCH   8   9
ATOM      9  CG  GLU A   1     -11.767   7.933  71.070  1.00  0.00    -0.293 C  
ATOM     10  CD  GLU A   1     -10.696   7.088  71.712  1.00  0.00    -0.216 C  
ATOM     11  OE1 GLU A   1     -11.188   5.989  72.329  1.00  0.00    -0.263 OA 
ATOM     12  OE2 GLU A   1      -9.500   7.334  71.664  1.00  0.00    -0.152 OA 
ENDBRANCH   8   9
ENDBRANCH   2   8
TORSDOF 2
ENDMDL
MODEL      144
REMARK 921   NORMALIZED FREE ENERGY PREDICTED BY IDOCK:   -2.84 KCAL/MOL
REMARK 922        TOTAL FREE ENERGY PREDICTED BY IDOCK:   -3.23 KCAL/MOL
REMARK 923 INTER-LIGAND FREE ENERGY PREDICTED BY IDOCK:   -2.92 KCAL/MOL
REMARK 924 INTRA-LIGAND FREE ENERGY PREDICTED BY IDOCK:   -0.31 KCAL/MOL
REMARK 927      BINDING AFFINITY PREDICTED BY RF-SCORE:    0.00 PKD
ROOT
ATOM      1  N   GLU A   1     -10.977   8.608  72.023  1.00  0.00    -0.340 NA 
ATOM      2  CA  GLU A   1     -11.947   7.651  71.399  1.00  0.00    -0.310 C  
ATOM      3  H1  GLU A   1     -11.140   9.546  71.658  1.00  0.00     0.000 HD 
ATOM      4  H2  GLU A   1     -10.010   8.310  71.900  1.00  0.00     0.000 HD 
ATOM      5  OXT GLU A   1     -14.410   7.605  71.366  1.00  0.00    -0.433 OA 
ATOM      6  C   GLU A   1     -13.375   8.169  71.686  1.00  0.00    -0.331 C  
ATOM      7  O   GLU A   1     -13.349   9.361  72.331  1.00  0.00    -0.452 OA 
ENDROOT
BRANCH   2   8
ATOM      8  CB  GLU A   1     -11.702   6.241  71.947  1.00  0.00    -0.370 C  
BRANCH   8   9
ATOM      9  CG  GLU A   1     -10.500   5.535  71.310  1.00  0.00    -0.306 C  
ATOM     10  CD  GLU A   1      -9.321   5.498  72.249  1.00  0.00    -0.145 C  
ATOM     11  OE1 GLU A   1      -8.506   4.441  72.032  1.00  0.00    -0.107 OA 
ATOM     12  OE2 GLU A   1      -9.090   6.342  73.101  1.00  0.00    -0.130 OA 
ENDBRANCH   8   9
ENDBRANCH   2   8
TORSDOF 2
ENDMDL
MODEL      145
REMARK 921   NORMALIZED FREE ENERGY PREDICTED BY IDOCK:   -2.83 KCAL/MOL
REMARK 922        TOTAL FREE ENERGY PREDICTED BY IDOCK:   -3.22 KCAL/MOL
REMARK 923 INTER-LIGAND FREE ENERGY PREDICTED BY IDOCK:   -2.94 KCAL/MOL
REMARK 924 INTRA-LIGAND FREE ENERGY PREDICTED BY IDOCK:   -0.28 KCAL/MOL
REMARK 927      BINDING AFFINITY PREDICTED BY RF-SCORE:    0.00 PKD
ROOT
ATOM      1  N   GLU A   1      -7.953  13.950  67.012  1.00  0.00    -0.375 NA 
ATOM      2  CA  GLU A   1      -8.764  15.204  66.895  1.00  0.00    -0.259 C  
ATOM      3  H1  GLU A   1      -7.024  14.175  67.368  1.00  0.00     0.000 HD 
ATOM      4  H2  GLU A   1      -7.913  13.434  66.133  1.00  0.00     0.000 HD 
ATOM      5  OXT GLU A   1      -9.417  16.893  68.566  1.00  0.00    -0.248 OA 
ATOM      6  C   GLU A   1      -8.800  15.876  68.286  1.00  0.00    -0.179 C  
ATOM      7  O   GLU A   1      -8.033  15.205  69.181  1.00  0.00    -0.176 OA 
ENDROOT
BRANCH   2   8
ATOM      8  CB  GLU A   1     -10.159  14.865  66.360  1.00  0.00    -0.296 C  
BRANCH   8   9
ATOM      9  CG  GLU A   1     -10.170  14.476  64.878  1.00  0.00    -0.338 C  
ATOM     10  CD  GLU A   1     -10.467  13.009  64.695  1.00  0.00    -0.380 C  
ATOM     11  OE1 GLU A   1     -11.066  12.735  63.513  1.00  0.00    -0.433 OA 
ATOM     12  OE2 GLU A   1     -10.177  12.140  65.502  1.00  0.00    -0.252 OA 
ENDBRANCH   8   9
ENDBRANCH   2   8
TORSDOF 2
ENDMDL
MODEL      146
REMARK 921   NORMALIZED FREE ENERGY PREDICTED BY IDOCK:   -2.83 KCAL/MOL
REMARK 922        TOTAL FREE ENERGY PREDICTED BY IDOCK:   -3.21 KCAL/MOL
REMARK 923 INTER-LIGAND FREE ENERGY PREDICTED BY IDOCK:   -3.13 KCAL/MOL
REMARK 924 INTRA-LIGAND FREE ENERGY PREDICTED BY IDOCK:   -0.08 KCAL/MOL
REMARK 927      BINDING AFFINITY PREDICTED BY RF-SCORE:    0.00 PKD
ROOT
ATOM      1  N   GLU A   1     -11.266   7.417  68.835  1.00  0.00    -0.429 NA 
ATOM      2  CA  GLU A   1     -10.120   7.742  69.743  1.00  0.00    -0.194 C  
ATOM      3  H1  GLU A   1     -11.092   6.527  68.369  1.00  0.00     0.000 HD 
ATOM      4  H2  GLU A   1     -11.455   8.168  68.172  1.00  0.00     0.000 HD 
ATOM      5  OXT GLU A   1      -9.144   6.521  71.648  1.00  0.00    -0.143 OA 
ATOM      6  C   GLU A   1      -9.952   6.567  70.734  1.00  0.00    -0.184 C  
ATOM      7  O   GLU A   1     -10.813   5.557  70.454  1.00  0.00    -0.277 OA 
ENDROOT
BRANCH   2   8
ATOM      8  CB  GLU A   1     -10.381   9.079  70.443  1.00  0.00    -0.253 C  
BRANCH   8   9
ATOM      9  CG  GLU A   1     -11.373   8.979  71.607  1.00  0.00    -0.430 C  
ATOM     10  CD  GLU A   1     -12.450  10.030  71.506  1.00  0.00    -0.419 C  
ATOM     11  OE1 GLU A   1     -13.613   9.652  72.085  1.00  0.00    -0.426 OA 
ATOM     12  OE2 GLU A   1     -12.300  11.126  70.989  1.00  0.00    -0.371 OA 
ENDBRANCH   8   9
ENDBRANCH   2   8
TORSDOF 2
ENDMDL
MODEL      147
REMARK 921   NORMALIZED FREE ENERGY PREDICTED BY IDOCK:   -2.82 KCAL/MOL
REMARK 922        TOTAL FREE ENERGY PREDICTED BY IDOCK:   -3.20 KCAL/MOL
REMARK 923 INTER-LIGAND FREE ENERGY PREDICTED BY IDOCK:   -3.12 KCAL/MOL
REMARK 924 INTRA-LIGAND FREE ENERGY PREDICTED BY IDOCK:   -0.08 KCAL/MOL
REMARK 927      BINDING AFFINITY PREDICTED BY RF-SCORE:    0.00 PKD
ROOT
ATOM      1  N   GLU A   1     -10.667  16.174  68.713  1.00  0.00    -0.275 NA 
ATOM      2  CA  GLU A   1     -10.371  16.969  67.478  1.00  0.00    -0.329 C  
ATOM      3  H1  GLU A   1     -11.631  15.842  68.684  1.00  0.00     0.000 HD 
ATOM      4  H2  GLU A   1     -10.467  16.698  69.565  1.00  0.00     0.000 HD 
ATOM      5  OXT GLU A   1     -10.478  16.381  65.088  1.00  0.00    -0.622 OA 
ATOM      6  C   GLU A   1     -10.661  16.069  66.255  1.00  0.00    -0.285 C  
ATOM      7  O   GLU A   1     -11.172  14.871  66.631  1.00  0.00    -0.341 OA 
ENDROOT
BRANCH   2   8
ATOM      8  CB  GLU A   1      -8.923  17.467  67.523  1.00  0.00    -0.230 C  
BRANCH   8   9
ATOM      9  CG  GLU A   1      -8.690  18.749  66.717  1.00  0.00    -0.303 C  
ATOM     10  CD  GLU A   1      -8.326  19.906  67.613  1.00  0.00    -0.321 C  
ATOM     11  OE1 GLU A   1      -7.558  20.832  66.995  1.00  0.00    -0.305 OA 
ATOM     12  OE2 GLU A   1      -8.702  20.030  68.768  1.00  0.00    -0.108 OA 
ENDBRANCH   8   9
ENDBRANCH   2   8
TORSDOF 2
ENDMDL
MODEL      148
REMARK 921   NORMALIZED FREE ENERGY PREDICTED BY IDOCK:   -2.81 KCAL/MOL
REMARK 922        TOTAL FREE ENERGY PREDICTED BY IDOCK:   -3.20 KCAL/MOL
REMARK 923 INTER-LIGAND FREE ENERGY PREDICTED BY IDOCK:   -3.00 KCAL/MOL
REMARK 924 INTRA-LIGAND FREE ENERGY PREDICTED BY IDOCK:   -0.19 KCAL/MOL
REMARK 927      BINDING AFFINITY PREDICTED BY RF-SCORE:    0.00 PKD
ROOT
ATOM      1  N   GLU A   1     -11.512  10.890  67.262  1.00  0.00    -0.451 NA 
ATOM      2  CA  GLU A   1     -11.691  12.283  67.781  1.00  0.00    -0.337 C  
ATOM      3  H1  GLU A   1     -12.347  10.605  66.751  1.00  0.00     0.000 HD 
ATOM      4  H2  GLU A   1     -11.271  10.232  68.003  1.00  0.00     0.000 HD 
ATOM      5  OXT GLU A   1     -12.155  14.412  66.630  1.00  0.00    -0.419 OA 
ATOM      6  C   GLU A   1     -12.002  13.201  66.576  1.00  0.00    -0.398 C  
ATOM      7  O   GLU A   1     -12.109  12.490  65.426  1.00  0.00    -0.433 OA 
ENDROOT
BRANCH   2   8
ATOM      8  CB  GLU A   1     -10.436  12.712  68.549  1.00  0.00    -0.249 C  
BRANCH   8   9
ATOM      9  CG  GLU A   1      -9.263  13.094  67.641  1.00  0.00    -0.207 C  
ATOM     10  CD  GLU A   1      -8.766  14.486  67.939  1.00  0.00    -0.165 C  
ATOM     11  OE1 GLU A   1      -7.455  14.653  67.650  1.00  0.00    -0.153 OA 
ATOM     12  OE2 GLU A   1      -9.465  15.393  68.365  1.00  0.00    -0.193 OA 
ENDBRANCH   8   9
ENDBRANCH   2   8
TORSDOF 2
ENDMDL
MODEL      149
REMARK 921   NORMALIZED FREE ENERGY PREDICTED BY IDOCK:   -2.80 KCAL/MOL
REMARK 922        TOTAL FREE ENERGY PREDICTED BY IDOCK:   -3.18 KCAL/MOL
REMARK 923 INTER-LIGAND FREE ENERGY PREDICTED BY IDOCK:   -3.11 KCAL/MOL
REMARK 924 INTRA-LIGAND FREE ENERGY PREDICTED BY IDOCK:   -0.07 KCAL/MOL
REMARK 927      BINDING AFFINITY PREDICTED BY RF-SCORE:    0.00 PKD
ROOT
ATOM      1  N   GLU A   1      -9.544   8.043  71.053  1.00  0.00    -0.159 NA 
ATOM      2  CA  GLU A   1     -10.063   8.985  70.010  1.00  0.00    -0.196 C  
ATOM      3  H1  GLU A   1      -8.755   7.518  70.678  1.00  0.00     0.000 HD 
ATOM      4  H2  GLU A   1     -10.275   7.432  71.416  1.00  0.00     0.000 HD 
ATOM      5  OXT GLU A   1      -8.972  10.811  68.766  1.00  0.00    -0.158 OA 
ATOM      6  C   GLU A   1      -8.892   9.893  69.567  1.00  0.00    -0.197 C  
ATOM      7  O   GLU A   1      -7.731   9.533  70.169  1.00  0.00    -0.116 OA 
ENDROOT
BRANCH   2   8
ATOM      8  CB  GLU A   1     -11.249   9.774  70.574  1.00  0.00    -0.381 C  
BRANCH   8   9
ATOM      9  CG  GLU A   1     -11.983   9.051  71.708  1.00  0.00    -0.438 C  
ATOM     10  CD  GLU A   1     -13.230   9.793  72.118  1.00  0.00    -0.436 C  
ATOM     11  OE1 GLU A   1     -14.185   8.980  72.627  1.00  0.00    -0.574 OA 
ATOM     12  OE2 GLU A   1     -13.372  11.003  72.039  1.00  0.00    -0.455 OA 
ENDBRANCH   8   9
ENDBRANCH   2   8
TORSDOF 2
ENDMDL
MODEL      150
REMARK 921   NORMALIZED FREE ENERGY PREDICTED BY IDOCK:   -2.79 KCAL/MOL
REMARK 922        TOTAL FREE ENERGY PREDICTED BY IDOCK:   -3.17 KCAL/MOL
REMARK 923 INTER-LIGAND FREE ENERGY PREDICTED BY IDOCK:   -3.10 KCAL/MOL
REMARK 924 INTRA-LIGAND FREE ENERGY PREDICTED BY IDOCK:   -0.07 KCAL/MOL
REMARK 927      BINDING AFFINITY PREDICTED BY RF-SCORE:    0.00 PKD
ROOT
ATOM      1  N   GLU A   1      -8.952  16.798  65.910  1.00  0.00    -0.517 NA 
ATOM      2  CA  GLU A   1      -9.447  16.607  67.310  1.00  0.00    -0.232 C  
ATOM      3  H1  GLU A   1      -8.022  17.216  65.929  1.00  0.00     0.000 HD 
ATOM      4  H2  GLU A   1      -9.604  17.338  65.341  1.00  0.00     0.000 HD 
ATOM      5  OXT GLU A   1      -8.524  15.347  69.216  1.00  0.00    -0.229 OA 
ATOM      6  C   GLU A   1      -8.414  15.739  68.064  1.00  0.00    -0.161 C  
ATOM      7  O   GLU A   1      -7.332  15.473  67.291  1.00  0.00    -0.191 OA 
ENDROOT
BRANCH   2   8
ATOM      8  CB  GLU A   1     -10.845  15.980  67.281  1.00  0.00    -0.255 C  
BRANCH   8   9
ATOM      9  CG  GLU A   1     -10.873  14.573  66.675  1.00  0.00    -0.311 C  
ATOM     10  CD  GLU A   1     -10.995  14.622  65.173  1.00  0.00    -0.386 C  
ATOM     11  OE1 GLU A   1     -10.442  13.548  64.562  1.00  0.00    -0.418 OA 
ATOM     12  OE2 GLU A   1     -11.558  15.511  64.554  1.00  0.00    -0.399 OA 
ENDBRANCH   8   9
ENDBRANCH   2   8
TORSDOF 2
ENDMDL
MODEL      151
REMARK 921   NORMALIZED FREE ENERGY PREDICTED BY IDOCK:   -2.78 KCAL/MOL
REMARK 922        TOTAL FREE ENERGY PREDICTED BY IDOCK:   -3.16 KCAL/MOL
REMARK 923 INTER-LIGAND FREE ENERGY PREDICTED BY IDOCK:   -3.06 KCAL/MOL
REMARK 924 INTRA-LIGAND FREE ENERGY PREDICTED BY IDOCK:   -0.10 KCAL/MOL
REMARK 927      BINDING AFFINITY PREDICTED BY RF-SCORE:    0.00 PKD
ROOT
ATOM      1  N   GLU A   1      -8.319  13.686  67.780  1.00  0.00    -0.166 NA 
ATOM      2  CA  GLU A   1      -9.124  14.232  66.640  1.00  0.00    -0.226 C  
ATOM      3  H1  GLU A   1      -7.325  13.793  67.579  1.00  0.00     0.000 HD 
ATOM      4  H2  GLU A   1      -8.565  12.720  67.996  1.00  0.00     0.000 HD 
ATOM      5  OXT GLU A   1      -9.202  16.472  65.617  1.00  0.00    -0.481 OA 
ATOM      6  C   GLU A   1      -8.709  15.706  66.431  1.00  0.00    -0.318 C  
ATOM      7  O   GLU A   1      -7.695  16.058  67.260  1.00  0.00    -0.148 OA 
ENDROOT
BRANCH   2   8
ATOM      8  CB  GLU A   1     -10.617  14.070  66.942  1.00  0.00    -0.280 C  
BRANCH   8   9
ATOM      9  CG  GLU A   1     -10.906  13.546  68.352  1.00  0.00    -0.286 C  
ATOM     10  CD  GLU A   1     -11.448  12.140  68.319  1.00  0.00    -0.305 C  
ATOM     11  OE1 GLU A   1     -11.160  11.436  69.438  1.00  0.00    -0.244 OA 
ATOM     12  OE2 GLU A   1     -12.107  11.675  67.402  1.00  0.00    -0.605 OA 
ENDBRANCH   8   9
ENDBRANCH   2   8
TORSDOF 2
ENDMDL
MODEL      152
REMARK 921   NORMALIZED FREE ENERGY PREDICTED BY IDOCK:   -2.76 KCAL/MOL
REMARK 922        TOTAL FREE ENERGY PREDICTED BY IDOCK:   -3.13 KCAL/MOL
REMARK 923 INTER-LIGAND FREE ENERGY PREDICTED BY IDOCK:   -2.98 KCAL/MOL
REMARK 924 INTRA-LIGAND FREE ENERGY PREDICTED BY IDOCK:   -0.16 KCAL/MOL
REMARK 927      BINDING AFFINITY PREDICTED BY RF-SCORE:    0.00 PKD
ROOT
ATOM      1  N   GLU A   1     -10.249  13.265  63.972  1.00  0.00    -0.758 NA 
ATOM      2  CA  GLU A   1     -11.278  13.008  65.030  1.00  0.00    -0.297 C  
ATOM      3  H1  GLU A   1     -10.604  13.954  63.310  1.00  0.00     0.000 HD 
ATOM      4  H2  GLU A   1      -9.951  12.406  63.510  1.00  0.00     0.000 HD 
ATOM      5  OXT GLU A   1     -12.387  14.514  66.635  1.00  0.00    -0.342 OA 
ATOM      6  C   GLU A   1     -11.621  14.361  65.696  1.00  0.00    -0.347 C  
ATOM      7  O   GLU A   1     -10.974  15.388  65.091  1.00  0.00    -0.374 OA 
ENDROOT
BRANCH   2   8
ATOM      8  CB  GLU A   1     -10.745  11.972  66.025  1.00  0.00    -0.317 C  
BRANCH   8   9
ATOM      9  CG  GLU A   1      -9.595  12.491  66.894  1.00  0.00    -0.229 C  
ATOM     10  CD  GLU A   1      -8.306  11.769  66.592  1.00  0.00    -0.136 C  
ATOM     11  OE1 GLU A   1      -7.209  12.523  66.836  1.00  0.00    -0.032 OA 
ATOM     12  OE2 GLU A   1      -8.236  10.615  66.198  1.00  0.00    -0.145 OA 
ENDBRANCH   8   9
ENDBRANCH   2   8
TORSDOF 2
ENDMDL
MODEL      153
REMARK 921   NORMALIZED FREE ENERGY PREDICTED BY IDOCK:   -2.75 KCAL/MOL
REMARK 922        TOTAL FREE ENERGY PREDICTED BY IDOCK:   -3.13 KCAL/MOL
REMARK 923 INTER-LIGAND FREE ENERGY PREDICTED BY IDOCK:   -2.82 KCAL/MOL
REMARK 924 INTRA-LIGAND FREE ENERGY PREDICTED BY IDOCK:   -0.31 KCAL/MOL
REMARK 927      BINDING AFFINITY PREDICTED BY RF-SCORE:    0.00 PKD
ROOT
ATOM      1  N   GLU A   1      -9.599   8.761  69.046  1.00  0.00    -0.160 NA 
ATOM      2  CA  GLU A   1     -10.132   7.379  68.823  1.00  0.00    -0.179 C  
ATOM      3  H1  GLU A   1      -8.904   8.979  68.332  1.00  0.00     0.000 HD 
ATOM      4  H2  GLU A   1      -9.232   8.884  69.989  1.00  0.00     0.000 HD 
ATOM      5  OXT GLU A   1     -11.264   6.353  66.890  1.00  0.00    -0.368 OA 
ATOM      6  C   GLU A   1     -10.703   7.317  67.388  1.00  0.00    -0.288 C  
ATOM      7  O   GLU A   1     -10.489   8.477  66.719  1.00  0.00    -0.303 OA 
ENDROOT
BRANCH   2   8
ATOM      8  CB  GLU A   1     -11.176   7.052  69.896  1.00  0.00    -0.286 C  
BRANCH   8   9
ATOM      9  CG  GLU A   1     -10.567   6.641  71.240  1.00  0.00    -0.256 C  
ATOM     10  CD  GLU A   1     -10.660   7.754  72.252  1.00  0.00    -0.259 C  
ATOM     11  OE1 GLU A   1     -10.716   7.306  73.527  1.00  0.00    -0.382 OA 
ATOM     12  OE2 GLU A   1     -10.655   8.943  71.974  1.00  0.00    -0.341 OA 
ENDBRANCH   8   9
ENDBRANCH   2   8
TORSDOF 2
ENDMDL
MODEL      154
REMARK 921   NORMALIZED FREE ENERGY PREDICTED BY IDOCK:   -2.73 KCAL/MOL
REMARK 922        TOTAL FREE ENERGY PREDICTED BY IDOCK:   -3.10 KCAL/MOL
REMARK 923 INTER-LIGAND FREE ENERGY PREDICTED BY IDOCK:   -2.81 KCAL/MOL
REMARK 924 INTRA-LIGAND FREE ENERGY PREDICTED BY IDOCK:   -0.29 KCAL/MOL
REMARK 927      BINDING AFFINITY PREDICTED BY RF-SCORE:    0.00 PKD
ROOT
ATOM      1  N   GLU A   1     -11.835   6.523  69.550  1.00  0.00    -0.589 NA 
ATOM      2  CA  GLU A   1     -11.048   7.264  70.586  1.00  0.00    -0.264 C  
ATOM      3  H1  GLU A   1     -12.344   5.756  69.990  1.00  0.00     0.000 HD 
ATOM      4  H2  GLU A   1     -11.250   6.203  68.779  1.00  0.00     0.000 HD 
ATOM      5  OXT GLU A   1     -11.740   8.424  72.647  1.00  0.00    -0.386 OA 
ATOM      6  C   GLU A   1     -12.034   7.743  71.677  1.00  0.00    -0.297 C  
ATOM      7  O   GLU A   1     -13.291   7.294  71.440  1.00  0.00    -0.383 OA 
ENDROOT
BRANCH   2   8
ATOM      8  CB  GLU A   1     -10.284   8.416  69.925  1.00  0.00    -0.201 C  
BRANCH   8   9
ATOM      9  CG  GLU A   1      -9.071   7.958  69.109  1.00  0.00    -0.145 C  
ATOM     10  CD  GLU A   1      -9.353   8.002  67.629  1.00  0.00    -0.143 C  
ATOM     11  OE1 GLU A   1      -8.241   8.203  66.885  1.00  0.00    -0.108 OA 
ATOM     12  OE2 GLU A   1     -10.457   7.843  67.131  1.00  0.00    -0.297 OA 
ENDBRANCH   8   9
ENDBRANCH   2   8
TORSDOF 2
ENDMDL
MODEL      155
REMARK 921   NORMALIZED FREE ENERGY PREDICTED BY IDOCK:   -2.70 KCAL/MOL
REMARK 922        TOTAL FREE ENERGY PREDICTED BY IDOCK:   -3.07 KCAL/MOL
REMARK 923 INTER-LIGAND FREE ENERGY PREDICTED BY IDOCK:   -2.82 KCAL/MOL
REMARK 924 INTRA-LIGAND FREE ENERGY PREDICTED BY IDOCK:   -0.26 KCAL/MOL
REMARK 927      BINDING AFFINITY PREDICTED BY RF-SCORE:    0.00 PKD
ROOT
ATOM      1  N   GLU A   1      -8.717   8.381  68.019  1.00  0.00    -0.138 NA 
ATOM      2  CA  GLU A   1      -9.332   8.978  69.248  1.00  0.00    -0.150 C  
ATOM      3  H1  GLU A   1      -8.528   7.392  68.178  1.00  0.00     0.000 HD 
ATOM      4  H2  GLU A   1      -7.885   8.889  67.720  1.00  0.00     0.000 HD 
ATOM      5  OXT GLU A   1     -11.382   8.411  70.493  1.00  0.00    -0.263 OA 
ATOM      6  C   GLU A   1     -10.606   8.167  69.582  1.00  0.00    -0.223 C  
ATOM      7  O   GLU A   1     -10.758   7.114  68.741  1.00  0.00    -0.212 OA 
ENDROOT
BRANCH   2   8
ATOM      8  CB  GLU A   1      -9.617  10.465  69.010  1.00  0.00    -0.212 C  
BRANCH   8   9
ATOM      9  CG  GLU A   1     -10.267  10.755  67.653  1.00  0.00    -0.221 C  
ATOM     10  CD  GLU A   1     -11.636  11.365  67.816  1.00  0.00    -0.251 C  
ATOM     11  OE1 GLU A   1     -11.986  12.162  66.780  1.00  0.00    -0.606 OA 
ATOM     12  OE2 GLU A   1     -12.380  11.150  68.760  1.00  0.00    -0.539 OA 
ENDBRANCH   8   9
ENDBRANCH   2   8
TORSDOF 2
ENDMDL
MODEL      156
REMARK 921   NORMALIZED FREE ENERGY PREDICTED BY IDOCK:   -2.70 KCAL/MOL
REMARK 922        TOTAL FREE ENERGY PREDICTED BY IDOCK:   -3.07 KCAL/MOL
REMARK 923 INTER-LIGAND FREE ENERGY PREDICTED BY IDOCK:   -3.00 KCAL/MOL
REMARK 924 INTRA-LIGAND FREE ENERGY PREDICTED BY IDOCK:   -0.07 KCAL/MOL
REMARK 927      BINDING AFFINITY PREDICTED BY RF-SCORE:    0.00 PKD
ROOT
ATOM      1  N   GLU A   1     -11.951  12.241  66.393  1.00  0.00    -0.624 NA 
ATOM      2  CA  GLU A   1     -11.610  12.929  67.680  1.00  0.00    -0.355 C  
ATOM      3  H1  GLU A   1     -12.613  12.810  65.866  1.00  0.00     0.000 HD 
ATOM      4  H2  GLU A   1     -12.293  11.293  66.543  1.00  0.00     0.000 HD 
ATOM      5  OXT GLU A   1     -10.635  15.143  68.144  1.00  0.00    -0.238 OA 
ATOM      6  C   GLU A   1     -11.058  14.331  67.336  1.00  0.00    -0.304 C  
ATOM      7  O   GLU A   1     -11.117  14.574  66.003  1.00  0.00    -0.317 OA 
ENDROOT
BRANCH   2   8
ATOM      8  CB  GLU A   1     -10.616  12.074  68.472  1.00  0.00    -0.252 C  
BRANCH   8   9
ATOM      9  CG  GLU A   1     -10.862  10.568  68.342  1.00  0.00    -0.284 C  
ATOM     10  CD  GLU A   1     -10.106   9.793  69.392  1.00  0.00    -0.209 C  
ATOM     11  OE1 GLU A   1     -10.705   8.625  69.720  1.00  0.00    -0.228 OA 
ATOM     12  OE2 GLU A   1      -9.046  10.148  69.883  1.00  0.00    -0.189 OA 
ENDBRANCH   8   9
ENDBRANCH   2   8
TORSDOF 2
ENDMDL
MODEL      157
REMARK 921   NORMALIZED FREE ENERGY PREDICTED BY IDOCK:   -2.69 KCAL/MOL
REMARK 922        TOTAL FREE ENERGY PREDICTED BY IDOCK:   -3.05 KCAL/MOL
REMARK 923 INTER-LIGAND FREE ENERGY PREDICTED BY IDOCK:   -2.83 KCAL/MOL
REMARK 924 INTRA-LIGAND FREE ENERGY PREDICTED BY IDOCK:   -0.22 KCAL/MOL
REMARK 927      BINDING AFFINITY PREDICTED BY RF-SCORE:    0.00 PKD
ROOT
ATOM      1  N   GLU A   1     -13.070  10.339  70.312  1.00  0.00    -0.527 NA 
ATOM      2  CA  GLU A   1     -11.692  10.916  70.420  1.00  0.00    -0.350 C  
ATOM      3  H1  GLU A   1     -13.729  11.073  70.051  1.00  0.00     0.000 HD 
ATOM      4  H2  GLU A   1     -13.352   9.856  71.165  1.00  0.00     0.000 HD 
ATOM      5  OXT GLU A   1     -10.281  12.102  68.785  1.00  0.00    -0.201 OA 
ATOM      6  C   GLU A   1     -11.348  11.578  69.066  1.00  0.00    -0.276 C  
ATOM      7  O   GLU A   1     -12.398  11.528  68.210  1.00  0.00    -0.468 OA 
ENDROOT
BRANCH   2   8
ATOM      8  CB  GLU A   1     -10.703   9.813  70.813  1.00  0.00    -0.393 C  
BRANCH   8   9
ATOM      9  CG  GLU A   1     -10.524   8.737  69.738  1.00  0.00    -0.222 C  
ATOM     10  CD  GLU A   1      -9.067   8.451  69.480  1.00  0.00    -0.153 C  
ATOM     11  OE1 GLU A   1      -8.845   7.189  69.047  1.00  0.00    -0.132 OA 
ATOM     12  OE2 GLU A   1      -8.169   9.268  69.611  1.00  0.00    -0.107 OA 
ENDBRANCH   8   9
ENDBRANCH   2   8
TORSDOF 2
ENDMDL
MODEL      158
REMARK 921   NORMALIZED FREE ENERGY PREDICTED BY IDOCK:   -2.67 KCAL/MOL
REMARK 922        TOTAL FREE ENERGY PREDICTED BY IDOCK:   -3.04 KCAL/MOL
REMARK 923 INTER-LIGAND FREE ENERGY PREDICTED BY IDOCK:   -2.73 KCAL/MOL
REMARK 924 INTRA-LIGAND FREE ENERGY PREDICTED BY IDOCK:   -0.30 KCAL/MOL
REMARK 927      BINDING AFFINITY PREDICTED BY RF-SCORE:    0.00 PKD
ROOT
ATOM      1  N   GLU A   1     -10.451   8.383  71.343  1.00  0.00    -0.211 NA 
ATOM      2  CA  GLU A   1     -11.644   7.826  70.629  1.00  0.00    -0.218 C  
ATOM      3  H1  GLU A   1     -10.629   9.354  71.601  1.00  0.00     0.000 HD 
ATOM      4  H2  GLU A   1      -9.595   8.282  70.798  1.00  0.00     0.000 HD 
ATOM      5  OXT GLU A   1     -13.999   7.591  71.315  1.00  0.00    -0.365 OA 
ATOM      6  C   GLU A   1     -12.869   7.985  71.559  1.00  0.00    -0.311 C  
ATOM      7  O   GLU A   1     -12.545   8.649  72.696  1.00  0.00    -0.371 OA 
ENDROOT
BRANCH   2   8
ATOM      8  CB  GLU A   1     -11.376   6.368  70.241  1.00  0.00    -0.468 C  
BRANCH   8   9
ATOM      9  CG  GLU A   1     -10.955   6.189  68.779  1.00  0.00    -0.421 C  
ATOM     10  CD  GLU A   1      -9.455   6.140  68.638  1.00  0.00    -0.124 C  
ATOM     11  OE1 GLU A   1      -9.048   5.419  67.568  1.00  0.00    -0.109 OA 
ATOM     12  OE2 GLU A   1      -8.672   6.711  69.382  1.00  0.00    -0.133 OA 
ENDBRANCH   8   9
ENDBRANCH   2   8
TORSDOF 2
ENDMDL
MODEL      159
REMARK 921   NORMALIZED FREE ENERGY PREDICTED BY IDOCK:   -2.67 KCAL/MOL
REMARK 922        TOTAL FREE ENERGY PREDICTED BY IDOCK:   -3.04 KCAL/MOL
REMARK 923 INTER-LIGAND FREE ENERGY PREDICTED BY IDOCK:   -2.78 KCAL/MOL
REMARK 924 INTRA-LIGAND FREE ENERGY PREDICTED BY IDOCK:   -0.26 KCAL/MOL
REMARK 927      BINDING AFFINITY PREDICTED BY RF-SCORE:    0.00 PKD
ROOT
ATOM      1  N   GLU A   1      -9.770   5.896  68.719  1.00  0.00    -0.127 NA 
ATOM      2  CA  GLU A   1     -10.872   6.831  69.112  1.00  0.00    -0.258 C  
ATOM      3  H1  GLU A   1      -9.374   6.189  67.826  1.00  0.00     0.000 HD 
ATOM      4  H2  GLU A   1     -10.078   4.924  68.702  1.00  0.00     0.000 HD 
ATOM      5  OXT GLU A   1     -10.896   9.266  69.489  1.00  0.00    -0.232 OA 
ATOM      6  C   GLU A   1     -10.287   8.262  69.155  1.00  0.00    -0.217 C  
ATOM      7  O   GLU A   1      -8.993   8.280  68.749  1.00  0.00    -0.143 OA 
ENDROOT
BRANCH   2   8
ATOM      8  CB  GLU A   1     -11.466   6.390  70.454  1.00  0.00    -0.458 C  
BRANCH   8   9
ATOM      9  CG  GLU A   1     -10.477   6.476  71.621  1.00  0.00    -0.241 C  
ATOM     10  CD  GLU A   1     -11.005   7.351  72.729  1.00  0.00    -0.339 C  
ATOM     11  OE1 GLU A   1     -10.528   7.008  73.947  1.00  0.00    -0.375 OA 
ATOM     12  OE2 GLU A   1     -11.759   8.297  72.562  1.00  0.00    -0.386 OA 
ENDBRANCH   8   9
ENDBRANCH   2   8
TORSDOF 2
ENDMDL
MODEL      160
REMARK 921   NORMALIZED FREE ENERGY PREDICTED BY IDOCK:   -2.67 KCAL/MOL
REMARK 922        TOTAL FREE ENERGY PREDICTED BY IDOCK:   -3.03 KCAL/MOL
REMARK 923 INTER-LIGAND FREE ENERGY PREDICTED BY IDOCK:   -2.81 KCAL/MOL
REMARK 924 INTRA-LIGAND FREE ENERGY PREDICTED BY IDOCK:   -0.22 KCAL/MOL
REMARK 927      BINDING AFFINITY PREDICTED BY RF-SCORE:    0.00 PKD
ROOT
ATOM      1  N   GLU A   1      -9.167   5.107  70.395  1.00  0.00    -0.142 NA 
ATOM      2  CA  GLU A   1     -10.139   5.802  71.298  1.00  0.00    -0.201 C  
ATOM      3  H1  GLU A   1      -8.389   4.743  70.944  1.00  0.00     0.000 HD 
ATOM      4  H2  GLU A   1      -8.852   5.709  69.634  1.00  0.00     0.000 HD 
ATOM      5  OXT GLU A   1     -11.416   5.007  73.250  1.00  0.00    -0.332 OA 
ATOM      6  C   GLU A   1     -10.587   4.791  72.379  1.00  0.00    -0.180 C  
ATOM      7  O   GLU A   1      -9.925   3.614  72.261  1.00  0.00    -0.157 OA 
ENDROOT
BRANCH   2   8
ATOM      8  CB  GLU A   1     -11.308   6.350  70.472  1.00  0.00    -0.438 C  
BRANCH   8   9
ATOM      9  CG  GLU A   1     -11.700   7.784  70.840  1.00  0.00    -0.281 C  
ATOM     10  CD  GLU A   1     -12.908   7.811  71.742  1.00  0.00    -0.327 C  
ATOM     11  OE1 GLU A   1     -12.939   8.895  72.551  1.00  0.00    -0.418 OA 
ATOM     12  OE2 GLU A   1     -13.794   6.971  71.736  1.00  0.00    -0.335 OA 
ENDBRANCH   8   9
ENDBRANCH   2   8
TORSDOF 2
ENDMDL
MODEL      161
REMARK 921   NORMALIZED FREE ENERGY PREDICTED BY IDOCK:   -2.64 KCAL/MOL
REMARK 922        TOTAL FREE ENERGY PREDICTED BY IDOCK:   -3.00 KCAL/MOL
REMARK 923 INTER-LIGAND FREE ENERGY PREDICTED BY IDOCK:   -2.74 KCAL/MOL
REMARK 924 INTRA-LIGAND FREE ENERGY PREDICTED BY IDOCK:   -0.26 KCAL/MOL
REMARK 927      BINDING AFFINITY PREDICTED BY RF-SCORE:    0.00 PKD
ROOT
ATOM      1  N   GLU A   1     -11.351   6.636  69.698  1.00  0.00    -0.519 NA 
ATOM      2  CA  GLU A   1     -11.887   7.090  71.021  1.00  0.00    -0.351 C  
ATOM      3  H1  GLU A   1     -11.643   7.287  68.969  1.00  0.00     0.000 HD 
ATOM      4  H2  GLU A   1     -11.618   5.675  69.484  1.00  0.00     0.000 HD 
ATOM      5  OXT GLU A   1     -11.591   9.191  72.274  1.00  0.00    -0.293 OA 
ATOM      6  C   GLU A   1     -11.385   8.531  71.266  1.00  0.00    -0.271 C  
ATOM      7  O   GLU A   1     -10.690   9.002  70.201  1.00  0.00    -0.220 OA 
ENDROOT
BRANCH   2   8
ATOM      8  CB  GLU A   1     -11.448   6.111  72.116  1.00  0.00    -0.361 C  
BRANCH   8   9
ATOM      9  CG  GLU A   1      -9.933   5.889  72.170  1.00  0.00    -0.196 C  
ATOM     10  CD  GLU A   1      -9.379   6.195  73.538  1.00  0.00    -0.131 C  
ATOM     11  OE1 GLU A   1      -8.262   5.488  73.826  1.00  0.00    -0.111 OA 
ATOM     12  OE2 GLU A   1      -9.854   7.014  74.309  1.00  0.00    -0.289 OA 
ENDBRANCH   8   9
ENDBRANCH   2   8
TORSDOF 2
ENDMDL
MODEL      162
REMARK 921   NORMALIZED FREE ENERGY PREDICTED BY IDOCK:   -2.62 KCAL/MOL
REMARK 922        TOTAL FREE ENERGY PREDICTED BY IDOCK:   -2.98 KCAL/MOL
REMARK 923 INTER-LIGAND FREE ENERGY PREDICTED BY IDOCK:   -3.47 KCAL/MOL
REMARK 924 INTRA-LIGAND FREE ENERGY PREDICTED BY IDOCK:    0.49 KCAL/MOL
REMARK 927      BINDING AFFINITY PREDICTED BY RF-SCORE:    0.00 PKD
ROOT
ATOM      1  N   GLU A   1     -10.961  14.865  64.743  1.00  0.00    -0.547 NA 
ATOM      2  CA  GLU A   1     -10.581  15.790  65.859  1.00  0.00    -0.339 C  
ATOM      3  H1  GLU A   1     -11.913  15.068  64.439  1.00  0.00     0.000 HD 
ATOM      4  H2  GLU A   1     -10.841  13.885  64.999  1.00  0.00     0.000 HD 
ATOM      5  OXT GLU A   1     -10.482  18.249  65.984  1.00  0.00    -0.450 OA 
ATOM      6  C   GLU A   1     -10.753  17.240  65.350  1.00  0.00    -0.066 C  
ATOM      7  O   GLU A   1     -11.270  17.268  64.097  1.00  0.00    -0.757 OA 
ENDROOT
BRANCH   2   8
ATOM      8  CB  GLU A   1      -9.151  15.483  66.316  1.00  0.00    -0.369 C  
BRANCH   8   9
ATOM      9  CG  GLU A   1      -8.319  16.736  66.609  1.00  0.00    -0.296 C  
ATOM     10  CD  GLU A   1      -8.136  16.942  68.091  1.00  0.00    -0.201 C  
ATOM     11  OE1 GLU A   1      -6.994  17.601  68.396  1.00  0.00    -0.205 OA 
ATOM     12  OE2 GLU A   1      -8.938  16.589  68.942  1.00  0.00    -0.240 OA 
ENDBRANCH   8   9
ENDBRANCH   2   8
TORSDOF 2
ENDMDL
MODEL      163
REMARK 921   NORMALIZED FREE ENERGY PREDICTED BY IDOCK:   -2.61 KCAL/MOL
REMARK 922        TOTAL FREE ENERGY PREDICTED BY IDOCK:   -2.97 KCAL/MOL
REMARK 923 INTER-LIGAND FREE ENERGY PREDICTED BY IDOCK:   -2.70 KCAL/MOL
REMARK 924 INTRA-LIGAND FREE ENERGY PREDICTED BY IDOCK:   -0.26 KCAL/MOL
REMARK 927      BINDING AFFINITY PREDICTED BY RF-SCORE:    0.00 PKD
ROOT
ATOM      1  N   GLU A   1      -9.874  10.947  66.296  1.00  0.00    -0.209 NA 
ATOM      2  CA  GLU A   1     -10.901  10.351  67.209  1.00  0.00    -0.264 C  
ATOM      3  H1  GLU A   1     -10.309  11.658  65.709  1.00  0.00     0.000 HD 
ATOM      4  H2  GLU A   1      -9.391  10.238  65.746  1.00  0.00     0.000 HD 
ATOM      5  OXT GLU A   1     -12.372  11.368  68.904  1.00  0.00    -0.446 OA 
ATOM      6  C   GLU A   1     -11.533  11.501  68.026  1.00  0.00    -0.311 C  
ATOM      7  O   GLU A   1     -11.055  12.708  67.635  1.00  0.00    -0.241 OA 
ENDROOT
BRANCH   2   8
ATOM      8  CB  GLU A   1     -10.247   9.282  68.091  1.00  0.00    -0.246 C  
BRANCH   8   9
ATOM      9  CG  GLU A   1      -9.171   9.836  69.030  1.00  0.00    -0.165 C  
ATOM     10  CD  GLU A   1      -9.475   9.511  70.470  1.00  0.00    -0.246 C  
ATOM     11  OE1 GLU A   1      -8.364   9.419  71.237  1.00  0.00    -0.308 OA 
ATOM     12  OE2 GLU A   1     -10.600   9.374  70.925  1.00  0.00    -0.270 OA 
ENDBRANCH   8   9
ENDBRANCH   2   8
TORSDOF 2
ENDMDL
MODEL      164
REMARK 921   NORMALIZED FREE ENERGY PREDICTED BY IDOCK:   -2.59 KCAL/MOL
REMARK 922        TOTAL FREE ENERGY PREDICTED BY IDOCK:   -2.95 KCAL/MOL
REMARK 923 INTER-LIGAND FREE ENERGY PREDICTED BY IDOCK:   -2.71 KCAL/MOL
REMARK 924 INTRA-LIGAND FREE ENERGY PREDICTED BY IDOCK:   -0.25 KCAL/MOL
REMARK 927      BINDING AFFINITY PREDICTED BY RF-SCORE:    0.00 PKD
ROOT
ATOM      1  N   GLU A   1      -9.596  10.548  69.468  1.00  0.00    -0.396 NA 
ATOM      2  CA  GLU A   1      -9.562   9.166  68.892  1.00  0.00    -0.152 C  
ATOM      3  H1  GLU A   1      -9.392  11.229  68.737  1.00  0.00     0.000 HD 
ATOM      4  H2  GLU A   1      -8.972  10.646  70.269  1.00  0.00     0.000 HD 
ATOM      5  OXT GLU A   1     -10.841   8.124  67.062  1.00  0.00    -0.265 OA 
ATOM      6  C   GLU A   1     -10.574   9.115  67.724  1.00  0.00    -0.227 C  
ATOM      7  O   GLU A   1     -11.131  10.330  67.497  1.00  0.00    -0.311 OA 
ENDROOT
BRANCH   2   8
ATOM      8  CB  GLU A   1      -9.869   8.143  69.991  1.00  0.00    -0.182 C  
BRANCH   8   9
ATOM      9  CG  GLU A   1     -11.256   8.313  70.618  1.00  0.00    -0.270 C  
ATOM     10  CD  GLU A   1     -12.021   7.014  70.626  1.00  0.00    -0.313 C  
ATOM     11  OE1 GLU A   1     -12.918   6.935  71.635  1.00  0.00    -0.370 OA 
ATOM     12  OE2 GLU A   1     -11.883   6.126  69.799  1.00  0.00    -0.219 OA 
ENDBRANCH   8   9
ENDBRANCH   2   8
TORSDOF 2
ENDMDL
MODEL      165
REMARK 921   NORMALIZED FREE ENERGY PREDICTED BY IDOCK:   -2.58 KCAL/MOL
REMARK 922        TOTAL FREE ENERGY PREDICTED BY IDOCK:   -2.94 KCAL/MOL
REMARK 923 INTER-LIGAND FREE ENERGY PREDICTED BY IDOCK:   -2.78 KCAL/MOL
REMARK 924 INTRA-LIGAND FREE ENERGY PREDICTED BY IDOCK:   -0.16 KCAL/MOL
REMARK 927      BINDING AFFINITY PREDICTED BY RF-SCORE:    0.00 PKD
ROOT
ATOM      1  N   GLU A   1     -11.174   9.297  68.177  1.00  0.00    -0.458 NA 
ATOM      2  CA  GLU A   1     -10.278  10.439  68.548  1.00  0.00    -0.173 C  
ATOM      3  H1  GLU A   1     -10.781   8.801  67.377  1.00  0.00     0.000 HD 
ATOM      4  H2  GLU A   1     -12.133   9.600  68.008  1.00  0.00     0.000 HD 
ATOM      5  OXT GLU A   1      -7.905  10.512  69.207  1.00  0.00    -0.126 OA 
ATOM      6  C   GLU A   1      -8.870   9.866  68.829  1.00  0.00    -0.136 C  
ATOM      7  O   GLU A   1      -8.820   8.534  68.581  1.00  0.00    -0.135 OA 
ENDROOT
BRANCH   2   8
ATOM      8  CB  GLU A   1     -10.869  11.186  69.749  1.00  0.00    -0.152 C  
BRANCH   8   9
ATOM      9  CG  GLU A   1     -12.249  10.673  70.172  1.00  0.00    -0.398 C  
ATOM     10  CD  GLU A   1     -12.192   9.970  71.505  1.00  0.00    -0.405 C  
ATOM     11  OE1 GLU A   1     -13.358  10.036  72.188  1.00  0.00    -0.444 OA 
ATOM     12  OE2 GLU A   1     -11.216   9.371  71.929  1.00  0.00    -0.354 OA 
ENDBRANCH   8   9
ENDBRANCH   2   8
TORSDOF 2
ENDMDL
MODEL      166
REMARK 921   NORMALIZED FREE ENERGY PREDICTED BY IDOCK:   -2.58 KCAL/MOL
REMARK 922        TOTAL FREE ENERGY PREDICTED BY IDOCK:   -2.93 KCAL/MOL
REMARK 923 INTER-LIGAND FREE ENERGY PREDICTED BY IDOCK:   -2.76 KCAL/MOL
REMARK 924 INTRA-LIGAND FREE ENERGY PREDICTED BY IDOCK:   -0.17 KCAL/MOL
REMARK 927      BINDING AFFINITY PREDICTED BY RF-SCORE:    0.00 PKD
ROOT
ATOM      1  N   GLU A   1      -9.718   9.025  71.876  1.00  0.00    -0.288 NA 
ATOM      2  CA  GLU A   1      -9.929   9.497  70.470  1.00  0.00    -0.273 C  
ATOM      3  H1  GLU A   1      -9.844   9.805  72.521  1.00  0.00     0.000 HD 
ATOM      4  H2  GLU A   1      -8.815   8.568  71.996  1.00  0.00     0.000 HD 
ATOM      5  OXT GLU A   1     -11.861  10.565  69.374  1.00  0.00    -0.261 OA 
ATOM      6  C   GLU A   1     -11.340  10.124  70.387  1.00  0.00    -0.326 C  
ATOM      7  O   GLU A   1     -11.942  10.150  71.602  1.00  0.00    -0.361 OA 
ENDROOT
BRANCH   2   8
ATOM      8  CB  GLU A   1      -9.740   8.325  69.500  1.00  0.00    -0.174 C  
BRANCH   8   9
ATOM      9  CG  GLU A   1      -9.483   6.986  70.199  1.00  0.00    -0.162 C  
ATOM     10  CD  GLU A   1     -10.590   6.000  69.927  1.00  0.00    -0.279 C  
ATOM     11  OE1 GLU A   1     -10.176   4.713  69.977  1.00  0.00    -0.234 OA 
ATOM     12  OE2 GLU A   1     -11.753   6.308  69.714  1.00  0.00    -0.403 OA 
ENDBRANCH   8   9
ENDBRANCH   2   8
TORSDOF 2
ENDMDL
MODEL      167
REMARK 921   NORMALIZED FREE ENERGY PREDICTED BY IDOCK:   -2.56 KCAL/MOL
REMARK 922        TOTAL FREE ENERGY PREDICTED BY IDOCK:   -2.92 KCAL/MOL
REMARK 923 INTER-LIGAND FREE ENERGY PREDICTED BY IDOCK:   -2.85 KCAL/MOL
REMARK 924 INTRA-LIGAND FREE ENERGY PREDICTED BY IDOCK:   -0.07 KCAL/MOL
REMARK 927      BINDING AFFINITY PREDICTED BY RF-SCORE:    0.00 PKD
ROOT
ATOM      1  N   GLU A   1     -11.888   5.012  73.228  1.00  0.00    -0.462 NA 
ATOM      2  CA  GLU A   1     -11.029   5.592  72.147  1.00  0.00    -0.250 C  
ATOM      3  H1  GLU A   1     -12.343   4.165  72.886  1.00  0.00     0.000 HD 
ATOM      4  H2  GLU A   1     -12.559   5.689  73.591  1.00  0.00     0.000 HD 
ATOM      5  OXT GLU A   1      -9.138   4.653  70.877  1.00  0.00    -0.122 OA 
ATOM      6  C   GLU A   1     -10.023   4.505  71.706  1.00  0.00    -0.194 C  
ATOM      7  O   GLU A   1     -10.251   3.330  72.344  1.00  0.00    -0.160 OA 
ENDROOT
BRANCH   2   8
ATOM      8  CB  GLU A   1     -10.345   6.864  72.661  1.00  0.00    -0.228 C  
BRANCH   8   9
ATOM      9  CG  GLU A   1     -11.185   8.131  72.471  1.00  0.00    -0.459 C  
ATOM     10  CD  GLU A   1     -10.489   9.125  71.575  1.00  0.00    -0.352 C  
ATOM     11  OE1 GLU A   1     -11.349   9.926  70.905  1.00  0.00    -0.316 OA 
ATOM     12  OE2 GLU A   1      -9.277   9.234  71.475  1.00  0.00    -0.305 OA 
ENDBRANCH   8   9
ENDBRANCH   2   8
TORSDOF 2
ENDMDL
MODEL      168
REMARK 921   NORMALIZED FREE ENERGY PREDICTED BY IDOCK:   -2.55 KCAL/MOL
REMARK 922        TOTAL FREE ENERGY PREDICTED BY IDOCK:   -2.90 KCAL/MOL
REMARK 923 INTER-LIGAND FREE ENERGY PREDICTED BY IDOCK:   -2.71 KCAL/MOL
REMARK 924 INTRA-LIGAND FREE ENERGY PREDICTED BY IDOCK:   -0.19 KCAL/MOL
REMARK 927      BINDING AFFINITY PREDICTED BY RF-SCORE:    0.00 PKD
ROOT
ATOM      1  N   GLU A   1     -10.205  15.972  66.813  1.00  0.00    -0.268 NA 
ATOM      2  CA  GLU A   1     -10.015  14.614  67.416  1.00  0.00    -0.231 C  
ATOM      3  H1  GLU A   1      -9.908  16.687  67.478  1.00  0.00     0.000 HD 
ATOM      4  H2  GLU A   1     -11.162  16.120  66.493  1.00  0.00     0.000 HD 
ATOM      5  OXT GLU A   1      -8.012  13.480  68.295  1.00  0.00    -0.133 OA 
ATOM      6  C   GLU A   1      -8.528  14.479  67.820  1.00  0.00    -0.174 C  
ATOM      7  O   GLU A   1      -7.849  15.632  67.600  1.00  0.00    -0.134 OA 
ENDROOT
BRANCH   2   8
ATOM      8  CB  GLU A   1     -10.462  13.541  66.418  1.00  0.00    -0.287 C  
BRANCH   8   9
ATOM      9  CG  GLU A   1     -11.720  12.784  66.853  1.00  0.00    -0.447 C  
ATOM     10  CD  GLU A   1     -11.374  11.536  67.625  1.00  0.00    -0.291 C  
ATOM     11  OE1 GLU A   1     -12.334  11.177  68.508  1.00  0.00    -0.561 OA 
ATOM     12  OE2 GLU A   1     -10.355  10.884  67.462  1.00  0.00    -0.186 OA 
ENDBRANCH   8   9
ENDBRANCH   2   8
TORSDOF 2
ENDMDL
MODEL      169
REMARK 921   NORMALIZED FREE ENERGY PREDICTED BY IDOCK:   -2.54 KCAL/MOL
REMARK 922        TOTAL FREE ENERGY PREDICTED BY IDOCK:   -2.89 KCAL/MOL
REMARK 923 INTER-LIGAND FREE ENERGY PREDICTED BY IDOCK:   -2.74 KCAL/MOL
REMARK 924 INTRA-LIGAND FREE ENERGY PREDICTED BY IDOCK:   -0.15 KCAL/MOL
REMARK 927      BINDING AFFINITY PREDICTED BY RF-SCORE:    0.00 PKD
ROOT
ATOM      1  N   GLU A   1      -9.940   5.492  72.304  1.00  0.00    -0.171 NA 
ATOM      2  CA  GLU A   1     -10.402   6.679  71.515  1.00  0.00    -0.209 C  
ATOM      3  H1  GLU A   1      -9.229   5.783  72.975  1.00  0.00     0.000 HD 
ATOM      4  H2  GLU A   1      -9.615   4.735  71.703  1.00  0.00     0.000 HD 
ATOM      5  OXT GLU A   1     -11.415   8.814  72.212  1.00  0.00    -0.362 OA 
ATOM      6  C   GLU A   1     -10.917   7.741  72.514  1.00  0.00    -0.338 C  
ATOM      7  O   GLU A   1     -10.729   7.345  73.798  1.00  0.00    -0.331 OA 
ENDROOT
BRANCH   2   8
ATOM      8  CB  GLU A   1     -11.470   6.242  70.507  1.00  0.00    -0.407 C  
BRANCH   8   9
ATOM      9  CG  GLU A   1     -11.194   6.716  69.076  1.00  0.00    -0.289 C  
ATOM     10  CD  GLU A   1     -10.597   5.616  68.236  1.00  0.00    -0.181 C  
ATOM     11  OE1 GLU A   1     -10.882   5.743  66.919  1.00  0.00    -0.295 OA 
ATOM     12  OE2 GLU A   1      -9.899   4.714  68.673  1.00  0.00    -0.161 OA 
ENDBRANCH   8   9
ENDBRANCH   2   8
TORSDOF 2
ENDMDL
MODEL      170
REMARK 921   NORMALIZED FREE ENERGY PREDICTED BY IDOCK:   -2.54 KCAL/MOL
REMARK 922        TOTAL FREE ENERGY PREDICTED BY IDOCK:   -2.89 KCAL/MOL
REMARK 923 INTER-LIGAND FREE ENERGY PREDICTED BY IDOCK:   -2.82 KCAL/MOL
REMARK 924 INTRA-LIGAND FREE ENERGY PREDICTED BY IDOCK:   -0.07 KCAL/MOL
REMARK 927      BINDING AFFINITY PREDICTED BY RF-SCORE:    0.00 PKD
ROOT
ATOM      1  N   GLU A   1     -11.035   9.142  72.048  1.00  0.00    -0.298 NA 
ATOM      2  CA  GLU A   1     -11.411   8.588  70.709  1.00  0.00    -0.253 C  
ATOM      3  H1  GLU A   1     -11.567   8.667  72.777  1.00  0.00     0.000 HD 
ATOM      4  H2  GLU A   1     -11.146  10.155  72.091  1.00  0.00     0.000 HD 
ATOM      5  OXT GLU A   1     -11.311   6.302  69.796  1.00  0.00    -0.405 OA 
ATOM      6  C   GLU A   1     -11.160   7.063  70.739  1.00  0.00    -0.273 C  
ATOM      7  O   GLU A   1     -10.761   6.651  71.968  1.00  0.00    -0.213 OA 
ENDROOT
BRANCH   2   8
ATOM      8  CB  GLU A   1     -10.612   9.303  69.614  1.00  0.00    -0.241 C  
BRANCH   8   9
ATOM      9  CG  GLU A   1     -10.785  10.825  69.622  1.00  0.00    -0.261 C  
ATOM     10  CD  GLU A   1     -11.232  11.336  68.276  1.00  0.00    -0.267 C  
ATOM     11  OE1 GLU A   1     -11.952  12.479  68.357  1.00  0.00    -0.322 OA 
ATOM     12  OE2 GLU A   1     -10.955  10.808  67.210  1.00  0.00    -0.290 OA 
ENDBRANCH   8   9
ENDBRANCH   2   8
TORSDOF 2
ENDMDL
MODEL      171
REMARK 921   NORMALIZED FREE ENERGY PREDICTED BY IDOCK:   -2.52 KCAL/MOL
REMARK 922        TOTAL FREE ENERGY PREDICTED BY IDOCK:   -2.86 KCAL/MOL
REMARK 923 INTER-LIGAND FREE ENERGY PREDICTED BY IDOCK:   -2.73 KCAL/MOL
REMARK 924 INTRA-LIGAND FREE ENERGY PREDICTED BY IDOCK:   -0.13 KCAL/MOL
REMARK 927      BINDING AFFINITY PREDICTED BY RF-SCORE:    0.00 PKD
ROOT
ATOM      1  N   GLU A   1      -8.911   8.748  63.470  1.00  0.00    -0.420 NA 
ATOM      2  CA  GLU A   1      -8.237   9.506  64.573  1.00  0.00    -0.152 C  
ATOM      3  H1  GLU A   1      -8.473   7.832  63.368  1.00  0.00     0.000 HD 
ATOM      4  H2  GLU A   1      -8.919   9.270  62.594  1.00  0.00     0.000 HD 
ATOM      5  OXT GLU A   1      -7.922   8.988  66.961  1.00  0.00    -0.101 OA 
ATOM      6  C   GLU A   1      -8.325   8.651  65.858  1.00  0.00    -0.136 C  
ATOM      7  O   GLU A   1      -8.896   7.446  65.613  1.00  0.00    -0.126 OA 
ENDROOT
BRANCH   2   8
ATOM      8  CB  GLU A   1      -8.894  10.882  64.726  1.00  0.00    -0.111 C  
BRANCH   8   9
ATOM      9  CG  GLU A   1     -10.422  10.849  64.613  1.00  0.00    -0.384 C  
ATOM     10  CD  GLU A   1     -10.957  12.116  63.996  1.00  0.00    -0.380 C  
ATOM     11  OE1 GLU A   1     -12.125  11.931  63.339  1.00  0.00    -0.502 OA 
ATOM     12  OE2 GLU A   1     -10.425  13.211  64.094  1.00  0.00    -0.421 OA 
ENDBRANCH   8   9
ENDBRANCH   2   8
TORSDOF 2
ENDMDL
MODEL      172
REMARK 921   NORMALIZED FREE ENERGY PREDICTED BY IDOCK:   -2.49 KCAL/MOL
REMARK 922        TOTAL FREE ENERGY PREDICTED BY IDOCK:   -2.84 KCAL/MOL
REMARK 923 INTER-LIGAND FREE ENERGY PREDICTED BY IDOCK:   -2.73 KCAL/MOL
REMARK 924 INTRA-LIGAND FREE ENERGY PREDICTED BY IDOCK:   -0.10 KCAL/MOL
REMARK 927      BINDING AFFINITY PREDICTED BY RF-SCORE:    0.00 PKD
ROOT
ATOM      1  N   GLU A   1     -12.400   7.321  70.542  1.00  0.00    -0.585 NA 
ATOM      2  CA  GLU A   1     -11.466   8.244  71.264  1.00  0.00    -0.274 C  
ATOM      3  H1  GLU A   1     -12.825   7.811  69.755  1.00  0.00     0.000 HD 
ATOM      4  H2  GLU A   1     -13.099   6.917  71.165  1.00  0.00     0.000 HD 
ATOM      5  OXT GLU A   1      -9.483   9.491  70.501  1.00  0.00    -0.252 OA 
ATOM      6  C   GLU A   1     -10.426   8.758  70.243  1.00  0.00    -0.208 C  
ATOM      7  O   GLU A   1     -10.696   8.310  68.992  1.00  0.00    -0.184 OA 
ENDROOT
BRANCH   2   8
ATOM      8  CB  GLU A   1     -10.828   7.507  72.446  1.00  0.00    -0.323 C  
BRANCH   8   9
ATOM      9  CG  GLU A   1     -10.697   5.997  72.230  1.00  0.00    -0.272 C  
ATOM     10  CD  GLU A   1     -10.424   5.275  73.525  1.00  0.00    -0.241 C  
ATOM     11  OE1 GLU A   1     -10.880   4.001  73.527  1.00  0.00    -0.203 OA 
ATOM     12  OE2 GLU A   1      -9.828   5.760  74.474  1.00  0.00    -0.192 OA 
ENDBRANCH   8   9
ENDBRANCH   2   8
TORSDOF 2
ENDMDL
MODEL      173
REMARK 921   NORMALIZED FREE ENERGY PREDICTED BY IDOCK:   -2.48 KCAL/MOL
REMARK 922        TOTAL FREE ENERGY PREDICTED BY IDOCK:   -2.83 KCAL/MOL
REMARK 923 INTER-LIGAND FREE ENERGY PREDICTED BY IDOCK:   -2.79 KCAL/MOL
REMARK 924 INTRA-LIGAND FREE ENERGY PREDICTED BY IDOCK:   -0.04 KCAL/MOL
REMARK 927      BINDING AFFINITY PREDICTED BY RF-SCORE:    0.00 PKD
ROOT
ATOM      1  N   GLU A   1     -11.769  13.869  70.673  1.00  0.00    -0.515 NA 
ATOM      2  CA  GLU A   1     -11.978  12.940  69.517  1.00  0.00    -0.285 C  
ATOM      3  H1  GLU A   1     -12.622  13.920  71.230  1.00  0.00     0.000 HD 
ATOM      4  H2  GLU A   1     -11.451  14.791  70.374  1.00  0.00     0.000 HD 
ATOM      5  OXT GLU A   1     -12.612  10.561  69.423  1.00  0.00    -0.212 OA 
ATOM      6  C   GLU A   1     -12.408  11.568  70.084  1.00  0.00    -0.245 C  
ATOM      7  O   GLU A   1     -12.557  11.613  71.431  1.00  0.00    -0.349 OA 
ENDROOT
BRANCH   2   8
ATOM      8  CB  GLU A   1     -10.696  12.865  68.681  1.00  0.00    -0.273 C  
BRANCH   8   9
ATOM      9  CG  GLU A   1     -10.929  12.392  67.242  1.00  0.00    -0.302 C  
ATOM     10  CD  GLU A   1      -9.797  11.522  66.758  1.00  0.00    -0.203 C  
ATOM     11  OE1 GLU A   1     -10.182  10.629  65.818  1.00  0.00    -0.253 OA 
ATOM     12  OE2 GLU A   1      -8.640  11.618  67.137  1.00  0.00    -0.151 OA 
ENDBRANCH   8   9
ENDBRANCH   2   8
TORSDOF 2
ENDMDL
MODEL      174
REMARK 921   NORMALIZED FREE ENERGY PREDICTED BY IDOCK:   -2.47 KCAL/MOL
REMARK 922        TOTAL FREE ENERGY PREDICTED BY IDOCK:   -2.82 KCAL/MOL
REMARK 923 INTER-LIGAND FREE ENERGY PREDICTED BY IDOCK:   -2.87 KCAL/MOL
REMARK 924 INTRA-LIGAND FREE ENERGY PREDICTED BY IDOCK:    0.05 KCAL/MOL
REMARK 927      BINDING AFFINITY PREDICTED BY RF-SCORE:    0.00 PKD
ROOT
ATOM      1  N   GLU A   1     -11.101   9.224  68.358  1.00  0.00    -0.474 NA 
ATOM      2  CA  GLU A   1     -10.423  10.102  69.364  1.00  0.00    -0.233 C  
ATOM      3  H1  GLU A   1     -10.523   9.152  67.521  1.00  0.00     0.000 HD 
ATOM      4  H2  GLU A   1     -12.047   9.541  68.146  1.00  0.00     0.000 HD 
ATOM      5  OXT GLU A   1      -8.221   9.940  70.458  1.00  0.00    -0.206 OA 
ATOM      6  C   GLU A   1      -9.025   9.506  69.647  1.00  0.00    -0.188 C  
ATOM      7  O   GLU A   1      -8.777   8.430  68.860  1.00  0.00    -0.134 OA 
ENDROOT
BRANCH   2   8
ATOM      8  CB  GLU A   1     -11.292  10.210  70.621  1.00  0.00    -0.433 C  
BRANCH   8   9
ATOM      9  CG  GLU A   1     -10.872   9.252  71.741  1.00  0.00    -0.358 C  
ATOM     10  CD  GLU A   1     -11.717   8.003  71.743  1.00  0.00    -0.291 C  
ATOM     11  OE1 GLU A   1     -11.068   6.927  72.245  1.00  0.00    -0.234 OA 
ATOM     12  OE2 GLU A   1     -12.878   7.953  71.367  1.00  0.00    -0.321 OA 
ENDBRANCH   8   9
ENDBRANCH   2   8
TORSDOF 2
ENDMDL
MODEL      175
REMARK 921   NORMALIZED FREE ENERGY PREDICTED BY IDOCK:   -2.46 KCAL/MOL
REMARK 922        TOTAL FREE ENERGY PREDICTED BY IDOCK:   -2.80 KCAL/MOL
REMARK 923 INTER-LIGAND FREE ENERGY PREDICTED BY IDOCK:   -2.66 KCAL/MOL
REMARK 924 INTRA-LIGAND FREE ENERGY PREDICTED BY IDOCK:   -0.15 KCAL/MOL
REMARK 927      BINDING AFFINITY PREDICTED BY RF-SCORE:    0.00 PKD
ROOT
ATOM      1  N   GLU A   1      -8.058  10.799  66.578  1.00  0.00    -0.140 NA 
ATOM      2  CA  GLU A   1      -9.482  10.642  67.013  1.00  0.00    -0.164 C  
ATOM      3  H1  GLU A   1      -7.436  10.541  67.344  1.00  0.00     0.000 HD 
ATOM      4  H2  GLU A   1      -7.864  11.735  66.224  1.00  0.00     0.000 HD 
ATOM      5  OXT GLU A   1     -10.733   8.692  67.854  1.00  0.00    -0.194 OA 
ATOM      6  C   GLU A   1      -9.677   9.182  67.481  1.00  0.00    -0.160 C  
ATOM      7  O   GLU A   1      -8.510   8.491  67.449  1.00  0.00    -0.125 OA 
ENDROOT
BRANCH   2   8
ATOM      8  CB  GLU A   1     -10.417  11.029  65.862  1.00  0.00    -0.300 C  
BRANCH   8   9
ATOM      9  CG  GLU A   1      -9.975  10.480  64.502  1.00  0.00    -0.413 C  
ATOM     10  CD  GLU A   1      -9.996  11.551  63.441  1.00  0.00    -0.417 C  
ATOM     11  OE1 GLU A   1      -9.102  11.330  62.449  1.00  0.00    -0.317 OA 
ATOM     12  OE2 GLU A   1     -10.754  12.508  63.440  1.00  0.00    -0.426 OA 
ENDBRANCH   8   9
ENDBRANCH   2   8
TORSDOF 2
ENDMDL
MODEL      176
REMARK 921   NORMALIZED FREE ENERGY PREDICTED BY IDOCK:   -2.46 KCAL/MOL
REMARK 922        TOTAL FREE ENERGY PREDICTED BY IDOCK:   -2.80 KCAL/MOL
REMARK 923 INTER-LIGAND FREE ENERGY PREDICTED BY IDOCK:   -2.51 KCAL/MOL
REMARK 924 INTRA-LIGAND FREE ENERGY PREDICTED BY IDOCK:   -0.29 KCAL/MOL
REMARK 927      BINDING AFFINITY PREDICTED BY RF-SCORE:    0.00 PKD
ROOT
ATOM      1  N   GLU A   1      -8.126   9.976  70.509  1.00  0.00    -0.416 NA 
ATOM      2  CA  GLU A   1      -9.202  10.030  69.468  1.00  0.00    -0.221 C  
ATOM      3  H1  GLU A   1      -7.228   9.790  70.063  1.00  0.00     0.000 HD 
ATOM      4  H2  GLU A   1      -8.337   9.303  71.245  1.00  0.00     0.000 HD 
ATOM      5  OXT GLU A   1      -9.484  11.454  67.477  1.00  0.00    -0.165 OA 
ATOM      6  C   GLU A   1      -8.808  11.110  68.435  1.00  0.00    -0.157 C  
ATOM      7  O   GLU A   1      -7.586  11.632  68.705  1.00  0.00    -0.128 OA 
ENDROOT
BRANCH   2   8
ATOM      8  CB  GLU A   1     -10.552  10.310  70.138  1.00  0.00    -0.303 C  
BRANCH   8   9
ATOM      9  CG  GLU A   1     -11.405   9.055  70.348  1.00  0.00    -0.242 C  
ATOM     10  CD  GLU A   1     -11.370   8.598  71.784  1.00  0.00    -0.323 C  
ATOM     11  OE1 GLU A   1     -12.489   7.935  72.155  1.00  0.00    -0.303 OA 
ATOM     12  OE2 GLU A   1     -10.427   8.768  72.541  1.00  0.00    -0.255 OA 
ENDBRANCH   8   9
ENDBRANCH   2   8
TORSDOF 2
ENDMDL
MODEL      177
REMARK 921   NORMALIZED FREE ENERGY PREDICTED BY IDOCK:   -2.41 KCAL/MOL
REMARK 922        TOTAL FREE ENERGY PREDICTED BY IDOCK:   -2.75 KCAL/MOL
REMARK 923 INTER-LIGAND FREE ENERGY PREDICTED BY IDOCK:   -2.63 KCAL/MOL
REMARK 924 INTRA-LIGAND FREE ENERGY PREDICTED BY IDOCK:   -0.12 KCAL/MOL
REMARK 927      BINDING AFFINITY PREDICTED BY RF-SCORE:    0.00 PKD
ROOT
ATOM      1  N   GLU A   1      -7.954   9.334  65.908  1.00  0.00    -0.105 NA 
ATOM      2  CA  GLU A   1      -9.172   9.347  65.036  1.00  0.00    -0.218 C  
ATOM      3  H1  GLU A   1      -7.225   8.772  65.469  1.00  0.00     0.000 HD 
ATOM      4  H2  GLU A   1      -8.162   9.019  66.856  1.00  0.00     0.000 HD 
ATOM      5  OXT GLU A   1      -9.510  10.074  62.707  1.00  0.00    -0.295 OA 
ATOM      6  C   GLU A   1      -8.755   9.883  63.648  1.00  0.00    -0.213 C  
ATOM      7  O   GLU A   1      -7.418  10.103  63.582  1.00  0.00    -0.144 OA 
ENDROOT
BRANCH   2   8
ATOM      8  CB  GLU A   1     -10.267  10.190  65.697  1.00  0.00    -0.288 C  
BRANCH   8   9
ATOM      9  CG  GLU A   1      -9.914  11.677  65.809  1.00  0.00    -0.270 C  
ATOM     10  CD  GLU A   1     -10.894  12.413  66.687  1.00  0.00    -0.246 C  
ATOM     11  OE1 GLU A   1     -10.351  13.492  67.296  1.00  0.00    -0.240 OA 
ATOM     12  OE2 GLU A   1     -12.067  12.103  66.823  1.00  0.00    -0.609 OA 
ENDBRANCH   8   9
ENDBRANCH   2   8
TORSDOF 2
ENDMDL
MODEL      178
REMARK 921   NORMALIZED FREE ENERGY PREDICTED BY IDOCK:   -2.40 KCAL/MOL
REMARK 922        TOTAL FREE ENERGY PREDICTED BY IDOCK:   -2.73 KCAL/MOL
REMARK 923 INTER-LIGAND FREE ENERGY PREDICTED BY IDOCK:   -2.62 KCAL/MOL
REMARK 924 INTRA-LIGAND FREE ENERGY PREDICTED BY IDOCK:   -0.12 KCAL/MOL
REMARK 927      BINDING AFFINITY PREDICTED BY RF-SCORE:    0.00 PKD
ROOT
ATOM      1  N   GLU A   1     -11.474   4.268  64.834  1.00  0.00    -1.013 NA 
ATOM      2  CA  GLU A   1     -10.112   3.932  64.307  1.00  0.00    -0.211 C  
ATOM      3  H1  GLU A   1     -12.133   4.336  64.059  1.00  0.00     0.000 HD 
ATOM      4  H2  GLU A   1     -11.467   5.111  65.408  1.00  0.00     0.000 HD 
ATOM      5  OXT GLU A   1      -9.298   2.029  62.970  1.00  0.00    -0.090 OA 
ATOM      6  C   GLU A   1     -10.228   2.620  63.498  1.00  0.00    -0.165 C  
ATOM      7  O   GLU A   1     -11.514   2.197  63.420  1.00  0.00    -0.311 OA 
ENDROOT
BRANCH   2   8
ATOM      8  CB  GLU A   1      -9.122   3.829  65.471  1.00  0.00    -0.146 C  
BRANCH   8   9
ATOM      9  CG  GLU A   1      -9.569   4.586  66.726  1.00  0.00    -0.206 C  
ATOM     10  CD  GLU A   1      -9.478   3.718  67.955  1.00  0.00    -0.164 C  
ATOM     11  OE1 GLU A   1      -9.268   4.427  69.088  1.00  0.00    -0.116 OA 
ATOM     12  OE2 GLU A   1      -9.609   2.504  67.955  1.00  0.00    -0.198 OA 
ENDBRANCH   8   9
ENDBRANCH   2   8
TORSDOF 2
ENDMDL
MODEL      179
REMARK 921   NORMALIZED FREE ENERGY PREDICTED BY IDOCK:   -2.39 KCAL/MOL
REMARK 922        TOTAL FREE ENERGY PREDICTED BY IDOCK:   -2.72 KCAL/MOL
REMARK 923 INTER-LIGAND FREE ENERGY PREDICTED BY IDOCK:   -2.55 KCAL/MOL
REMARK 924 INTRA-LIGAND FREE ENERGY PREDICTED BY IDOCK:   -0.18 KCAL/MOL
REMARK 927      BINDING AFFINITY PREDICTED BY RF-SCORE:    0.00 PKD
ROOT
ATOM      1  N   GLU A   1      -8.831  10.076  70.092  1.00  0.00    -0.358 NA 
ATOM      2  CA  GLU A   1     -10.207   9.577  70.411  1.00  0.00    -0.279 C  
ATOM      3  H1  GLU A   1      -8.480  10.632  70.872  1.00  0.00     0.000 HD 
ATOM      4  H2  GLU A   1      -8.802  10.588  69.211  1.00  0.00     0.000 HD 
ATOM      5  OXT GLU A   1     -11.058   8.188  72.259  1.00  0.00    -0.291 OA 
ATOM      6  C   GLU A   1     -10.128   8.779  71.732  1.00  0.00    -0.333 C  
ATOM      7  O   GLU A   1      -8.882   8.826  72.266  1.00  0.00    -0.367 OA 
ENDROOT
BRANCH   2   8
ATOM      8  CB  GLU A   1     -10.735   8.742  69.240  1.00  0.00    -0.166 C  
BRANCH   8   9
ATOM      9  CG  GLU A   1      -9.660   7.883  68.566  1.00  0.00    -0.153 C  
ATOM     10  CD  GLU A   1     -10.129   6.463  68.374  1.00  0.00    -0.157 C  
ATOM     11  OE1 GLU A   1      -9.546   5.851  67.318  1.00  0.00    -0.111 OA 
ATOM     12  OE2 GLU A   1     -10.927   5.894  69.103  1.00  0.00    -0.333 OA 
ENDBRANCH   8   9
ENDBRANCH   2   8
TORSDOF 2
ENDMDL
MODEL      180
REMARK 921   NORMALIZED FREE ENERGY PREDICTED BY IDOCK:   -2.39 KCAL/MOL
REMARK 922        TOTAL FREE ENERGY PREDICTED BY IDOCK:   -2.72 KCAL/MOL
REMARK 923 INTER-LIGAND FREE ENERGY PREDICTED BY IDOCK:   -2.50 KCAL/MOL
REMARK 924 INTRA-LIGAND FREE ENERGY PREDICTED BY IDOCK:   -0.22 KCAL/MOL
REMARK 927      BINDING AFFINITY PREDICTED BY RF-SCORE:    0.00 PKD
ROOT
ATOM      1  N   GLU A   1     -11.418   9.966  67.818  1.00  0.00    -0.519 NA 
ATOM      2  CA  GLU A   1     -10.749  11.127  68.486  1.00  0.00    -0.201 C  
ATOM      3  H1  GLU A   1     -12.429  10.103  67.825  1.00  0.00     0.000 HD 
ATOM      4  H2  GLU A   1     -11.147   9.075  68.233  1.00  0.00     0.000 HD 
ATOM      5  OXT GLU A   1     -10.792  13.543  68.002  1.00  0.00    -0.240 OA 
ATOM      6  C   GLU A   1     -11.188  12.415  67.752  1.00  0.00    -0.275 C  
ATOM      7  O   GLU A   1     -12.102  12.147  66.786  1.00  0.00    -0.609 OA 
ENDROOT
BRANCH   2   8
ATOM      8  CB  GLU A   1      -9.230  10.922  68.474  1.00  0.00    -0.181 C  
BRANCH   8   9
ATOM      9  CG  GLU A   1      -8.777   9.749  67.600  1.00  0.00    -0.125 C  
ATOM     10  CD  GLU A   1      -8.149  10.228  66.316  1.00  0.00    -0.129 C  
ATOM     11  OE1 GLU A   1      -7.236   9.362  65.819  1.00  0.00    -0.091 OA 
ATOM     12  OE2 GLU A   1      -8.443  11.269  65.749  1.00  0.00    -0.130 OA 
ENDBRANCH   8   9
ENDBRANCH   2   8
TORSDOF 2
ENDMDL
MODEL      181
REMARK 921   NORMALIZED FREE ENERGY PREDICTED BY IDOCK:   -2.38 KCAL/MOL
REMARK 922        TOTAL FREE ENERGY PREDICTED BY IDOCK:   -2.71 KCAL/MOL
REMARK 923 INTER-LIGAND FREE ENERGY PREDICTED BY IDOCK:   -2.49 KCAL/MOL
REMARK 924 INTRA-LIGAND FREE ENERGY PREDICTED BY IDOCK:   -0.23 KCAL/MOL
REMARK 927      BINDING AFFINITY PREDICTED BY RF-SCORE:    0.00 PKD
ROOT
ATOM      1  N   GLU A   1      -9.557  11.931  65.000  1.00  0.00    -0.415 NA 
ATOM      2  CA  GLU A   1      -9.671  12.528  66.369  1.00  0.00    -0.249 C  
ATOM      3  H1  GLU A   1      -8.854  11.192  65.007  1.00  0.00     0.000 HD 
ATOM      4  H2  GLU A   1      -9.366  12.636  64.288  1.00  0.00     0.000 HD 
ATOM      5  OXT GLU A   1     -10.223  11.526  68.551  1.00  0.00    -0.201 OA 
ATOM      6  C   GLU A   1     -10.008  11.388  67.357  1.00  0.00    -0.186 C  
ATOM      7  O   GLU A   1     -10.019  10.182  66.736  1.00  0.00    -0.193 OA 
ENDROOT
BRANCH   2   8
ATOM      8  CB  GLU A   1     -10.727  13.639  66.358  1.00  0.00    -0.281 C  
BRANCH   8   9
ATOM      9  CG  GLU A   1     -10.198  14.993  66.843  1.00  0.00    -0.258 C  
ATOM     10  CD  GLU A   1     -10.444  15.185  68.318  1.00  0.00    -0.241 C  
ATOM     11  OE1 GLU A   1      -9.534  15.998  68.903  1.00  0.00    -0.210 OA 
ATOM     12  OE2 GLU A   1     -11.378  14.695  68.932  1.00  0.00    -0.255 OA 
ENDBRANCH   8   9
ENDBRANCH   2   8
TORSDOF 2
ENDMDL
MODEL      182
REMARK 921   NORMALIZED FREE ENERGY PREDICTED BY IDOCK:   -2.38 KCAL/MOL
REMARK 922        TOTAL FREE ENERGY PREDICTED BY IDOCK:   -2.71 KCAL/MOL
REMARK 923 INTER-LIGAND FREE ENERGY PREDICTED BY IDOCK:   -2.47 KCAL/MOL
REMARK 924 INTRA-LIGAND FREE ENERGY PREDICTED BY IDOCK:   -0.24 KCAL/MOL
REMARK 927      BINDING AFFINITY PREDICTED BY RF-SCORE:    0.00 PKD
ROOT
ATOM      1  N   GLU A   1     -11.595  10.834  67.137  1.00  0.00    -0.299 NA 
ATOM      2  CA  GLU A   1     -11.369  12.080  67.938  1.00  0.00    -0.305 C  
ATOM      3  H1  GLU A   1     -12.588  10.739  66.925  1.00  0.00     0.000 HD 
ATOM      4  H2  GLU A   1     -11.220  10.006  67.600  1.00  0.00     0.000 HD 
ATOM      5  OXT GLU A   1     -11.865  14.445  67.461  1.00  0.00    -0.373 OA 
ATOM      6  C   GLU A   1     -11.928  13.272  67.128  1.00  0.00    -0.348 C  
ATOM      7  O   GLU A   1     -12.530  12.856  65.986  1.00  0.00    -0.509 OA 
ENDROOT
BRANCH   2   8
ATOM      8  CB  GLU A   1      -9.877  12.222  68.257  1.00  0.00    -0.217 C  
BRANCH   8   9
ATOM      9  CG  GLU A   1      -9.296  11.028  69.021  1.00  0.00    -0.105 C  
ATOM     10  CD  GLU A   1      -8.319  10.254  68.174  1.00  0.00    -0.118 C  
ATOM     11  OE1 GLU A   1      -7.373   9.620  68.904  1.00  0.00    -0.071 OA 
ATOM     12  OE2 GLU A   1      -8.377  10.167  66.957  1.00  0.00    -0.124 OA 
ENDBRANCH   8   9
ENDBRANCH   2   8
TORSDOF 2
ENDMDL
MODEL      183
REMARK 921   NORMALIZED FREE ENERGY PREDICTED BY IDOCK:   -2.36 KCAL/MOL
REMARK 922        TOTAL FREE ENERGY PREDICTED BY IDOCK:   -2.69 KCAL/MOL
REMARK 923 INTER-LIGAND FREE ENERGY PREDICTED BY IDOCK:   -2.60 KCAL/MOL
REMARK 924 INTRA-LIGAND FREE ENERGY PREDICTED BY IDOCK:   -0.10 KCAL/MOL
REMARK 927      BINDING AFFINITY PREDICTED BY RF-SCORE:    0.00 PKD
ROOT
ATOM      1  N   GLU A   1      -9.203   8.636  68.940  1.00  0.00    -0.145 NA 
ATOM      2  CA  GLU A   1     -10.396   8.385  68.070  1.00  0.00    -0.215 C  
ATOM      3  H1  GLU A   1      -9.153   7.922  69.667  1.00  0.00     0.000 HD 
ATOM      4  H2  GLU A   1      -9.201   9.580  69.328  1.00  0.00     0.000 HD 
ATOM      5  OXT GLU A   1     -11.050   6.438  66.710  1.00  0.00    -0.358 OA 
ATOM      6  C   GLU A   1     -10.274   6.954  67.500  1.00  0.00    -0.194 C  
ATOM      7  O   GLU A   1      -9.192   6.310  68.004  1.00  0.00    -0.119 OA 
ENDROOT
BRANCH   2   8
ATOM      8  CB  GLU A   1     -10.471   9.458  66.979  1.00  0.00    -0.302 C  
BRANCH   8   9
ATOM      9  CG  GLU A   1      -9.967  10.832  67.433  1.00  0.00    -0.214 C  
ATOM     10  CD  GLU A   1     -11.090  11.836  67.500  1.00  0.00    -0.272 C  
ATOM     11  OE1 GLU A   1     -10.872  12.812  68.411  1.00  0.00    -0.231 OA 
ATOM     12  OE2 GLU A   1     -12.085  11.808  66.794  1.00  0.00    -0.547 OA 
ENDBRANCH   8   9
ENDBRANCH   2   8
TORSDOF 2
ENDMDL
MODEL      184
REMARK 921   NORMALIZED FREE ENERGY PREDICTED BY IDOCK:   -2.36 KCAL/MOL
REMARK 922        TOTAL FREE ENERGY PREDICTED BY IDOCK:   -2.69 KCAL/MOL
REMARK 923 INTER-LIGAND FREE ENERGY PREDICTED BY IDOCK:   -2.56 KCAL/MOL
REMARK 924 INTRA-LIGAND FREE ENERGY PREDICTED BY IDOCK:   -0.13 KCAL/MOL
REMARK 927      BINDING AFFINITY PREDICTED BY RF-SCORE:    0.00 PKD
ROOT
ATOM      1  N   GLU A   1      -8.984  14.937  65.894  1.00  0.00    -0.420 NA 
ATOM      2  CA  GLU A   1      -9.513  13.819  66.739  1.00  0.00    -0.275 C  
ATOM      3  H1  GLU A   1      -9.405  14.893  64.966  1.00  0.00     0.000 HD 
ATOM      4  H2  GLU A   1      -7.965  14.939  65.853  1.00  0.00     0.000 HD 
ATOM      5  OXT GLU A   1     -11.806  13.217  67.411  1.00  0.00    -0.352 OA 
ATOM      6  C   GLU A   1     -11.054  13.937  66.772  1.00  0.00    -0.303 C  
ATOM      7  O   GLU A   1     -11.490  14.944  65.975  1.00  0.00    -0.343 OA 
ENDROOT
BRANCH   2   8
ATOM      8  CB  GLU A   1      -8.879  13.884  68.133  1.00  0.00    -0.184 C  
BRANCH   8   9
ATOM      9  CG  GLU A   1      -7.369  14.138  68.109  1.00  0.00    -0.130 C  
ATOM     10  CD  GLU A   1      -6.602  12.875  67.808  1.00  0.00    -0.140 C  
ATOM     11  OE1 GLU A   1      -5.417  13.109  67.199  1.00  0.00    -0.342 OA 
ATOM     12  OE2 GLU A   1      -6.978  11.751  68.103  1.00  0.00    -0.068 OA 
ENDBRANCH   8   9
ENDBRANCH   2   8
TORSDOF 2
ENDMDL
MODEL      185
REMARK 921   NORMALIZED FREE ENERGY PREDICTED BY IDOCK:   -2.35 KCAL/MOL
REMARK 922        TOTAL FREE ENERGY PREDICTED BY IDOCK:   -2.67 KCAL/MOL
REMARK 923 INTER-LIGAND FREE ENERGY PREDICTED BY IDOCK:   -2.38 KCAL/MOL
REMARK 924 INTRA-LIGAND FREE ENERGY PREDICTED BY IDOCK:   -0.29 KCAL/MOL
REMARK 927      BINDING AFFINITY PREDICTED BY RF-SCORE:    0.00 PKD
ROOT
ATOM      1  N   GLU A   1      -9.086  12.387  66.016  1.00  0.00    -0.429 NA 
ATOM      2  CA  GLU A   1      -8.708  12.521  67.459  1.00  0.00    -0.182 C  
ATOM      3  H1  GLU A   1      -8.263  12.137  65.468  1.00  0.00     0.000 HD 
ATOM      4  H2  GLU A   1      -9.545  13.225  65.659  1.00  0.00     0.000 HD 
ATOM      5  OXT GLU A   1      -7.693  10.926  69.040  1.00  0.00    -0.121 OA 
ATOM      6  C   GLU A   1      -8.070  11.186  67.908  1.00  0.00    -0.119 C  
ATOM      7  O   GLU A   1      -7.955  10.319  66.871  1.00  0.00    -0.110 OA 
ENDROOT
BRANCH   2   8
ATOM      8  CB  GLU A   1      -9.945  12.896  68.282  1.00  0.00    -0.234 C  
BRANCH   8   9
ATOM      9  CG  GLU A   1     -10.015  14.384  68.640  1.00  0.00    -0.241 C  
ATOM     10  CD  GLU A   1     -10.816  15.159  67.625  1.00  0.00    -0.295 C  
ATOM     11  OE1 GLU A   1     -11.407  16.259  68.146  1.00  0.00    -0.337 OA 
ATOM     12  OE2 GLU A   1     -10.909  14.861  66.444  1.00  0.00    -0.313 OA 
ENDBRANCH   8   9
ENDBRANCH   2   8
TORSDOF 2
ENDMDL
MODEL      186
REMARK 921   NORMALIZED FREE ENERGY PREDICTED BY IDOCK:   -2.33 KCAL/MOL
REMARK 922        TOTAL FREE ENERGY PREDICTED BY IDOCK:   -2.65 KCAL/MOL
REMARK 923 INTER-LIGAND FREE ENERGY PREDICTED BY IDOCK:   -2.39 KCAL/MOL
REMARK 924 INTRA-LIGAND FREE ENERGY PREDICTED BY IDOCK:   -0.26 KCAL/MOL
REMARK 927      BINDING AFFINITY PREDICTED BY RF-SCORE:    0.00 PKD
ROOT
ATOM      1  N   GLU A   1      -8.180   8.113  67.867  1.00  0.00    -0.127 NA 
ATOM      2  CA  GLU A   1      -9.275   8.763  67.078  1.00  0.00    -0.142 C  
ATOM      3  H1  GLU A   1      -7.329   8.077  67.306  1.00  0.00     0.000 HD 
ATOM      4  H2  GLU A   1      -8.450   7.194  68.215  1.00  0.00     0.000 HD 
ATOM      5  OXT GLU A   1      -9.440  10.986  66.029  1.00  0.00    -0.192 OA 
ATOM      6  C   GLU A   1      -8.781  10.162  66.645  1.00  0.00    -0.126 C  
ATOM      7  O   GLU A   1      -7.494  10.370  67.016  1.00  0.00    -0.094 OA 
ENDROOT
BRANCH   2   8
ATOM      8  CB  GLU A   1     -10.554   8.817  67.921  1.00  0.00    -0.236 C  
BRANCH   8   9
ATOM      9  CG  GLU A   1     -10.424   9.684  69.178  1.00  0.00    -0.230 C  
ATOM     10  CD  GLU A   1     -11.510  10.728  69.242  1.00  0.00    -0.298 C  
ATOM     11  OE1 GLU A   1     -11.820  11.091  70.508  1.00  0.00    -0.331 OA 
ATOM     12  OE2 GLU A   1     -12.043  11.231  68.265  1.00  0.00    -0.619 OA 
ENDBRANCH   8   9
ENDBRANCH   2   8
TORSDOF 2
ENDMDL
MODEL      187
REMARK 921   NORMALIZED FREE ENERGY PREDICTED BY IDOCK:   -2.31 KCAL/MOL
REMARK 922        TOTAL FREE ENERGY PREDICTED BY IDOCK:   -2.63 KCAL/MOL
REMARK 923 INTER-LIGAND FREE ENERGY PREDICTED BY IDOCK:   -2.37 KCAL/MOL
REMARK 924 INTRA-LIGAND FREE ENERGY PREDICTED BY IDOCK:   -0.26 KCAL/MOL
REMARK 927      BINDING AFFINITY PREDICTED BY RF-SCORE:    0.00 PKD
ROOT
ATOM      1  N   GLU A   1     -10.395  11.074  65.406  1.00  0.00    -0.270 NA 
ATOM      2  CA  GLU A   1     -10.401  11.689  66.771  1.00  0.00    -0.222 C  
ATOM      3  H1  GLU A   1      -9.810  11.630  64.782  1.00  0.00     0.000 HD 
ATOM      4  H2  GLU A   1     -11.337  10.947  65.037  1.00  0.00     0.000 HD 
ATOM      5  OXT GLU A   1      -8.575  12.198  68.345  1.00  0.00    -0.171 OA 
ATOM      6  C   GLU A   1      -8.935  11.791  67.252  1.00  0.00    -0.172 C  
ATOM      7  O   GLU A   1      -8.069  11.384  66.290  1.00  0.00    -0.149 OA 
ENDROOT
BRANCH   2   8
ATOM      8  CB  GLU A   1     -11.279  10.853  67.708  1.00  0.00    -0.384 C  
BRANCH   8   9
ATOM      9  CG  GLU A   1     -10.773   9.422  67.909  1.00  0.00    -0.269 C  
ATOM     10  CD  GLU A   1     -10.592   9.100  69.371  1.00  0.00    -0.223 C  
ATOM     11  OE1 GLU A   1     -10.741   7.784  69.645  1.00  0.00    -0.243 OA 
ATOM     12  OE2 GLU A   1     -10.308   9.922  70.229  1.00  0.00    -0.265 OA 
ENDBRANCH   8   9
ENDBRANCH   2   8
TORSDOF 2
ENDMDL
MODEL      188
REMARK 921   NORMALIZED FREE ENERGY PREDICTED BY IDOCK:   -2.30 KCAL/MOL
REMARK 922        TOTAL FREE ENERGY PREDICTED BY IDOCK:   -2.63 KCAL/MOL
REMARK 923 INTER-LIGAND FREE ENERGY PREDICTED BY IDOCK:   -2.52 KCAL/MOL
REMARK 924 INTRA-LIGAND FREE ENERGY PREDICTED BY IDOCK:   -0.10 KCAL/MOL
REMARK 927      BINDING AFFINITY PREDICTED BY RF-SCORE:    0.00 PKD
ROOT
ATOM      1  N   GLU A   1      -8.786   6.366  69.596  1.00  0.00    -0.137 NA 
ATOM      2  CA  GLU A   1     -10.046   7.176  69.603  1.00  0.00    -0.192 C  
ATOM      3  H1  GLU A   1      -8.508   6.157  70.555  1.00  0.00     0.000 HD 
ATOM      4  H2  GLU A   1      -8.040   6.820  69.070  1.00  0.00     0.000 HD 
ATOM      5  OXT GLU A   1     -12.280   6.720  70.537  1.00  0.00    -0.363 OA 
ATOM      6  C   GLU A   1     -11.118   6.378  70.380  1.00  0.00    -0.339 C  
ATOM      7  O   GLU A   1     -10.605   5.235  70.900  1.00  0.00    -0.236 OA 
ENDROOT
BRANCH   2   8
ATOM      8  CB  GLU A   1     -10.463   7.490  68.163  1.00  0.00    -0.233 C  
BRANCH   8   9
ATOM      9  CG  GLU A   1     -11.019   6.279  67.407  1.00  0.00    -0.447 C  
ATOM     10  CD  GLU A   1      -9.980   5.671  66.499  1.00  0.00    -0.176 C  
ATOM     11  OE1 GLU A   1     -10.169   4.347  66.292  1.00  0.00    -0.242 OA 
ATOM     12  OE2 GLU A   1      -9.075   6.296  65.969  1.00  0.00    -0.156 OA 
ENDBRANCH   8   9
ENDBRANCH   2   8
TORSDOF 2
ENDMDL
MODEL      189
REMARK 921   NORMALIZED FREE ENERGY PREDICTED BY IDOCK:   -2.29 KCAL/MOL
REMARK 922        TOTAL FREE ENERGY PREDICTED BY IDOCK:   -2.61 KCAL/MOL
REMARK 923 INTER-LIGAND FREE ENERGY PREDICTED BY IDOCK:   -2.43 KCAL/MOL
REMARK 924 INTRA-LIGAND FREE ENERGY PREDICTED BY IDOCK:   -0.18 KCAL/MOL
REMARK 927      BINDING AFFINITY PREDICTED BY RF-SCORE:    0.00 PKD
ROOT
ATOM      1  N   GLU A   1      -9.178  12.113  65.952  1.00  0.00    -0.414 NA 
ATOM      2  CA  GLU A   1      -9.411  10.770  66.573  1.00  0.00    -0.169 C  
ATOM      3  H1  GLU A   1      -8.208  12.183  65.643  1.00  0.00     0.000 HD 
ATOM      4  H2  GLU A   1      -9.437  12.876  66.577  1.00  0.00     0.000 HD 
ATOM      5  OXT GLU A   1      -9.151   8.487  65.681  1.00  0.00    -0.187 OA 
ATOM      6  C   GLU A   1      -9.034   9.694  65.529  1.00  0.00    -0.183 C  
ATOM      7  O   GLU A   1      -8.527  10.253  64.402  1.00  0.00    -0.168 OA 
ENDROOT
BRANCH   2   8
ATOM      8  CB  GLU A   1     -10.868  10.665  67.038  1.00  0.00    -0.298 C  
BRANCH   8   9
ATOM      9  CG  GLU A   1     -11.039  10.802  68.554  1.00  0.00    -0.317 C  
ATOM     10  CD  GLU A   1     -10.570   9.565  69.276  1.00  0.00    -0.220 C  
ATOM     11  OE1 GLU A   1     -10.135   9.818  70.532  1.00  0.00    -0.270 OA 
ATOM     12  OE2 GLU A   1     -10.601   8.437  68.807  1.00  0.00    -0.203 OA 
ENDBRANCH   8   9
ENDBRANCH   2   8
TORSDOF 2
ENDMDL
MODEL      190
REMARK 921   NORMALIZED FREE ENERGY PREDICTED BY IDOCK:   -2.28 KCAL/MOL
REMARK 922        TOTAL FREE ENERGY PREDICTED BY IDOCK:   -2.60 KCAL/MOL
REMARK 923 INTER-LIGAND FREE ENERGY PREDICTED BY IDOCK:   -2.42 KCAL/MOL
REMARK 924 INTRA-LIGAND FREE ENERGY PREDICTED BY IDOCK:   -0.19 KCAL/MOL
REMARK 927      BINDING AFFINITY PREDICTED BY RF-SCORE:    0.00 PKD
ROOT
ATOM      1  N   GLU A   1     -11.486   6.209  70.143  1.00  0.00    -0.368 NA 
ATOM      2  CA  GLU A   1     -11.006   7.462  69.479  1.00  0.00    -0.139 C  
ATOM      3  H1  GLU A   1     -12.036   5.660  69.482  1.00  0.00     0.000 HD 
ATOM      4  H2  GLU A   1     -11.999   6.401  71.003  1.00  0.00     0.000 HD 
ATOM      5  OXT GLU A   1      -9.626   7.825  67.470  1.00  0.00    -0.140 OA 
ATOM      6  C   GLU A   1     -10.205   7.055  68.221  1.00  0.00    -0.182 C  
ATOM      7  O   GLU A   1     -10.234   5.713  68.028  1.00  0.00    -0.159 OA 
ENDROOT
BRANCH   2   8
ATOM      8  CB  GLU A   1     -10.179   8.286  70.472  1.00  0.00    -0.213 C  
BRANCH   8   9
ATOM      9  CG  GLU A   1     -10.920   9.510  71.019  1.00  0.00    -0.424 C  
ATOM     10  CD  GLU A   1     -10.994  10.614  69.994  1.00  0.00    -0.259 C  
ATOM     11  OE1 GLU A   1     -12.075  11.411  70.154  1.00  0.00    -0.319 OA 
ATOM     12  OE2 GLU A   1     -10.160  10.805  69.123  1.00  0.00    -0.213 OA 
ENDBRANCH   8   9
ENDBRANCH   2   8
TORSDOF 2
ENDMDL
MODEL      191
REMARK 921   NORMALIZED FREE ENERGY PREDICTED BY IDOCK:   -2.27 KCAL/MOL
REMARK 922        TOTAL FREE ENERGY PREDICTED BY IDOCK:   -2.59 KCAL/MOL
REMARK 923 INTER-LIGAND FREE ENERGY PREDICTED BY IDOCK:   -2.31 KCAL/MOL
REMARK 924 INTRA-LIGAND FREE ENERGY PREDICTED BY IDOCK:   -0.28 KCAL/MOL
REMARK 927      BINDING AFFINITY PREDICTED BY RF-SCORE:    0.00 PKD
ROOT
ATOM      1  N   GLU A   1      -9.788   9.303  65.383  1.00  0.00    -0.444 NA 
ATOM      2  CA  GLU A   1     -10.298  10.468  66.174  1.00  0.00    -0.210 C  
ATOM      3  H1  GLU A   1     -10.488   9.024  64.695  1.00  0.00     0.000 HD 
ATOM      4  H2  GLU A   1      -9.505   8.527  65.980  1.00  0.00     0.000 HD 
ATOM      5  OXT GLU A   1     -11.045  12.713  65.486  1.00  0.00    -0.281 OA 
ATOM      6  C   GLU A   1     -10.649  11.599  65.180  1.00  0.00    -0.290 C  
ATOM      7  O   GLU A   1     -10.483  11.198  63.895  1.00  0.00    -0.342 OA 
ENDROOT
BRANCH   2   8
ATOM      8  CB  GLU A   1      -9.246  10.887  67.207  1.00  0.00    -0.160 C  
BRANCH   8   9
ATOM      9  CG  GLU A   1      -9.580  10.446  68.635  1.00  0.00    -0.166 C  
ATOM     10  CD  GLU A   1      -8.970   9.104  68.954  1.00  0.00    -0.139 C  
ATOM     11  OE1 GLU A   1      -8.706   8.943  70.271  1.00  0.00    -0.142 OA 
ATOM     12  OE2 GLU A   1      -8.759   8.228  68.130  1.00  0.00    -0.135 OA 
ENDBRANCH   8   9
ENDBRANCH   2   8
TORSDOF 2
ENDMDL
MODEL      192
REMARK 921   NORMALIZED FREE ENERGY PREDICTED BY IDOCK:   -2.25 KCAL/MOL
REMARK 922        TOTAL FREE ENERGY PREDICTED BY IDOCK:   -2.57 KCAL/MOL
REMARK 923 INTER-LIGAND FREE ENERGY PREDICTED BY IDOCK:   -2.35 KCAL/MOL
REMARK 924 INTRA-LIGAND FREE ENERGY PREDICTED BY IDOCK:   -0.22 KCAL/MOL
REMARK 927      BINDING AFFINITY PREDICTED BY RF-SCORE:    0.00 PKD
ROOT
ATOM      1  N   GLU A   1      -7.575   6.128  73.302  1.00  0.00    -0.096 NA 
ATOM      2  CA  GLU A   1      -8.053   6.739  72.020  1.00  0.00    -0.101 C  
ATOM      3  H1  GLU A   1      -6.748   6.626  73.631  1.00  0.00     0.000 HD 
ATOM      4  H2  GLU A   1      -7.409   5.126  73.212  1.00  0.00     0.000 HD 
ATOM      5  OXT GLU A   1      -8.768   9.031  71.466  1.00  0.00    -0.304 OA 
ATOM      6  C   GLU A   1      -8.319   8.239  72.281  1.00  0.00    -0.169 C  
ATOM      7  O   GLU A   1      -7.970   8.592  73.543  1.00  0.00    -0.410 OA 
ENDROOT
BRANCH   2   8
ATOM      8  CB  GLU A   1      -9.296   5.990  71.526  1.00  0.00    -0.161 C  
BRANCH   8   9
ATOM      9  CG  GLU A   1     -10.558   6.291  72.340  1.00  0.00    -0.241 C  
ATOM     10  CD  GLU A   1     -11.679   6.781  71.460  1.00  0.00    -0.317 C  
ATOM     11  OE1 GLU A   1     -12.904   6.494  71.955  1.00  0.00    -0.276 OA 
ATOM     12  OE2 GLU A   1     -11.520   7.403  70.421  1.00  0.00    -0.279 OA 
ENDBRANCH   8   9
ENDBRANCH   2   8
TORSDOF 2
ENDMDL
MODEL      193
REMARK 921   NORMALIZED FREE ENERGY PREDICTED BY IDOCK:   -2.25 KCAL/MOL
REMARK 922        TOTAL FREE ENERGY PREDICTED BY IDOCK:   -2.57 KCAL/MOL
REMARK 923 INTER-LIGAND FREE ENERGY PREDICTED BY IDOCK:   -2.34 KCAL/MOL
REMARK 924 INTRA-LIGAND FREE ENERGY PREDICTED BY IDOCK:   -0.23 KCAL/MOL
REMARK 927      BINDING AFFINITY PREDICTED BY RF-SCORE:    0.00 PKD
ROOT
ATOM      1  N   GLU A   1     -12.060   5.379  72.936  1.00  0.00    -0.479 NA 
ATOM      2  CA  GLU A   1     -10.927   5.487  71.963  1.00  0.00    -0.214 C  
ATOM      3  H1  GLU A   1     -11.884   4.610  73.583  1.00  0.00     0.000 HD 
ATOM      4  H2  GLU A   1     -12.962   5.288  72.468  1.00  0.00     0.000 HD 
ATOM      5  OXT GLU A   1      -8.511   5.841  72.295  1.00  0.00    -0.121 OA 
ATOM      6  C   GLU A   1      -9.622   5.669  72.772  1.00  0.00    -0.152 C  
ATOM      7  O   GLU A   1      -9.853   5.594  74.106  1.00  0.00    -0.165 OA 
ENDROOT
BRANCH   2   8
ATOM      8  CB  GLU A   1     -11.192   6.642  70.991  1.00  0.00    -0.349 C  
BRANCH   8   9
ATOM      9  CG  GLU A   1     -11.090   6.239  69.517  1.00  0.00    -0.476 C  
ATOM     10  CD  GLU A   1      -9.703   6.476  68.975  1.00  0.00    -0.135 C  
ATOM     11  OE1 GLU A   1      -9.382   5.640  67.961  1.00  0.00    -0.107 OA 
ATOM     12  OE2 GLU A   1      -8.945   7.347  69.373  1.00  0.00    -0.140 OA 
ENDBRANCH   8   9
ENDBRANCH   2   8
TORSDOF 2
ENDMDL
MODEL      194
REMARK 921   NORMALIZED FREE ENERGY PREDICTED BY IDOCK:   -2.24 KCAL/MOL
REMARK 922        TOTAL FREE ENERGY PREDICTED BY IDOCK:   -2.56 KCAL/MOL
REMARK 923 INTER-LIGAND FREE ENERGY PREDICTED BY IDOCK:   -2.47 KCAL/MOL
REMARK 924 INTRA-LIGAND FREE ENERGY PREDICTED BY IDOCK:   -0.08 KCAL/MOL
REMARK 927      BINDING AFFINITY PREDICTED BY RF-SCORE:    0.00 PKD
ROOT
ATOM      1  N   GLU A   1     -10.782  13.326  66.616  1.00  0.00    -0.279 NA 
ATOM      2  CA  GLU A   1     -10.397  12.216  67.545  1.00  0.00    -0.205 C  
ATOM      3  H1  GLU A   1     -10.411  14.209  66.965  1.00  0.00     0.000 HD 
ATOM      4  H2  GLU A   1     -11.790  13.367  66.462  1.00  0.00     0.000 HD 
ATOM      5  OXT GLU A   1      -8.198  11.407  68.306  1.00  0.00    -0.134 OA 
ATOM      6  C   GLU A   1      -8.856  12.213  67.667  1.00  0.00    -0.172 C  
ATOM      7  O   GLU A   1      -8.303  13.247  66.985  1.00  0.00    -0.167 OA 
ENDROOT
BRANCH   2   8
ATOM      8  CB  GLU A   1     -10.956  10.889  67.020  1.00  0.00    -0.310 C  
BRANCH   8   9
ATOM      9  CG  GLU A   1     -10.030  10.185  66.022  1.00  0.00    -0.322 C  
ATOM     10  CD  GLU A   1     -10.127  10.802  64.650  1.00  0.00    -0.344 C  
ATOM     11  OE1 GLU A   1      -8.990  10.670  63.930  1.00  0.00    -0.185 OA 
ATOM     12  OE2 GLU A   1     -11.128  11.340  64.203  1.00  0.00    -0.354 OA 
ENDBRANCH   8   9
ENDBRANCH   2   8
TORSDOF 2
ENDMDL
MODEL      195
REMARK 921   NORMALIZED FREE ENERGY PREDICTED BY IDOCK:   -2.22 KCAL/MOL
REMARK 922        TOTAL FREE ENERGY PREDICTED BY IDOCK:   -2.53 KCAL/MOL
REMARK 923 INTER-LIGAND FREE ENERGY PREDICTED BY IDOCK:   -2.46 KCAL/MOL
REMARK 924 INTRA-LIGAND FREE ENERGY PREDICTED BY IDOCK:   -0.07 KCAL/MOL
REMARK 927      BINDING AFFINITY PREDICTED BY RF-SCORE:    0.00 PKD
ROOT
ATOM      1  N   GLU A   1      -7.808  10.362  70.199  1.00  0.00    -0.413 NA 
ATOM      2  CA  GLU A   1      -8.341   9.496  69.099  1.00  0.00    -0.125 C  
ATOM      3  H1  GLU A   1      -6.836  10.118  70.386  1.00  0.00     0.000 HD 
ATOM      4  H2  GLU A   1      -8.384  10.315  71.039  1.00  0.00     0.000 HD 
ATOM      5  OXT GLU A   1      -7.599   9.160  66.774  1.00  0.00    -0.086 OA 
ATOM      6  C   GLU A   1      -7.427   9.680  67.866  1.00  0.00    -0.083 C  
ATOM      7  O   GLU A   1      -6.373  10.486  68.146  1.00  0.00    -0.057 OA 
ENDROOT
BRANCH   2   8
ATOM      8  CB  GLU A   1      -9.802   9.863  68.819  1.00  0.00    -0.177 C  
BRANCH   8   9
ATOM      9  CG  GLU A   1     -10.595  10.230  70.077  1.00  0.00    -0.321 C  
ATOM     10  CD  GLU A   1     -12.008  10.635  69.740  1.00  0.00    -0.291 C  
ATOM     11  OE1 GLU A   1     -12.882  10.388  70.743  1.00  0.00    -0.358 OA 
ATOM     12  OE2 GLU A   1     -12.344  11.162  68.691  1.00  0.00    -0.549 OA 
ENDBRANCH   8   9
ENDBRANCH   2   8
TORSDOF 2
ENDMDL
MODEL      196
REMARK 921   NORMALIZED FREE ENERGY PREDICTED BY IDOCK:   -2.18 KCAL/MOL
REMARK 922        TOTAL FREE ENERGY PREDICTED BY IDOCK:   -2.49 KCAL/MOL
REMARK 923 INTER-LIGAND FREE ENERGY PREDICTED BY IDOCK:   -2.43 KCAL/MOL
REMARK 924 INTRA-LIGAND FREE ENERGY PREDICTED BY IDOCK:   -0.06 KCAL/MOL
REMARK 927      BINDING AFFINITY PREDICTED BY RF-SCORE:    0.00 PKD
ROOT
ATOM      1  N   GLU A   1     -10.686  12.113  67.613  1.00  0.00    -0.214 NA 
ATOM      2  CA  GLU A   1     -10.170  13.501  67.838  1.00  0.00    -0.247 C  
ATOM      3  H1  GLU A   1     -11.600  12.012  68.054  1.00  0.00     0.000 HD 
ATOM      4  H2  GLU A   1     -10.026  11.401  67.928  1.00  0.00     0.000 HD 
ATOM      5  OXT GLU A   1     -11.099  15.707  67.255  1.00  0.00    -0.309 OA 
ATOM      6  C   GLU A   1     -11.218  14.492  67.283  1.00  0.00    -0.332 C  
ATOM      7  O   GLU A   1     -12.324  13.845  66.837  1.00  0.00    -0.410 OA 
ENDROOT
BRANCH   2   8
ATOM      8  CB  GLU A   1      -8.796  13.652  67.176  1.00  0.00    -0.237 C  
BRANCH   8   9
ATOM      9  CG  GLU A   1      -7.688  12.858  67.874  1.00  0.00    -0.143 C  
ATOM     10  CD  GLU A   1      -6.471  13.713  68.123  1.00  0.00    -0.125 C  
ATOM     11  OE1 GLU A   1      -5.753  13.311  69.197  1.00  0.00    -0.071 OA 
ATOM     12  OE2 GLU A   1      -6.131  14.653  67.421  1.00  0.00    -0.339 OA 
ENDBRANCH   8   9
ENDBRANCH   2   8
TORSDOF 2
ENDMDL
MODEL      197
REMARK 921   NORMALIZED FREE ENERGY PREDICTED BY IDOCK:   -2.18 KCAL/MOL
REMARK 922        TOTAL FREE ENERGY PREDICTED BY IDOCK:   -2.48 KCAL/MOL
REMARK 923 INTER-LIGAND FREE ENERGY PREDICTED BY IDOCK:   -2.40 KCAL/MOL
REMARK 924 INTRA-LIGAND FREE ENERGY PREDICTED BY IDOCK:   -0.08 KCAL/MOL
REMARK 927      BINDING AFFINITY PREDICTED BY RF-SCORE:    0.00 PKD
ROOT
ATOM      1  N   GLU A   1      -8.139  12.665  68.743  1.00  0.00    -0.334 NA 
ATOM      2  CA  GLU A   1      -9.350  12.614  67.862  1.00  0.00    -0.204 C  
ATOM      3  H1  GLU A   1      -7.530  13.426  68.444  1.00  0.00     0.000 HD 
ATOM      4  H2  GLU A   1      -7.649  11.771  68.775  1.00  0.00     0.000 HD 
ATOM      5  OXT GLU A   1     -11.085  14.292  67.367  1.00  0.00    -0.288 OA 
ATOM      6  C   GLU A   1     -10.040  13.996  67.926  1.00  0.00    -0.237 C  
ATOM      7  O   GLU A   1      -9.325  14.873  68.673  1.00  0.00    -0.183 OA 
ENDROOT
BRANCH   2   8
ATOM      8  CB  GLU A   1     -10.265  11.470  68.312  1.00  0.00    -0.205 C  
BRANCH   8   9
ATOM      9  CG  GLU A   1      -9.538  10.378  69.103  1.00  0.00    -0.226 C  
ATOM     10  CD  GLU A   1     -10.488   9.616  69.992  1.00  0.00    -0.261 C  
ATOM     11  OE1 GLU A   1     -10.088   8.345  70.227  1.00  0.00    -0.185 OA 
ATOM     12  OE2 GLU A   1     -11.500  10.088  70.486  1.00  0.00    -0.281 OA 
ENDBRANCH   8   9
ENDBRANCH   2   8
TORSDOF 2
ENDMDL
MODEL      198
REMARK 921   NORMALIZED FREE ENERGY PREDICTED BY IDOCK:   -2.16 KCAL/MOL
REMARK 922        TOTAL FREE ENERGY PREDICTED BY IDOCK:   -2.46 KCAL/MOL
REMARK 923 INTER-LIGAND FREE ENERGY PREDICTED BY IDOCK:   -2.43 KCAL/MOL
REMARK 924 INTRA-LIGAND FREE ENERGY PREDICTED BY IDOCK:   -0.03 KCAL/MOL
REMARK 927      BINDING AFFINITY PREDICTED BY RF-SCORE:    0.00 PKD
ROOT
ATOM      1  N   GLU A   1     -10.475  12.084  68.685  1.00  0.00    -0.241 NA 
ATOM      2  CA  GLU A   1     -11.708  11.769  69.474  1.00  0.00    -0.343 C  
ATOM      3  H1  GLU A   1     -10.649  12.889  68.083  1.00  0.00     0.000 HD 
ATOM      4  H2  GLU A   1     -10.138  11.278  68.159  1.00  0.00     0.000 HD 
ATOM      5  OXT GLU A   1     -13.030  13.121  71.054  1.00  0.00    -0.242 OA 
ATOM      6  C   GLU A   1     -12.100  13.038  70.266  1.00  0.00    -0.314 C  
ATOM      7  O   GLU A   1     -11.288  14.081  69.964  1.00  0.00    -0.209 OA 
ENDROOT
BRANCH   2   8
ATOM      8  CB  GLU A   1     -11.446  10.560  70.377  1.00  0.00    -0.427 C  
BRANCH   8   9
ATOM      9  CG  GLU A   1     -10.011  10.030  70.292  1.00  0.00    -0.184 C  
ATOM     10  CD  GLU A   1      -9.908   8.864  69.342  1.00  0.00    -0.183 C  
ATOM     11  OE1 GLU A   1      -8.685   8.749  68.776  1.00  0.00    -0.135 OA 
ATOM     12  OE2 GLU A   1     -10.812   8.074  69.118  1.00  0.00    -0.152 OA 
ENDBRANCH   8   9
ENDBRANCH   2   8
TORSDOF 2
ENDMDL
MODEL      199
REMARK 921   NORMALIZED FREE ENERGY PREDICTED BY IDOCK:   -2.15 KCAL/MOL
REMARK 922        TOTAL FREE ENERGY PREDICTED BY IDOCK:   -2.46 KCAL/MOL
REMARK 923 INTER-LIGAND FREE ENERGY PREDICTED BY IDOCK:   -2.38 KCAL/MOL
REMARK 924 INTRA-LIGAND FREE ENERGY PREDICTED BY IDOCK:   -0.07 KCAL/MOL
REMARK 927      BINDING AFFINITY PREDICTED BY RF-SCORE:    0.00 PKD
ROOT
ATOM      1  N   GLU A   1      -9.291   9.654  64.148  1.00  0.00    -0.417 NA 
ATOM      2  CA  GLU A   1      -8.938   9.552  65.600  1.00  0.00    -0.183 C  
ATOM      3  H1  GLU A   1      -8.513   9.315  63.582  1.00  0.00     0.000 HD 
ATOM      4  H2  GLU A   1      -9.573  10.598  63.886  1.00  0.00     0.000 HD 
ATOM      5  OXT GLU A   1      -8.288   7.628  66.996  1.00  0.00    -0.121 OA 
ATOM      6  C   GLU A   1      -8.576   8.079  65.897  1.00  0.00    -0.152 C  
ATOM      7  O   GLU A   1      -8.593   7.327  64.769  1.00  0.00     0.039 OA 
ENDROOT
BRANCH   2   8
ATOM      8  CB  GLU A   1     -10.108  10.061  66.450  1.00  0.00    -0.307 C  
BRANCH   8   9
ATOM      9  CG  GLU A   1      -9.893  11.473  67.004  1.00  0.00    -0.212 C  
ATOM     10  CD  GLU A   1     -11.196  12.101  67.432  1.00  0.00    -0.302 C  
ATOM     11  OE1 GLU A   1     -11.044  13.009  68.424  1.00  0.00    -0.236 OA 
ATOM     12  OE2 GLU A   1     -12.280  11.855  66.928  1.00  0.00    -0.493 OA 
ENDBRANCH   8   9
ENDBRANCH   2   8
TORSDOF 2
ENDMDL
MODEL      200
REMARK 921   NORMALIZED FREE ENERGY PREDICTED BY IDOCK:   -2.14 KCAL/MOL
REMARK 922        TOTAL FREE ENERGY PREDICTED BY IDOCK:   -2.44 KCAL/MOL
REMARK 923 INTER-LIGAND FREE ENERGY PREDICTED BY IDOCK:   -2.13 KCAL/MOL
REMARK 924 INTRA-LIGAND FREE ENERGY PREDICTED BY IDOCK:   -0.32 KCAL/MOL
REMARK 927      BINDING AFFINITY PREDICTED BY RF-SCORE:    0.00 PKD
ROOT
ATOM      1  N   GLU A   1      -8.419   8.776  68.211  1.00  0.00    -0.129 NA 
ATOM      2  CA  GLU A   1      -9.768   9.421  68.301  1.00  0.00    -0.145 C  
ATOM      3  H1  GLU A   1      -8.327   8.301  67.313  1.00  0.00     0.000 HD 
ATOM      4  H2  GLU A   1      -8.238   8.152  68.996  1.00  0.00     0.000 HD 
ATOM      5  OXT GLU A   1     -10.875  11.106  66.884  1.00  0.00    -0.262 OA 
ATOM      6  C   GLU A   1      -9.918  10.378  67.096  1.00  0.00    -0.195 C  
ATOM      7  O   GLU A   1      -8.847  10.301  66.267  1.00  0.00    -0.142 OA 
ENDROOT
BRANCH   2   8
ATOM      8  CB  GLU A   1      -9.907  10.135  69.650  1.00  0.00    -0.254 C  
BRANCH   8   9
ATOM      9  CG  GLU A   1     -10.550   9.270  70.738  1.00  0.00    -0.351 C  
ATOM     10  CD  GLU A   1      -9.512   8.674  71.655  1.00  0.00    -0.269 C  
ATOM     11  OE1 GLU A   1      -9.982   8.436  72.901  1.00  0.00    -0.262 OA 
ATOM     12  OE2 GLU A   1      -8.371   8.397  71.319  1.00  0.00    -0.117 OA 
ENDBRANCH   8   9
ENDBRANCH   2   8
TORSDOF 2
ENDMDL
MODEL      201
REMARK 921   NORMALIZED FREE ENERGY PREDICTED BY IDOCK:   -2.13 KCAL/MOL
REMARK 922        TOTAL FREE ENERGY PREDICTED BY IDOCK:   -2.44 KCAL/MOL
REMARK 923 INTER-LIGAND FREE ENERGY PREDICTED BY IDOCK:   -2.37 KCAL/MOL
REMARK 924 INTRA-LIGAND FREE ENERGY PREDICTED BY IDOCK:   -0.06 KCAL/MOL
REMARK 927      BINDING AFFINITY PREDICTED BY RF-SCORE:    0.00 PKD
ROOT
ATOM      1  N   GLU A   1     -10.257   4.859  70.417  1.00  0.00    -0.245 NA 
ATOM      2  CA  GLU A   1     -10.235   5.871  71.521  1.00  0.00    -0.205 C  
ATOM      3  H1  GLU A   1      -9.568   4.130  70.607  1.00  0.00     0.000 HD 
ATOM      4  H2  GLU A   1     -10.122   5.286  69.501  1.00  0.00     0.000 HD 
ATOM      5  OXT GLU A   1     -10.597   5.654  73.948  1.00  0.00    -0.262 OA 
ATOM      6  C   GLU A   1     -10.497   5.127  72.851  1.00  0.00    -0.211 C  
ATOM      7  O   GLU A   1     -10.584   3.787  72.660  1.00  0.00    -0.154 OA 
ENDROOT
BRANCH   2   8
ATOM      8  CB  GLU A   1     -11.269   6.965  71.235  1.00  0.00    -0.306 C  
BRANCH   8   9
ATOM      9  CG  GLU A   1     -10.689   8.183  70.510  1.00  0.00    -0.233 C  
ATOM     10  CD  GLU A   1      -9.618   8.855  71.330  1.00  0.00    -0.278 C  
ATOM     11  OE1 GLU A   1      -8.698   9.497  70.574  1.00  0.00    -0.228 OA 
ATOM     12  OE2 GLU A   1      -9.583   8.860  72.551  1.00  0.00    -0.252 OA 
ENDBRANCH   8   9
ENDBRANCH   2   8
TORSDOF 2
ENDMDL
MODEL      202
REMARK 921   NORMALIZED FREE ENERGY PREDICTED BY IDOCK:   -2.11 KCAL/MOL
REMARK 922        TOTAL FREE ENERGY PREDICTED BY IDOCK:   -2.41 KCAL/MOL
REMARK 923 INTER-LIGAND FREE ENERGY PREDICTED BY IDOCK:   -2.10 KCAL/MOL
REMARK 924 INTRA-LIGAND FREE ENERGY PREDICTED BY IDOCK:   -0.31 KCAL/MOL
REMARK 927      BINDING AFFINITY PREDICTED BY RF-SCORE:    0.00 PKD
ROOT
ATOM      1  N   GLU A   1     -10.099   8.254  68.175  1.00  0.00    -0.192 NA 
ATOM      2  CA  GLU A   1     -10.211   7.574  66.845  1.00  0.00    -0.289 C  
ATOM      3  H1  GLU A   1     -11.015   8.285  68.622  1.00  0.00     0.000 HD 
ATOM      4  H2  GLU A   1      -9.677   9.179  68.099  1.00  0.00     0.000 HD 
ATOM      5  OXT GLU A   1     -10.995   5.323  66.219  1.00  0.00    -0.237 OA 
ATOM      6  C   GLU A   1     -10.813   6.169  67.081  1.00  0.00    -0.360 C  
ATOM      7  O   GLU A   1     -11.144   5.984  68.383  1.00  0.00    -0.314 OA 
ENDROOT
BRANCH   2   8
ATOM      8  CB  GLU A   1      -8.835   7.527  66.174  1.00  0.00    -0.185 C  
BRANCH   8   9
ATOM      9  CG  GLU A   1      -8.594   8.676  65.189  1.00  0.00    -0.200 C  
ATOM     10  CD  GLU A   1      -7.696   9.732  65.782  1.00  0.00    -0.110 C  
ATOM     11  OE1 GLU A   1      -6.985  10.406  64.849  1.00  0.00    -0.122 OA 
ATOM     12  OE2 GLU A   1      -7.628   9.991  66.974  1.00  0.00    -0.092 OA 
ENDBRANCH   8   9
ENDBRANCH   2   8
TORSDOF 2
ENDMDL
MODEL      203
REMARK 921   NORMALIZED FREE ENERGY PREDICTED BY IDOCK:   -2.10 KCAL/MOL
REMARK 922        TOTAL FREE ENERGY PREDICTED BY IDOCK:   -2.40 KCAL/MOL
REMARK 923 INTER-LIGAND FREE ENERGY PREDICTED BY IDOCK:   -2.31 KCAL/MOL
REMARK 924 INTRA-LIGAND FREE ENERGY PREDICTED BY IDOCK:   -0.09 KCAL/MOL
REMARK 927      BINDING AFFINITY PREDICTED BY RF-SCORE:    0.00 PKD
ROOT
ATOM      1  N   GLU A   1     -11.616  11.116  68.601  1.00  0.00    -0.296 NA 
ATOM      2  CA  GLU A   1     -10.571  10.416  69.415  1.00  0.00    -0.239 C  
ATOM      3  H1  GLU A   1     -11.487  12.125  68.673  1.00  0.00     0.000 HD 
ATOM      4  H2  GLU A   1     -12.560  10.830  68.859  1.00  0.00     0.000 HD 
ATOM      5  OXT GLU A   1      -8.110  10.474  69.318  1.00  0.00    -0.146 OA 
ATOM      6  C   GLU A   1      -9.186  10.883  68.911  1.00  0.00    -0.160 C  
ATOM      7  O   GLU A   1      -9.303  11.838  67.955  1.00  0.00    -0.172 OA 
ENDROOT
BRANCH   2   8
ATOM      8  CB  GLU A   1     -10.766   8.900  69.307  1.00  0.00    -0.177 C  
BRANCH   8   9
ATOM      9  CG  GLU A   1     -10.711   8.177  70.656  1.00  0.00    -0.238 C  
ATOM     10  CD  GLU A   1     -11.006   6.706  70.506  1.00  0.00    -0.286 C  
ATOM     11  OE1 GLU A   1     -10.413   5.948  71.457  1.00  0.00    -0.217 OA 
ATOM     12  OE2 GLU A   1     -11.727   6.230  69.643  1.00  0.00    -0.382 OA 
ENDBRANCH   8   9
ENDBRANCH   2   8
TORSDOF 2
ENDMDL
MODEL      204
REMARK 921   NORMALIZED FREE ENERGY PREDICTED BY IDOCK:   -2.10 KCAL/MOL
REMARK 922        TOTAL FREE ENERGY PREDICTED BY IDOCK:   -2.40 KCAL/MOL
REMARK 923 INTER-LIGAND FREE ENERGY PREDICTED BY IDOCK:   -2.31 KCAL/MOL
REMARK 924 INTRA-LIGAND FREE ENERGY PREDICTED BY IDOCK:   -0.09 KCAL/MOL
REMARK 927      BINDING AFFINITY PREDICTED BY RF-SCORE:    0.00 PKD
ROOT
ATOM      1  N   GLU A   1      -8.773   9.616  68.272  1.00  0.00    -0.119 NA 
ATOM      2  CA  GLU A   1      -8.628   9.814  69.750  1.00  0.00    -0.201 C  
ATOM      3  H1  GLU A   1      -8.360  10.407  67.779  1.00  0.00     0.000 HD 
ATOM      4  H2  GLU A   1      -9.743   9.457  67.999  1.00  0.00     0.000 HD 
ATOM      5  OXT GLU A   1      -6.641  10.128  71.173  1.00  0.00    -0.333 OA 
ATOM      6  C   GLU A   1      -7.125   9.995  70.059  1.00  0.00    -0.146 C  
ATOM      7  O   GLU A   1      -6.384  10.012  68.923  1.00  0.00    -0.044 OA 
ENDROOT
BRANCH   2   8
ATOM      8  CB  GLU A   1      -9.250   8.625  70.491  1.00  0.00    -0.201 C  
BRANCH   8   9
ATOM      9  CG  GLU A   1     -10.271   9.033  71.558  1.00  0.00    -0.414 C  
ATOM     10  CD  GLU A   1     -11.273   7.935  71.811  1.00  0.00    -0.260 C  
ATOM     11  OE1 GLU A   1     -11.778   7.959  73.065  1.00  0.00    -0.305 OA 
ATOM     12  OE2 GLU A   1     -11.630   7.119  70.975  1.00  0.00    -0.282 OA 
ENDBRANCH   8   9
ENDBRANCH   2   8
TORSDOF 2
ENDMDL
MODEL      205
REMARK 921   NORMALIZED FREE ENERGY PREDICTED BY IDOCK:   -2.08 KCAL/MOL
REMARK 922        TOTAL FREE ENERGY PREDICTED BY IDOCK:   -2.38 KCAL/MOL
REMARK 923 INTER-LIGAND FREE ENERGY PREDICTED BY IDOCK:   -2.23 KCAL/MOL
REMARK 924 INTRA-LIGAND FREE ENERGY PREDICTED BY IDOCK:   -0.16 KCAL/MOL
REMARK 927      BINDING AFFINITY PREDICTED BY RF-SCORE:    0.00 PKD
ROOT
ATOM      1  N   GLU A   1      -8.142   7.275  68.931  1.00  0.00    -0.126 NA 
ATOM      2  CA  GLU A   1      -9.533   6.746  68.757  1.00  0.00    -0.130 C  
ATOM      3  H1  GLU A   1      -7.554   6.950  68.164  1.00  0.00     0.000 HD 
ATOM      4  H2  GLU A   1      -7.752   7.038  69.842  1.00  0.00     0.000 HD 
ATOM      5  OXT GLU A   1     -11.160   6.990  66.923  1.00  0.00    -0.359 OA 
ATOM      6  C   GLU A   1     -10.044   7.202  67.371  1.00  0.00    -0.202 C  
ATOM      7  O   GLU A   1      -9.081   7.863  66.681  1.00  0.00    -0.146 OA 
ENDROOT
BRANCH   2   8
ATOM      8  CB  GLU A   1     -10.417   7.235  69.909  1.00  0.00    -0.236 C  
BRANCH   8   9
ATOM      9  CG  GLU A   1     -11.133   6.105  70.655  1.00  0.00    -0.384 C  
ATOM     10  CD  GLU A   1     -10.443   5.778  71.955  1.00  0.00    -0.218 C  
ATOM     11  OE1 GLU A   1     -11.284   5.279  72.889  1.00  0.00    -0.279 OA 
ATOM     12  OE2 GLU A   1      -9.245   5.912  72.154  1.00  0.00    -0.146 OA 
ENDBRANCH   8   9
ENDBRANCH   2   8
TORSDOF 2
ENDMDL
MODEL      206
REMARK 921   NORMALIZED FREE ENERGY PREDICTED BY IDOCK:   -2.06 KCAL/MOL
REMARK 922        TOTAL FREE ENERGY PREDICTED BY IDOCK:   -2.35 KCAL/MOL
REMARK 923 INTER-LIGAND FREE ENERGY PREDICTED BY IDOCK:   -2.24 KCAL/MOL
REMARK 924 INTRA-LIGAND FREE ENERGY PREDICTED BY IDOCK:   -0.11 KCAL/MOL
REMARK 927      BINDING AFFINITY PREDICTED BY RF-SCORE:    0.00 PKD
ROOT
ATOM      1  N   GLU A   1      -9.149   6.862  71.074  1.00  0.00    -0.155 NA 
ATOM      2  CA  GLU A   1     -10.298   6.905  72.035  1.00  0.00    -0.199 C  
ATOM      3  H1  GLU A   1      -9.489   7.031  70.127  1.00  0.00     0.000 HD 
ATOM      4  H2  GLU A   1      -8.622   5.993  71.144  1.00  0.00     0.000 HD 
ATOM      5  OXT GLU A   1     -11.939   8.670  72.548  1.00  0.00    -0.368 OA 
ATOM      6  C   GLU A   1     -10.994   8.277  71.881  1.00  0.00    -0.287 C  
ATOM      7  O   GLU A   1     -10.437   9.006  70.882  1.00  0.00    -0.215 OA 
ENDROOT
BRANCH   2   8
ATOM      8  CB  GLU A   1      -9.788   6.651  73.457  1.00  0.00    -0.229 C  
BRANCH   8   9
ATOM      9  CG  GLU A   1      -8.956   7.805  74.026  1.00  0.00    -0.273 C  
ATOM     10  CD  GLU A   1      -7.493   7.642  73.703  1.00  0.00    -0.113 C  
ATOM     11  OE1 GLU A   1      -6.834   8.821  73.625  1.00  0.00    -0.322 OA 
ATOM     12  OE2 GLU A   1      -6.933   6.567  73.555  1.00  0.00    -0.077 OA 
ENDBRANCH   8   9
ENDBRANCH   2   8
TORSDOF 2
ENDMDL
MODEL      207
REMARK 921   NORMALIZED FREE ENERGY PREDICTED BY IDOCK:   -2.05 KCAL/MOL
REMARK 922        TOTAL FREE ENERGY PREDICTED BY IDOCK:   -2.34 KCAL/MOL
REMARK 923 INTER-LIGAND FREE ENERGY PREDICTED BY IDOCK:   -2.28 KCAL/MOL
REMARK 924 INTRA-LIGAND FREE ENERGY PREDICTED BY IDOCK:   -0.06 KCAL/MOL
REMARK 927      BINDING AFFINITY PREDICTED BY RF-SCORE:    0.00 PKD
ROOT
ATOM      1  N   GLU A   1     -12.303   8.322  72.211  1.00  0.00    -0.418 NA 
ATOM      2  CA  GLU A   1     -11.094   8.103  71.354  1.00  0.00    -0.247 C  
ATOM      3  H1  GLU A   1     -12.273   9.259  72.612  1.00  0.00     0.000 HD 
ATOM      4  H2  GLU A   1     -12.403   7.601  72.925  1.00  0.00     0.000 HD 
ATOM      5  OXT GLU A   1     -10.244   9.314  69.383  1.00  0.00    -0.195 OA 
ATOM      6  C   GLU A   1     -11.066   9.216  70.281  1.00  0.00    -0.239 C  
ATOM      7  O   GLU A   1     -12.072  10.107  70.466  1.00  0.00    -0.283 OA 
ENDROOT
BRANCH   2   8
ATOM      8  CB  GLU A   1     -11.139   6.695  70.751  1.00  0.00    -0.336 C  
BRANCH   8   9
ATOM      9  CG  GLU A   1      -9.760   6.147  70.370  1.00  0.00    -0.199 C  
ATOM     10  CD  GLU A   1      -9.252   5.168  71.399  1.00  0.00    -0.146 C  
ATOM     11  OE1 GLU A   1      -8.410   4.245  70.880  1.00  0.00    -0.077 OA 
ATOM     12  OE2 GLU A   1      -9.532   5.207  72.587  1.00  0.00    -0.140 OA 
ENDBRANCH   8   9
ENDBRANCH   2   8
TORSDOF 2
ENDMDL
MODEL      208
REMARK 921   NORMALIZED FREE ENERGY PREDICTED BY IDOCK:   -2.04 KCAL/MOL
REMARK 922        TOTAL FREE ENERGY PREDICTED BY IDOCK:   -2.33 KCAL/MOL
REMARK 923 INTER-LIGAND FREE ENERGY PREDICTED BY IDOCK:   -2.29 KCAL/MOL
REMARK 924 INTRA-LIGAND FREE ENERGY PREDICTED BY IDOCK:   -0.04 KCAL/MOL
REMARK 927      BINDING AFFINITY PREDICTED BY RF-SCORE:    0.00 PKD
ROOT
ATOM      1  N   GLU A   1      -8.553   8.956  71.597  1.00  0.00    -0.337 NA 
ATOM      2  CA  GLU A   1      -9.963   8.782  72.071  1.00  0.00    -0.321 C  
ATOM      3  H1  GLU A   1      -7.917   8.924  72.394  1.00  0.00     0.000 HD 
ATOM      4  H2  GLU A   1      -8.435   9.806  71.045  1.00  0.00     0.000 HD 
ATOM      5  OXT GLU A   1     -11.055   6.968  73.330  1.00  0.00    -0.262 OA 
ATOM      6  C   GLU A   1     -10.041   7.448  72.848  1.00  0.00    -0.244 C  
ATOM      7  O   GLU A   1      -8.821   6.866  72.956  1.00  0.00    -0.125 OA 
ENDROOT
BRANCH   2   8
ATOM      8  CB  GLU A   1     -10.918   8.831  70.873  1.00  0.00    -0.315 C  
BRANCH   8   9
ATOM      9  CG  GLU A   1     -10.418   8.043  69.658  1.00  0.00    -0.224 C  
ATOM     10  CD  GLU A   1      -9.868   8.959  68.595  1.00  0.00    -0.167 C  
ATOM     11  OE1 GLU A   1      -8.917   8.372  67.832  1.00  0.00    -0.136 OA 
ATOM     12  OE2 GLU A   1     -10.249  10.104  68.404  1.00  0.00    -0.157 OA 
ENDBRANCH   8   9
ENDBRANCH   2   8
TORSDOF 2
ENDMDL
MODEL      209
REMARK 921   NORMALIZED FREE ENERGY PREDICTED BY IDOCK:   -2.03 KCAL/MOL
REMARK 922        TOTAL FREE ENERGY PREDICTED BY IDOCK:   -2.32 KCAL/MOL
REMARK 923 INTER-LIGAND FREE ENERGY PREDICTED BY IDOCK:   -2.21 KCAL/MOL
REMARK 924 INTRA-LIGAND FREE ENERGY PREDICTED BY IDOCK:   -0.12 KCAL/MOL
REMARK 927      BINDING AFFINITY PREDICTED BY RF-SCORE:    0.00 PKD
ROOT
ATOM      1  N   GLU A   1      -8.447   8.700  68.229  1.00  0.00    -0.130 NA 
ATOM      2  CA  GLU A   1      -9.257   8.392  67.007  1.00  0.00    -0.151 C  
ATOM      3  H1  GLU A   1      -7.523   9.033  67.952  1.00  0.00     0.000 HD 
ATOM      4  H2  GLU A   1      -8.394   7.906  68.866  1.00  0.00     0.000 HD 
ATOM      5  OXT GLU A   1      -9.935   9.792  65.096  1.00  0.00    -0.309 OA 
ATOM      6  C   GLU A   1      -9.313   9.671  66.141  1.00  0.00    -0.194 C  
ATOM      7  O   GLU A   1      -8.559  10.664  66.674  1.00  0.00    -0.133 OA 
ENDROOT
BRANCH   2   8
ATOM      8  CB  GLU A   1     -10.644   7.892  67.423  1.00  0.00    -0.342 C  
BRANCH   8   9
ATOM      9  CG  GLU A   1     -10.608   6.619  68.275  1.00  0.00    -0.291 C  
ATOM     10  CD  GLU A   1     -10.387   5.393  67.425  1.00  0.00    -0.204 C  
ATOM     11  OE1 GLU A   1      -9.767   4.392  68.092  1.00  0.00    -0.159 OA 
ATOM     12  OE2 GLU A   1     -10.751   5.282  66.264  1.00  0.00    -0.294 OA 
ENDBRANCH   8   9
ENDBRANCH   2   8
TORSDOF 2
ENDMDL
MODEL      210
REMARK 921   NORMALIZED FREE ENERGY PREDICTED BY IDOCK:   -2.01 KCAL/MOL
REMARK 922        TOTAL FREE ENERGY PREDICTED BY IDOCK:   -2.30 KCAL/MOL
REMARK 923 INTER-LIGAND FREE ENERGY PREDICTED BY IDOCK:   -2.17 KCAL/MOL
REMARK 924 INTRA-LIGAND FREE ENERGY PREDICTED BY IDOCK:   -0.13 KCAL/MOL
REMARK 927      BINDING AFFINITY PREDICTED BY RF-SCORE:    0.00 PKD
ROOT
ATOM      1  N   GLU A   1      -8.797   7.893  70.351  1.00  0.00    -0.141 NA 
ATOM      2  CA  GLU A   1     -10.076   8.323  71.003  1.00  0.00    -0.191 C  
ATOM      3  H1  GLU A   1      -8.918   7.877  69.339  1.00  0.00     0.000 HD 
ATOM      4  H2  GLU A   1      -8.463   7.000  70.713  1.00  0.00     0.000 HD 
ATOM      5  OXT GLU A   1     -11.426  10.370  70.767  1.00  0.00    -0.328 OA 
ATOM      6  C   GLU A   1     -10.464   9.702  70.422  1.00  0.00    -0.293 C  
ATOM      7  O   GLU A   1      -9.606  10.086  69.444  1.00  0.00    -0.197 OA 
ENDROOT
BRANCH   2   8
ATOM      8  CB  GLU A   1      -9.893   8.348  72.525  1.00  0.00    -0.359 C  
BRANCH   8   9
ATOM      9  CG  GLU A   1      -8.883   7.317  73.038  1.00  0.00    -0.165 C  
ATOM     10  CD  GLU A   1      -9.564   6.045  73.474  1.00  0.00    -0.142 C  
ATOM     11  OE1 GLU A   1      -8.772   4.954  73.358  1.00  0.00    -0.105 OA 
ATOM     12  OE2 GLU A   1     -10.700   5.988  73.919  1.00  0.00    -0.252 OA 
ENDBRANCH   8   9
ENDBRANCH   2   8
TORSDOF 2
ENDMDL
MODEL      211
REMARK 921   NORMALIZED FREE ENERGY PREDICTED BY IDOCK:   -2.01 KCAL/MOL
REMARK 922        TOTAL FREE ENERGY PREDICTED BY IDOCK:   -2.30 KCAL/MOL
REMARK 923 INTER-LIGAND FREE ENERGY PREDICTED BY IDOCK:   -2.43 KCAL/MOL
REMARK 924 INTRA-LIGAND FREE ENERGY PREDICTED BY IDOCK:    0.13 KCAL/MOL
REMARK 927      BINDING AFFINITY PREDICTED BY RF-SCORE:    0.00 PKD
ROOT
ATOM      1  N   GLU A   1      -8.856  11.341  64.501  1.00  0.00    -0.379 NA 
ATOM      2  CA  GLU A   1      -9.338  12.272  65.571  1.00  0.00     0.068 C  
ATOM      3  H1  GLU A   1      -7.900  11.585  64.240  1.00  0.00     0.000 HD 
ATOM      4  H2  GLU A   1      -9.481  11.323  63.696  1.00  0.00     0.000 HD 
ATOM      5  OXT GLU A   1      -8.466  12.773  67.820  1.00  0.00    -0.153 OA 
ATOM      6  C   GLU A   1      -8.350  12.184  66.756  1.00  0.00    -0.111 C  
ATOM      7  O   GLU A   1      -7.301  11.374  66.468  1.00  0.00    -0.133 OA 
ENDROOT
BRANCH   2   8
ATOM      8  CB  GLU A   1     -10.773  11.905  65.963  1.00  0.00    -0.326 C  
BRANCH   8   9
ATOM      9  CG  GLU A   1     -10.868  11.098  67.261  1.00  0.00    -0.326 C  
ATOM     10  CD  GLU A   1     -11.702  11.812  68.295  1.00  0.00    -0.310 C  
ATOM     11  OE1 GLU A   1     -12.307  10.967  69.161  1.00  0.00    -0.435 OA 
ATOM     12  OE2 GLU A   1     -11.808  13.025  68.379  1.00  0.00    -0.323 OA 
ENDBRANCH   8   9
ENDBRANCH   2   8
TORSDOF 2
ENDMDL
MODEL      212
REMARK 921   NORMALIZED FREE ENERGY PREDICTED BY IDOCK:   -2.00 KCAL/MOL
REMARK 922        TOTAL FREE ENERGY PREDICTED BY IDOCK:   -2.29 KCAL/MOL
REMARK 923 INTER-LIGAND FREE ENERGY PREDICTED BY IDOCK:   -2.17 KCAL/MOL
REMARK 924 INTRA-LIGAND FREE ENERGY PREDICTED BY IDOCK:   -0.12 KCAL/MOL
REMARK 927      BINDING AFFINITY PREDICTED BY RF-SCORE:    0.00 PKD
ROOT
ATOM      1  N   GLU A   1     -10.312   7.676  67.301  1.00  0.00    -0.267 NA 
ATOM      2  CA  GLU A   1      -9.060   7.857  68.103  1.00  0.00    -0.133 C  
ATOM      3  H1  GLU A   1     -10.234   6.834  66.731  1.00  0.00     0.000 HD 
ATOM      4  H2  GLU A   1     -10.532   8.500  66.742  1.00  0.00     0.000 HD 
ATOM      5  OXT GLU A   1      -7.948   6.403  69.754  1.00  0.00    -0.114 OA 
ATOM      6  C   GLU A   1      -8.847   6.578  68.945  1.00  0.00    -0.126 C  
ATOM      7  O   GLU A   1      -9.783   5.638  68.663  1.00  0.00    -0.124 OA 
ENDROOT
BRANCH   2   8
ATOM      8  CB  GLU A   1      -9.176   9.122  68.960  1.00  0.00    -0.143 C  
BRANCH   8   9
ATOM      9  CG  GLU A   1     -10.607   9.659  69.069  1.00  0.00    -0.237 C  
ATOM     10  CD  GLU A   1     -10.714  11.060  68.522  1.00  0.00    -0.202 C  
ATOM     11  OE1 GLU A   1     -11.946  11.347  68.042  1.00  0.00    -0.613 OA 
ATOM     12  OE2 GLU A   1      -9.805  11.876  68.530  1.00  0.00    -0.208 OA 
ENDBRANCH   8   9
ENDBRANCH   2   8
TORSDOF 2
ENDMDL
MODEL      213
REMARK 921   NORMALIZED FREE ENERGY PREDICTED BY IDOCK:   -2.00 KCAL/MOL
REMARK 922        TOTAL FREE ENERGY PREDICTED BY IDOCK:   -2.29 KCAL/MOL
REMARK 923 INTER-LIGAND FREE ENERGY PREDICTED BY IDOCK:   -2.01 KCAL/MOL
REMARK 924 INTRA-LIGAND FREE ENERGY PREDICTED BY IDOCK:   -0.27 KCAL/MOL
REMARK 927      BINDING AFFINITY PREDICTED BY RF-SCORE:    0.00 PKD
ROOT
ATOM      1  N   GLU A   1      -9.028   8.275  71.390  1.00  0.00    -0.152 NA 
ATOM      2  CA  GLU A   1     -10.292   8.267  70.587  1.00  0.00    -0.199 C  
ATOM      3  H1  GLU A   1      -9.223   7.958  72.339  1.00  0.00     0.000 HD 
ATOM      4  H2  GLU A   1      -8.569   9.186  71.376  1.00  0.00     0.000 HD 
ATOM      5  OXT GLU A   1     -11.876   6.459  70.046  1.00  0.00    -0.404 OA 
ATOM      6  C   GLU A   1     -10.875   6.836  70.635  1.00  0.00    -0.250 C  
ATOM      7  O   GLU A   1     -10.142   6.030  71.443  1.00  0.00    -0.186 OA 
ENDROOT
BRANCH   2   8
ATOM      8  CB  GLU A   1      -9.999   8.744  69.161  1.00  0.00    -0.193 C  
BRANCH   8   9
ATOM      9  CG  GLU A   1      -9.904  10.268  69.030  1.00  0.00    -0.215 C  
ATOM     10  CD  GLU A   1      -8.470  10.733  69.017  1.00  0.00    -0.133 C  
ATOM     11  OE1 GLU A   1      -8.296  11.887  68.333  1.00  0.00    -0.159 OA 
ATOM     12  OE2 GLU A   1      -7.553  10.160  69.584  1.00  0.00    -0.123 OA 
ENDBRANCH   8   9
ENDBRANCH   2   8
TORSDOF 2
ENDMDL
MODEL      214
REMARK 921   NORMALIZED FREE ENERGY PREDICTED BY IDOCK:   -1.99 KCAL/MOL
REMARK 922        TOTAL FREE ENERGY PREDICTED BY IDOCK:   -2.28 KCAL/MOL
REMARK 923 INTER-LIGAND FREE ENERGY PREDICTED BY IDOCK:   -1.97 KCAL/MOL
REMARK 924 INTRA-LIGAND FREE ENERGY PREDICTED BY IDOCK:   -0.30 KCAL/MOL
REMARK 927      BINDING AFFINITY PREDICTED BY RF-SCORE:    0.00 PKD
ROOT
ATOM      1  N   GLU A   1      -7.894   7.430  68.518  1.00  0.00    -0.120 NA 
ATOM      2  CA  GLU A   1      -9.182   6.698  68.734  1.00  0.00    -0.129 C  
ATOM      3  H1  GLU A   1      -7.300   6.898  67.881  1.00  0.00     0.000 HD 
ATOM      4  H2  GLU A   1      -7.421   7.644  69.396  1.00  0.00     0.000 HD 
ATOM      5  OXT GLU A   1     -10.923   5.948  67.160  1.00  0.00    -0.295 OA 
ATOM      6  C   GLU A   1      -9.836   6.471  67.352  1.00  0.00    -0.133 C  
ATOM      7  O   GLU A   1      -9.037   6.910  66.348  1.00  0.00    -0.155 OA 
ENDROOT
BRANCH   2   8
ATOM      8  CB  GLU A   1     -10.073   7.498  69.691  1.00  0.00    -0.189 C  
BRANCH   8   9
ATOM      9  CG  GLU A   1      -9.722   7.297  71.168  1.00  0.00    -0.171 C  
ATOM     10  CD  GLU A   1      -9.050   8.517  71.746  1.00  0.00    -0.235 C  
ATOM     11  OE1 GLU A   1      -9.257   8.655  73.076  1.00  0.00    -0.257 OA 
ATOM     12  OE2 GLU A   1      -8.359   9.294  71.105  1.00  0.00    -0.291 OA 
ENDBRANCH   8   9
ENDBRANCH   2   8
TORSDOF 2
ENDMDL
MODEL      215
REMARK 921   NORMALIZED FREE ENERGY PREDICTED BY IDOCK:   -1.98 KCAL/MOL
REMARK 922        TOTAL FREE ENERGY PREDICTED BY IDOCK:   -2.27 KCAL/MOL
REMARK 923 INTER-LIGAND FREE ENERGY PREDICTED BY IDOCK:   -2.11 KCAL/MOL
REMARK 924 INTRA-LIGAND FREE ENERGY PREDICTED BY IDOCK:   -0.16 KCAL/MOL
REMARK 927      BINDING AFFINITY PREDICTED BY RF-SCORE:    0.00 PKD
ROOT
ATOM      1  N   GLU A   1      -9.149   6.371  68.592  1.00  0.00    -0.128 NA 
ATOM      2  CA  GLU A   1     -10.336   6.144  67.706  1.00  0.00    -0.198 C  
ATOM      3  H1  GLU A   1      -8.876   5.491  69.030  1.00  0.00     0.000 HD 
ATOM      4  H2  GLU A   1      -9.316   7.106  69.278  1.00  0.00     0.000 HD 
ATOM      5  OXT GLU A   1     -10.675   4.656  65.772  1.00  0.00    -0.310 OA 
ATOM      6  C   GLU A   1      -9.960   5.052  66.679  1.00  0.00    -0.221 C  
ATOM      7  O   GLU A   1      -8.720   4.555  66.916  1.00  0.00    -0.111 OA 
ENDROOT
BRANCH   2   8
ATOM      8  CB  GLU A   1     -10.747   7.466  67.048  1.00  0.00    -0.389 C  
BRANCH   8   9
ATOM      9  CG  GLU A   1      -9.819   8.636  67.392  1.00  0.00    -0.249 C  
ATOM     10  CD  GLU A   1      -9.149   9.189  66.160  1.00  0.00    -0.187 C  
ATOM     11  OE1 GLU A   1      -8.834  10.500  66.272  1.00  0.00    -0.151 OA 
ATOM     12  OE2 GLU A   1      -8.880   8.532  65.166  1.00  0.00    -0.165 OA 
ENDBRANCH   8   9
ENDBRANCH   2   8
TORSDOF 2
ENDMDL
MODEL      216
REMARK 921   NORMALIZED FREE ENERGY PREDICTED BY IDOCK:   -1.98 KCAL/MOL
REMARK 922        TOTAL FREE ENERGY PREDICTED BY IDOCK:   -2.27 KCAL/MOL
REMARK 923 INTER-LIGAND FREE ENERGY PREDICTED BY IDOCK:   -2.02 KCAL/MOL
REMARK 924 INTRA-LIGAND FREE ENERGY PREDICTED BY IDOCK:   -0.25 KCAL/MOL
REMARK 927      BINDING AFFINITY PREDICTED BY RF-SCORE:    0.00 PKD
ROOT
ATOM      1  N   GLU A   1      -8.247   7.540  68.091  1.00  0.00    -0.124 NA 
ATOM      2  CA  GLU A   1      -8.811   7.480  66.705  1.00  0.00    -0.146 C  
ATOM      3  H1  GLU A   1      -7.302   7.157  68.093  1.00  0.00     0.000 HD 
ATOM      4  H2  GLU A   1      -8.850   7.079  68.772  1.00  0.00     0.000 HD 
ATOM      5  OXT GLU A   1      -8.027   8.440  64.575  1.00  0.00    -0.131 OA 
ATOM      6  C   GLU A   1      -7.849   8.246  65.768  1.00  0.00    -0.098 C  
ATOM      7  O   GLU A   1      -6.746   8.673  66.432  1.00  0.00    -0.068 OA 
ENDROOT
BRANCH   2   8
ATOM      8  CB  GLU A   1     -10.231   8.056  66.702  1.00  0.00    -0.315 C  
BRANCH   8   9
ATOM      9  CG  GLU A   1     -10.373   9.342  67.523  1.00  0.00    -0.323 C  
ATOM     10  CD  GLU A   1     -10.856  10.489  66.673  1.00  0.00    -0.096 C  
ATOM     11  OE1 GLU A   1     -11.549  11.414  67.376  1.00  0.00    -0.509 OA 
ATOM     12  OE2 GLU A   1     -10.628  10.608  65.479  1.00  0.00    -0.212 OA 
ENDBRANCH   8   9
ENDBRANCH   2   8
TORSDOF 2
ENDMDL
MODEL      217
REMARK 921   NORMALIZED FREE ENERGY PREDICTED BY IDOCK:   -1.96 KCAL/MOL
REMARK 922        TOTAL FREE ENERGY PREDICTED BY IDOCK:   -2.25 KCAL/MOL
REMARK 923 INTER-LIGAND FREE ENERGY PREDICTED BY IDOCK:   -2.12 KCAL/MOL
REMARK 924 INTRA-LIGAND FREE ENERGY PREDICTED BY IDOCK:   -0.13 KCAL/MOL
REMARK 927      BINDING AFFINITY PREDICTED BY RF-SCORE:    0.00 PKD
ROOT
ATOM      1  N   GLU A   1     -11.456  10.970  68.731  1.00  0.00    -0.279 NA 
ATOM      2  CA  GLU A   1     -10.583  10.163  69.643  1.00  0.00    -0.257 C  
ATOM      3  H1  GLU A   1     -11.243  11.961  68.842  1.00  0.00     0.000 HD 
ATOM      4  H2  GLU A   1     -12.446  10.772  68.872  1.00  0.00     0.000 HD 
ATOM      5  OXT GLU A   1      -8.132   9.988  69.832  1.00  0.00    -0.171 OA 
ATOM      6  C   GLU A   1      -9.111  10.503  69.313  1.00  0.00    -0.145 C  
ATOM      7  O   GLU A   1      -9.026  11.477  68.374  1.00  0.00    -0.167 OA 
ENDROOT
BRANCH   2   8
ATOM      8  CB  GLU A   1     -10.903   8.674  69.477  1.00  0.00    -0.138 C  
BRANCH   8   9
ATOM      9  CG  GLU A   1     -10.628   8.141  68.067  1.00  0.00    -0.188 C  
ATOM     10  CD  GLU A   1     -10.937   6.669  67.964  1.00  0.00    -0.249 C  
ATOM     11  OE1 GLU A   1     -11.293   6.290  66.715  1.00  0.00    -0.229 OA 
ATOM     12  OE2 GLU A   1     -10.849   5.878  68.890  1.00  0.00    -0.296 OA 
ENDBRANCH   8   9
ENDBRANCH   2   8
TORSDOF 2
ENDMDL
MODEL      218
REMARK 921   NORMALIZED FREE ENERGY PREDICTED BY IDOCK:   -1.94 KCAL/MOL
REMARK 922        TOTAL FREE ENERGY PREDICTED BY IDOCK:   -2.22 KCAL/MOL
REMARK 923 INTER-LIGAND FREE ENERGY PREDICTED BY IDOCK:   -2.07 KCAL/MOL
REMARK 924 INTRA-LIGAND FREE ENERGY PREDICTED BY IDOCK:   -0.14 KCAL/MOL
REMARK 927      BINDING AFFINITY PREDICTED BY RF-SCORE:    0.00 PKD
ROOT
ATOM      1  N   GLU A   1     -10.108  11.265  66.268  1.00  0.00    -0.222 NA 
ATOM      2  CA  GLU A   1     -11.042  11.260  67.440  1.00  0.00    -0.297 C  
ATOM      3  H1  GLU A   1     -10.035  12.211  65.893  1.00  0.00     0.000 HD 
ATOM      4  H2  GLU A   1     -10.382  10.590  65.555  1.00  0.00     0.000 HD 
ATOM      5  OXT GLU A   1     -10.999  12.493  69.573  1.00  0.00    -0.077 OA 
ATOM      6  C   GLU A   1     -10.510  12.278  68.474  1.00  0.00    -0.232 C  
ATOM      7  O   GLU A   1      -9.422  12.938  68.006  1.00  0.00    -0.201 OA 
ENDROOT
BRANCH   2   8
ATOM      8  CB  GLU A   1     -11.152   9.839  68.003  1.00  0.00    -0.168 C  
BRANCH   8   9
ATOM      9  CG  GLU A   1      -9.825   9.074  68.001  1.00  0.00    -0.197 C  
ATOM     10  CD  GLU A   1      -9.941   7.770  67.254  1.00  0.00    -0.212 C  
ATOM     11  OE1 GLU A   1      -8.770   7.366  66.710  1.00  0.00    -0.124 OA 
ATOM     12  OE2 GLU A   1     -10.967   7.114  67.165  1.00  0.00    -0.342 OA 
ENDBRANCH   8   9
ENDBRANCH   2   8
TORSDOF 2
ENDMDL
MODEL      219
REMARK 921   NORMALIZED FREE ENERGY PREDICTED BY IDOCK:   -1.93 KCAL/MOL
REMARK 922        TOTAL FREE ENERGY PREDICTED BY IDOCK:   -2.21 KCAL/MOL
REMARK 923 INTER-LIGAND FREE ENERGY PREDICTED BY IDOCK:   -2.12 KCAL/MOL
REMARK 924 INTRA-LIGAND FREE ENERGY PREDICTED BY IDOCK:   -0.09 KCAL/MOL
REMARK 927      BINDING AFFINITY PREDICTED BY RF-SCORE:    0.00 PKD
ROOT
ATOM      1  N   GLU A   1     -10.178   6.451  68.164  1.00  0.00    -0.152 NA 
ATOM      2  CA  GLU A   1     -10.936   6.396  69.455  1.00  0.00    -0.359 C  
ATOM      3  H1  GLU A   1     -10.604   7.141  67.546  1.00  0.00     0.000 HD 
ATOM      4  H2  GLU A   1     -10.103   5.534  67.723  1.00  0.00     0.000 HD 
ATOM      5  OXT GLU A   1     -11.434   8.128  71.135  1.00  0.00    -0.268 OA 
ATOM      6  C   GLU A   1     -10.947   7.820  70.058  1.00  0.00    -0.214 C  
ATOM      7  O   GLU A   1     -10.357   8.715  69.228  1.00  0.00    -0.214 OA 
ENDROOT
BRANCH   2   8
ATOM      8  CB  GLU A   1     -10.295   5.360  70.384  1.00  0.00    -0.353 C  
BRANCH   8   9
ATOM      9  CG  GLU A   1      -9.171   4.555  69.723  1.00  0.00    -0.191 C  
ATOM     10  CD  GLU A   1      -9.265   3.090  70.068  1.00  0.00    -0.146 C  
ATOM     11  OE1 GLU A   1      -8.742   2.288  69.112  1.00  0.00    -0.067 OA 
ATOM     12  OE2 GLU A   1      -9.730   2.654  71.110  1.00  0.00    -0.154 OA 
ENDBRANCH   8   9
ENDBRANCH   2   8
TORSDOF 2
ENDMDL
MODEL      220
REMARK 921   NORMALIZED FREE ENERGY PREDICTED BY IDOCK:   -1.92 KCAL/MOL
REMARK 922        TOTAL FREE ENERGY PREDICTED BY IDOCK:   -2.20 KCAL/MOL
REMARK 923 INTER-LIGAND FREE ENERGY PREDICTED BY IDOCK:   -2.10 KCAL/MOL
REMARK 924 INTRA-LIGAND FREE ENERGY PREDICTED BY IDOCK:   -0.09 KCAL/MOL
REMARK 927      BINDING AFFINITY PREDICTED BY RF-SCORE:    0.00 PKD
ROOT
ATOM      1  N   GLU A   1     -10.386  10.443  65.064  1.00  0.00    -0.262 NA 
ATOM      2  CA  GLU A   1      -9.763  10.632  66.413  1.00  0.00    -0.196 C  
ATOM      3  H1  GLU A   1     -11.303  10.008  65.169  1.00  0.00     0.000 HD 
ATOM      4  H2  GLU A   1      -9.782   9.918  64.432  1.00  0.00     0.000 HD 
ATOM      5  OXT GLU A   1     -10.522  11.863  68.408  1.00  0.00    -0.203 OA 
ATOM      6  C   GLU A   1     -10.735  11.476  67.270  1.00  0.00    -0.244 C  
ATOM      7  O   GLU A   1     -11.890  11.728  66.605  1.00  0.00    -0.569 OA 
ENDROOT
BRANCH   2   8
ATOM      8  CB  GLU A   1      -8.386  11.286  66.256  1.00  0.00    -0.142 C  
BRANCH   8   9
ATOM      9  CG  GLU A   1      -7.298  10.638  67.117  1.00  0.00    -0.098 C  
ATOM     10  CD  GLU A   1      -6.235  11.635  67.506  1.00  0.00    -0.083 C  
ATOM     11  OE1 GLU A   1      -5.630  11.333  68.677  1.00  0.00    -0.043 OA 
ATOM     12  OE2 GLU A   1      -5.916  12.602  66.832  1.00  0.00    -0.262 OA 
ENDBRANCH   8   9
ENDBRANCH   2   8
TORSDOF 2
ENDMDL
MODEL      221
REMARK 921   NORMALIZED FREE ENERGY PREDICTED BY IDOCK:   -1.90 KCAL/MOL
REMARK 922        TOTAL FREE ENERGY PREDICTED BY IDOCK:   -2.17 KCAL/MOL
REMARK 923 INTER-LIGAND FREE ENERGY PREDICTED BY IDOCK:   -2.11 KCAL/MOL
REMARK 924 INTRA-LIGAND FREE ENERGY PREDICTED BY IDOCK:   -0.06 KCAL/MOL
REMARK 927      BINDING AFFINITY PREDICTED BY RF-SCORE:    0.00 PKD
ROOT
ATOM      1  N   GLU A   1      -8.472  10.545  69.776  1.00  0.00    -0.382 NA 
ATOM      2  CA  GLU A   1      -9.369   9.392  69.444  1.00  0.00    -0.169 C  
ATOM      3  H1  GLU A   1      -8.873  11.079  70.547  1.00  0.00     0.000 HD 
ATOM      4  H2  GLU A   1      -8.280  11.129  68.963  1.00  0.00     0.000 HD 
ATOM      5  OXT GLU A   1     -10.184   7.507  70.806  1.00  0.00    -0.194 OA 
ATOM      6  C   GLU A   1      -9.553   8.550  70.728  1.00  0.00    -0.180 C  
ATOM      7  O   GLU A   1      -8.937   9.126  71.791  1.00  0.00    -0.345 OA 
ENDROOT
BRANCH   2   8
ATOM      8  CB  GLU A   1      -8.767   8.589  68.286  1.00  0.00    -0.143 C  
BRANCH   8   9
ATOM      9  CG  GLU A   1      -8.540   9.418  67.018  1.00  0.00    -0.131 C  
ATOM     10  CD  GLU A   1      -8.826   8.614  65.775  1.00  0.00    -0.193 C  
ATOM     11  OE1 GLU A   1      -9.226   9.377  64.732  1.00  0.00    -0.228 OA 
ATOM     12  OE2 GLU A   1      -8.685   7.404  65.688  1.00  0.00    -0.145 OA 
ENDBRANCH   8   9
ENDBRANCH   2   8
TORSDOF 2
ENDMDL
MODEL      222
REMARK 921   NORMALIZED FREE ENERGY PREDICTED BY IDOCK:   -1.90 KCAL/MOL
REMARK 922        TOTAL FREE ENERGY PREDICTED BY IDOCK:   -2.17 KCAL/MOL
REMARK 923 INTER-LIGAND FREE ENERGY PREDICTED BY IDOCK:   -2.05 KCAL/MOL
REMARK 924 INTRA-LIGAND FREE ENERGY PREDICTED BY IDOCK:   -0.13 KCAL/MOL
REMARK 927      BINDING AFFINITY PREDICTED BY RF-SCORE:    0.00 PKD
ROOT
ATOM      1  N   GLU A   1      -7.806   7.625  69.626  1.00  0.00    -0.106 NA 
ATOM      2  CA  GLU A   1      -9.025   6.818  69.954  1.00  0.00    -0.144 C  
ATOM      3  H1  GLU A   1      -7.204   7.094  68.996  1.00  0.00     0.000 HD 
ATOM      4  H2  GLU A   1      -7.312   7.933  70.462  1.00  0.00     0.000 HD 
ATOM      5  OXT GLU A   1     -10.773   5.835  68.523  1.00  0.00    -0.236 OA 
ATOM      6  C   GLU A   1      -9.721   6.447  68.625  1.00  0.00    -0.123 C  
ATOM      7  O   GLU A   1      -9.004   6.872  67.555  1.00  0.00    -0.118 OA 
ENDROOT
BRANCH   2   8
ATOM      8  CB  GLU A   1      -9.930   7.615  70.900  1.00  0.00    -0.183 C  
BRANCH   8   9
ATOM      9  CG  GLU A   1     -10.488   8.898  70.277  1.00  0.00    -0.239 C  
ATOM     10  CD  GLU A   1     -11.520   9.541  71.169  1.00  0.00    -0.360 C  
ATOM     11  OE1 GLU A   1     -11.597  10.882  71.008  1.00  0.00    -0.211 OA 
ATOM     12  OE2 GLU A   1     -12.243   8.929  71.940  1.00  0.00    -0.325 OA 
ENDBRANCH   8   9
ENDBRANCH   2   8
TORSDOF 2
ENDMDL
MODEL      223
REMARK 921   NORMALIZED FREE ENERGY PREDICTED BY IDOCK:   -1.89 KCAL/MOL
REMARK 922        TOTAL FREE ENERGY PREDICTED BY IDOCK:   -2.16 KCAL/MOL
REMARK 923 INTER-LIGAND FREE ENERGY PREDICTED BY IDOCK:   -2.01 KCAL/MOL
REMARK 924 INTRA-LIGAND FREE ENERGY PREDICTED BY IDOCK:   -0.15 KCAL/MOL
REMARK 927      BINDING AFFINITY PREDICTED BY RF-SCORE:    0.00 PKD
ROOT
ATOM      1  N   GLU A   1      -8.566   5.082  70.101  1.00  0.00    -0.097 NA 
ATOM      2  CA  GLU A   1      -8.505   6.394  70.821  1.00  0.00    -0.135 C  
ATOM      3  H1  GLU A   1      -8.197   4.345  70.701  1.00  0.00     0.000 HD 
ATOM      4  H2  GLU A   1      -8.092   5.116  69.198  1.00  0.00     0.000 HD 
ATOM      5  OXT GLU A   1      -9.488   7.138  72.954  1.00  0.00    -0.141 OA 
ATOM      6  C   GLU A   1      -9.291   6.246  72.144  1.00  0.00    -0.150 C  
ATOM      7  O   GLU A   1      -9.731   4.975  72.319  1.00  0.00    -0.151 OA 
ENDROOT
BRANCH   2   8
ATOM      8  CB  GLU A   1      -9.059   7.502  69.919  1.00  0.00    -0.144 C  
BRANCH   8   9
ATOM      9  CG  GLU A   1      -9.364   7.036  68.492  1.00  0.00    -0.135 C  
ATOM     10  CD  GLU A   1     -10.816   6.662  68.331  1.00  0.00    -0.255 C  
ATOM     11  OE1 GLU A   1     -11.268   6.828  67.067  1.00  0.00    -0.393 OA 
ATOM     12  OE2 GLU A   1     -11.519   6.222  69.228  1.00  0.00    -0.411 OA 
ENDBRANCH   8   9
ENDBRANCH   2   8
TORSDOF 2
ENDMDL
MODEL      224
REMARK 921   NORMALIZED FREE ENERGY PREDICTED BY IDOCK:   -1.89 KCAL/MOL
REMARK 922        TOTAL FREE ENERGY PREDICTED BY IDOCK:   -2.16 KCAL/MOL
REMARK 923 INTER-LIGAND FREE ENERGY PREDICTED BY IDOCK:   -2.70 KCAL/MOL
REMARK 924 INTRA-LIGAND FREE ENERGY PREDICTED BY IDOCK:    0.54 KCAL/MOL
REMARK 927      BINDING AFFINITY PREDICTED BY RF-SCORE:    0.00 PKD
ROOT
ATOM      1  N   GLU A   1      -9.727   9.924  67.246  1.00  0.00    -0.166 NA 
ATOM      2  CA  GLU A   1     -11.020  10.668  67.374  1.00  0.00    -0.298 C  
ATOM      3  H1  GLU A   1      -9.758   9.321  66.424  1.00  0.00     0.000 HD 
ATOM      4  H2  GLU A   1      -9.495   9.406  68.093  1.00  0.00     0.000 HD 
ATOM      5  OXT GLU A   1     -12.182  12.208  65.840  1.00  0.00    -0.604 OA 
ATOM      6  C   GLU A   1     -11.248  11.452  66.061  1.00  0.00    -0.112 C  
ATOM      7  O   GLU A   1     -10.280  11.184  65.150  1.00  0.00    -0.259 OA 
ENDROOT
BRANCH   2   8
ATOM      8  CB  GLU A   1     -10.972  11.574  68.609  1.00  0.00    -0.270 C  
BRANCH   8   9
ATOM      9  CG  GLU A   1     -11.479  12.996  68.347  1.00  0.00    -0.345 C  
ATOM     10  CD  GLU A   1     -10.340  13.977  68.237  1.00  0.00    -0.247 C  
ATOM     11  OE1 GLU A   1     -10.631  15.039  67.452  1.00  0.00    -0.262 OA 
ATOM     12  OE2 GLU A   1      -9.269  13.859  68.812  1.00  0.00    -0.135 OA 
ENDBRANCH   8   9
ENDBRANCH   2   8
TORSDOF 2
ENDMDL
MODEL      225
REMARK 921   NORMALIZED FREE ENERGY PREDICTED BY IDOCK:   -1.89 KCAL/MOL
REMARK 922        TOTAL FREE ENERGY PREDICTED BY IDOCK:   -2.16 KCAL/MOL
REMARK 923 INTER-LIGAND FREE ENERGY PREDICTED BY IDOCK:   -2.06 KCAL/MOL
REMARK 924 INTRA-LIGAND FREE ENERGY PREDICTED BY IDOCK:   -0.10 KCAL/MOL
REMARK 927      BINDING AFFINITY PREDICTED BY RF-SCORE:    0.00 PKD
ROOT
ATOM      1  N   GLU A   1      -9.093   8.999  64.001  1.00  0.00    -0.386 NA 
ATOM      2  CA  GLU A   1      -8.734   8.937  65.454  1.00  0.00    -0.191 C  
ATOM      3  H1  GLU A   1      -8.245   9.105  63.443  1.00  0.00     0.000 HD 
ATOM      4  H2  GLU A   1      -9.776   9.730  63.805  1.00  0.00     0.000 HD 
ATOM      5  OXT GLU A   1      -7.276   7.403  66.717  1.00  0.00    -0.082 OA 
ATOM      6  C   GLU A   1      -7.737   7.771  65.647  1.00  0.00    -0.101 C  
ATOM      7  O   GLU A   1      -7.407   7.200  64.462  1.00  0.00    -0.069 OA 
ENDROOT
BRANCH   2   8
ATOM      8  CB  GLU A   1     -10.007   8.778  66.292  1.00  0.00    -0.315 C  
BRANCH   8   9
ATOM      9  CG  GLU A   1     -10.260   9.945  67.251  1.00  0.00    -0.277 C  
ATOM     10  CD  GLU A   1     -10.282   9.484  68.687  1.00  0.00    -0.195 C  
ATOM     11  OE1 GLU A   1      -9.903  10.448  69.557  1.00  0.00    -0.222 OA 
ATOM     12  OE2 GLU A   1     -10.633   8.372  69.050  1.00  0.00    -0.218 OA 
ENDBRANCH   8   9
ENDBRANCH   2   8
TORSDOF 2
ENDMDL
MODEL      226
REMARK 921   NORMALIZED FREE ENERGY PREDICTED BY IDOCK:   -1.88 KCAL/MOL
REMARK 922        TOTAL FREE ENERGY PREDICTED BY IDOCK:   -2.16 KCAL/MOL
REMARK 923 INTER-LIGAND FREE ENERGY PREDICTED BY IDOCK:   -2.03 KCAL/MOL
REMARK 924 INTRA-LIGAND FREE ENERGY PREDICTED BY IDOCK:   -0.13 KCAL/MOL
REMARK 927      BINDING AFFINITY PREDICTED BY RF-SCORE:    0.00 PKD
ROOT
ATOM      1  N   GLU A   1      -9.418   9.861  65.870  1.00  0.00    -0.197 NA 
ATOM      2  CA  GLU A   1     -10.373  10.032  67.011  1.00  0.00    -0.243 C  
ATOM      3  H1  GLU A   1      -9.835  10.230  65.016  1.00  0.00     0.000 HD 
ATOM      4  H2  GLU A   1      -9.116   8.893  65.763  1.00  0.00     0.000 HD 
ATOM      5  OXT GLU A   1     -11.439  12.037  67.967  1.00  0.00    -0.280 OA 
ATOM      6  C   GLU A   1     -10.724  11.534  67.114  1.00  0.00    -0.254 C  
ATOM      7  O   GLU A   1     -10.152  12.246  66.112  1.00  0.00    -0.234 OA 
ENDROOT
BRANCH   2   8
ATOM      8  CB  GLU A   1      -9.745   9.477  68.294  1.00  0.00    -0.163 C  
BRANCH   8   9
ATOM      9  CG  GLU A   1     -10.642   8.481  69.035  1.00  0.00    -0.173 C  
ATOM     10  CD  GLU A   1      -9.979   7.133  69.167  1.00  0.00    -0.168 C  
ATOM     11  OE1 GLU A   1     -10.394   6.445  70.256  1.00  0.00    -0.192 OA 
ATOM     12  OE2 GLU A   1      -9.174   6.678  68.370  1.00  0.00    -0.125 OA 
ENDBRANCH   8   9
ENDBRANCH   2   8
TORSDOF 2
ENDMDL
MODEL      227
REMARK 921   NORMALIZED FREE ENERGY PREDICTED BY IDOCK:   -1.86 KCAL/MOL
REMARK 922        TOTAL FREE ENERGY PREDICTED BY IDOCK:   -2.13 KCAL/MOL
REMARK 923 INTER-LIGAND FREE ENERGY PREDICTED BY IDOCK:   -1.90 KCAL/MOL
REMARK 924 INTRA-LIGAND FREE ENERGY PREDICTED BY IDOCK:   -0.22 KCAL/MOL
REMARK 927      BINDING AFFINITY PREDICTED BY RF-SCORE:    0.00 PKD
ROOT
ATOM      1  N   GLU A   1     -10.702   7.479  72.456  1.00  0.00    -0.259 NA 
ATOM      2  CA  GLU A   1      -9.591   8.463  72.661  1.00  0.00    -0.267 C  
ATOM      3  H1  GLU A   1     -11.354   7.839  71.759  1.00  0.00     0.000 HD 
ATOM      4  H2  GLU A   1     -11.169   7.239  73.331  1.00  0.00     0.000 HD 
ATOM      5  OXT GLU A   1      -7.951   9.428  71.096  1.00  0.00    -0.322 OA 
ATOM      6  C   GLU A   1      -8.925   8.717  71.289  1.00  0.00    -0.231 C  
ATOM      7  O   GLU A   1      -9.572   8.061  70.295  1.00  0.00    -0.170 OA 
ENDROOT
BRANCH   2   8
ATOM      8  CB  GLU A   1      -8.612   7.923  73.709  1.00  0.00    -0.323 C  
BRANCH   8   9
ATOM      9  CG  GLU A   1      -8.465   6.398  73.682  1.00  0.00    -0.127 C  
ATOM     10  CD  GLU A   1      -7.119   5.983  73.144  1.00  0.00    -0.085 C  
ATOM     11  OE1 GLU A   1      -6.700   4.793  73.631  1.00  0.00    -0.063 OA 
ATOM     12  OE2 GLU A   1      -6.473   6.624  72.330  1.00  0.00    -0.056 OA 
ENDBRANCH   8   9
ENDBRANCH   2   8
TORSDOF 2
ENDMDL
MODEL      228
REMARK 921   NORMALIZED FREE ENERGY PREDICTED BY IDOCK:   -1.83 KCAL/MOL
REMARK 922        TOTAL FREE ENERGY PREDICTED BY IDOCK:   -2.10 KCAL/MOL
REMARK 923 INTER-LIGAND FREE ENERGY PREDICTED BY IDOCK:   -1.92 KCAL/MOL
REMARK 924 INTRA-LIGAND FREE ENERGY PREDICTED BY IDOCK:   -0.18 KCAL/MOL
REMARK 927      BINDING AFFINITY PREDICTED BY RF-SCORE:    0.00 PKD
ROOT
ATOM      1  N   GLU A   1     -11.136   4.499  65.326  1.00  0.00    -0.949 NA 
ATOM      2  CA  GLU A   1      -9.655   4.567  65.110  1.00  0.00    -0.159 C  
ATOM      3  H1  GLU A   1     -11.617   4.598  64.432  1.00  0.00     0.000 HD 
ATOM      4  H2  GLU A   1     -11.457   5.181  66.013  1.00  0.00     0.000 HD 
ATOM      5  OXT GLU A   1      -8.138   3.203  63.730  1.00  0.00    -0.080 OA 
ATOM      6  C   GLU A   1      -9.273   3.465  64.096  1.00  0.00    -0.127 C  
ATOM      7  O   GLU A   1     -10.370   2.818  63.630  1.00  0.00    -0.169 OA 
ENDROOT
BRANCH   2   8
ATOM      8  CB  GLU A   1      -8.933   4.418  66.454  1.00  0.00    -0.117 C  
BRANCH   8   9
ATOM      9  CG  GLU A   1      -8.925   2.983  66.990  1.00  0.00    -0.176 C  
ATOM     10  CD  GLU A   1      -7.543   2.565  67.427  1.00  0.00    -0.061 C  
ATOM     11  OE1 GLU A   1      -7.558   1.632  68.406  1.00  0.00    -0.046 OA 
ATOM     12  OE2 GLU A   1      -6.507   2.988  66.939  1.00  0.00    -0.035 OA 
ENDBRANCH   8   9
ENDBRANCH   2   8
TORSDOF 2
ENDMDL
MODEL      229
REMARK 921   NORMALIZED FREE ENERGY PREDICTED BY IDOCK:   -1.83 KCAL/MOL
REMARK 922        TOTAL FREE ENERGY PREDICTED BY IDOCK:   -2.10 KCAL/MOL
REMARK 923 INTER-LIGAND FREE ENERGY PREDICTED BY IDOCK:   -2.17 KCAL/MOL
REMARK 924 INTRA-LIGAND FREE ENERGY PREDICTED BY IDOCK:    0.06 KCAL/MOL
REMARK 927      BINDING AFFINITY PREDICTED BY RF-SCORE:    0.00 PKD
ROOT
ATOM      1  N   GLU A   1     -11.937   7.497  70.132  1.00  0.00    -0.463 NA 
ATOM      2  CA  GLU A   1     -10.502   7.477  69.705  1.00  0.00    -0.230 C  
ATOM      3  H1  GLU A   1     -12.236   6.552  70.373  1.00  0.00     0.000 HD 
ATOM      4  H2  GLU A   1     -12.541   7.924  69.431  1.00  0.00     0.000 HD 
ATOM      5  OXT GLU A   1      -8.458   6.736  70.866  1.00  0.00    -0.133 OA 
ATOM      6  C   GLU A   1      -9.673   6.858  70.855  1.00  0.00    -0.178 C  
ATOM      7  O   GLU A   1     -10.470   6.437  71.868  1.00  0.00    -0.204 OA 
ENDROOT
BRANCH   2   8
ATOM      8  CB  GLU A   1     -10.053   8.897  69.344  1.00  0.00    -0.202 C  
BRANCH   8   9
ATOM      9  CG  GLU A   1      -8.930   8.940  68.303  1.00  0.00    -0.137 C  
ATOM     10  CD  GLU A   1      -9.468   8.778  66.904  1.00  0.00    -0.177 C  
ATOM     11  OE1 GLU A   1      -8.698   9.380  65.969  1.00  0.00    -0.139 OA 
ATOM     12  OE2 GLU A   1     -10.474   8.147  66.619  1.00  0.00    -0.303 OA 
ENDBRANCH   8   9
ENDBRANCH   2   8
TORSDOF 2
ENDMDL
MODEL      230
REMARK 921   NORMALIZED FREE ENERGY PREDICTED BY IDOCK:   -1.82 KCAL/MOL
REMARK 922        TOTAL FREE ENERGY PREDICTED BY IDOCK:   -2.09 KCAL/MOL
REMARK 923 INTER-LIGAND FREE ENERGY PREDICTED BY IDOCK:   -1.86 KCAL/MOL
REMARK 924 INTRA-LIGAND FREE ENERGY PREDICTED BY IDOCK:   -0.22 KCAL/MOL
REMARK 927      BINDING AFFINITY PREDICTED BY RF-SCORE:    0.00 PKD
ROOT
ATOM      1  N   GLU A   1      -7.809   3.019  65.629  1.00  0.00    -0.084 NA 
ATOM      2  CA  GLU A   1      -9.278   3.220  65.837  1.00  0.00    -0.148 C  
ATOM      3  H1  GLU A   1      -7.657   2.387  64.843  1.00  0.00     0.000 HD 
ATOM      4  H2  GLU A   1      -7.340   2.697  66.476  1.00  0.00     0.000 HD 
ATOM      5  OXT GLU A   1     -11.042   4.073  64.343  1.00  0.00    -0.330 OA 
ATOM      6  C   GLU A   1      -9.876   3.752  64.515  1.00  0.00    -0.190 C  
ATOM      7  O   GLU A   1      -8.941   3.803  63.534  1.00  0.00    -0.097 OA 
ENDROOT
BRANCH   2   8
ATOM      8  CB  GLU A   1      -9.505   4.169  67.019  1.00  0.00    -0.215 C  
BRANCH   8   9
ATOM      9  CG  GLU A   1      -8.928   5.571  66.798  1.00  0.00    -0.114 C  
ATOM     10  CD  GLU A   1      -9.920   6.642  67.176  1.00  0.00    -0.160 C  
ATOM     11  OE1 GLU A   1      -9.331   7.792  67.576  1.00  0.00    -0.137 OA 
ATOM     12  OE2 GLU A   1     -11.133   6.516  67.104  1.00  0.00    -0.390 OA 
ENDBRANCH   8   9
ENDBRANCH   2   8
TORSDOF 2
ENDMDL
MODEL      231
REMARK 921   NORMALIZED FREE ENERGY PREDICTED BY IDOCK:   -1.82 KCAL/MOL
REMARK 922        TOTAL FREE ENERGY PREDICTED BY IDOCK:   -2.08 KCAL/MOL
REMARK 923 INTER-LIGAND FREE ENERGY PREDICTED BY IDOCK:   -1.89 KCAL/MOL
REMARK 924 INTRA-LIGAND FREE ENERGY PREDICTED BY IDOCK:   -0.20 KCAL/MOL
REMARK 927      BINDING AFFINITY PREDICTED BY RF-SCORE:    0.00 PKD
ROOT
ATOM      1  N   GLU A   1      -7.802   5.290  66.710  1.00  0.00    -0.100 NA 
ATOM      2  CA  GLU A   1      -8.040   4.492  67.955  1.00  0.00    -0.092 C  
ATOM      3  H1  GLU A   1      -7.482   4.672  65.964  1.00  0.00     0.000 HD 
ATOM      4  H2  GLU A   1      -7.160   6.066  66.868  1.00  0.00     0.000 HD 
ATOM      5  OXT GLU A   1      -9.519   2.575  68.413  1.00  0.00    -0.203 OA 
ATOM      6  C   GLU A   1      -9.059   3.379  67.617  1.00  0.00    -0.169 C  
ATOM      7  O   GLU A   1      -9.377   3.382  66.298  1.00  0.00    -0.167 OA 
ENDROOT
BRANCH   2   8
ATOM      8  CB  GLU A   1      -8.521   5.420  69.075  1.00  0.00    -0.100 C  
BRANCH   8   9
ATOM      9  CG  GLU A   1      -9.954   5.926  68.881  1.00  0.00    -0.201 C  
ATOM     10  CD  GLU A   1     -10.764   5.787  70.144  1.00  0.00    -0.320 C  
ATOM     11  OE1 GLU A   1     -11.755   6.703  70.240  1.00  0.00    -0.389 OA 
ATOM     12  OE2 GLU A   1     -10.583   4.924  70.990  1.00  0.00    -0.146 OA 
ENDBRANCH   8   9
ENDBRANCH   2   8
TORSDOF 2
ENDMDL
MODEL      232
REMARK 921   NORMALIZED FREE ENERGY PREDICTED BY IDOCK:   -1.78 KCAL/MOL
REMARK 922        TOTAL FREE ENERGY PREDICTED BY IDOCK:   -2.04 KCAL/MOL
REMARK 923 INTER-LIGAND FREE ENERGY PREDICTED BY IDOCK:   -1.82 KCAL/MOL
REMARK 924 INTRA-LIGAND FREE ENERGY PREDICTED BY IDOCK:   -0.23 KCAL/MOL
REMARK 927      BINDING AFFINITY PREDICTED BY RF-SCORE:    0.00 PKD
ROOT
ATOM      1  N   GLU A   1      -9.924   6.163  67.893  1.00  0.00    -0.126 NA 
ATOM      2  CA  GLU A   1     -10.679   5.489  68.998  1.00  0.00    -0.161 C  
ATOM      3  H1  GLU A   1     -10.527   6.844  67.432  1.00  0.00     0.000 HD 
ATOM      4  H2  GLU A   1      -9.528   5.493  67.235  1.00  0.00     0.000 HD 
ATOM      5  OXT GLU A   1     -11.803   6.389  70.998  1.00  0.00    -0.343 OA 
ATOM      6  C   GLU A   1     -11.191   6.587  69.959  1.00  0.00    -0.393 C  
ATOM      7  O   GLU A   1     -10.896   7.827  69.497  1.00  0.00    -0.230 OA 
ENDROOT
BRANCH   2   8
ATOM      8  CB  GLU A   1      -9.772   4.466  69.691  1.00  0.00    -0.289 C  
BRANCH   8   9
ATOM      9  CG  GLU A   1      -8.282   4.672  69.401  1.00  0.00    -0.073 C  
ATOM     10  CD  GLU A   1      -7.553   5.198  70.612  1.00  0.00    -0.071 C  
ATOM     11  OE1 GLU A   1      -6.248   4.842  70.638  1.00  0.00    -0.018 OA 
ATOM     12  OE2 GLU A   1      -8.060   5.900  71.473  1.00  0.00    -0.112 OA 
ENDBRANCH   8   9
ENDBRANCH   2   8
TORSDOF 2
ENDMDL
MODEL      233
REMARK 921   NORMALIZED FREE ENERGY PREDICTED BY IDOCK:   -1.77 KCAL/MOL
REMARK 922        TOTAL FREE ENERGY PREDICTED BY IDOCK:   -2.03 KCAL/MOL
REMARK 923 INTER-LIGAND FREE ENERGY PREDICTED BY IDOCK:   -1.88 KCAL/MOL
REMARK 924 INTRA-LIGAND FREE ENERGY PREDICTED BY IDOCK:   -0.14 KCAL/MOL
REMARK 927      BINDING AFFINITY PREDICTED BY RF-SCORE:    0.00 PKD
ROOT
ATOM      1  N   GLU A   1      -9.498   3.960  71.018  1.00  0.00    -0.153 NA 
ATOM      2  CA  GLU A   1      -8.843   4.752  72.108  1.00  0.00    -0.124 C  
ATOM      3  H1  GLU A   1      -9.020   3.066  70.909  1.00  0.00     0.000 HD 
ATOM      4  H2  GLU A   1      -9.546   4.479  70.142  1.00  0.00     0.000 HD 
ATOM      5  OXT GLU A   1      -8.462   4.253  74.491  1.00  0.00    -0.092 OA 
ATOM      6  C   GLU A   1      -8.868   3.896  73.395  1.00  0.00    -0.096 C  
ATOM      7  O   GLU A   1      -9.384   2.664  73.162  1.00  0.00    -0.087 OA 
ENDROOT
BRANCH   2   8
ATOM      8  CB  GLU A   1      -9.562   6.095  72.271  1.00  0.00    -0.162 C  
BRANCH   8   9
ATOM      9  CG  GLU A   1     -11.078   5.962  72.446  1.00  0.00    -0.328 C  
ATOM     10  CD  GLU A   1     -11.812   7.097  71.778  1.00  0.00    -0.303 C  
ATOM     11  OE1 GLU A   1     -13.058   6.757  71.376  1.00  0.00    -0.289 OA 
ATOM     12  OE2 GLU A   1     -11.360   8.222  71.634  1.00  0.00    -0.249 OA 
ENDBRANCH   8   9
ENDBRANCH   2   8
TORSDOF 2
ENDMDL
MODEL      234
REMARK 921   NORMALIZED FREE ENERGY PREDICTED BY IDOCK:   -1.75 KCAL/MOL
REMARK 922        TOTAL FREE ENERGY PREDICTED BY IDOCK:   -2.00 KCAL/MOL
REMARK 923 INTER-LIGAND FREE ENERGY PREDICTED BY IDOCK:   -1.79 KCAL/MOL
REMARK 924 INTRA-LIGAND FREE ENERGY PREDICTED BY IDOCK:   -0.21 KCAL/MOL
REMARK 927      BINDING AFFINITY PREDICTED BY RF-SCORE:    0.00 PKD
ROOT
ATOM      1  N   GLU A   1      -5.864   8.837  70.337  1.00  0.00    -0.027 NA 
ATOM      2  CA  GLU A   1      -7.217   9.115  70.918  1.00  0.00    -0.111 C  
ATOM      3  H1  GLU A   1      -5.146   9.263  70.923  1.00  0.00     0.000 HD 
ATOM      4  H2  GLU A   1      -5.795   9.135  69.365  1.00  0.00     0.000 HD 
ATOM      5  OXT GLU A   1      -8.190   8.595  73.121  1.00  0.00    -0.409 OA 
ATOM      6  C   GLU A   1      -7.228   8.581  72.369  1.00  0.00    -0.043 C  
ATOM      7  O   GLU A   1      -6.012   8.101  72.730  1.00  0.00    -0.051 OA 
ENDROOT
BRANCH   2   8
ATOM      8  CB  GLU A   1      -8.295   8.474  70.039  1.00  0.00    -0.123 C  
BRANCH   8   9
ATOM      9  CG  GLU A   1      -9.526   9.363  69.831  1.00  0.00    -0.235 C  
ATOM     10  CD  GLU A   1     -10.706   8.867  70.626  1.00  0.00    -0.234 C  
ATOM     11  OE1 GLU A   1     -11.566   9.854  70.968  1.00  0.00    -0.329 OA 
ATOM     12  OE2 GLU A   1     -10.902   7.696  70.915  1.00  0.00    -0.233 OA 
ENDBRANCH   8   9
ENDBRANCH   2   8
TORSDOF 2
ENDMDL
MODEL      235
REMARK 921   NORMALIZED FREE ENERGY PREDICTED BY IDOCK:   -1.74 KCAL/MOL
REMARK 922        TOTAL FREE ENERGY PREDICTED BY IDOCK:   -2.00 KCAL/MOL
REMARK 923 INTER-LIGAND FREE ENERGY PREDICTED BY IDOCK:   -1.87 KCAL/MOL
REMARK 924 INTRA-LIGAND FREE ENERGY PREDICTED BY IDOCK:   -0.14 KCAL/MOL
REMARK 927      BINDING AFFINITY PREDICTED BY RF-SCORE:    0.00 PKD
ROOT
ATOM      1  N   GLU A   1     -11.523   6.234  70.398  1.00  0.00    -0.373 NA 
ATOM      2  CA  GLU A   1     -10.992   7.632  70.302  1.00  0.00    -0.252 C  
ATOM      3  H1  GLU A   1     -12.269   6.104  69.715  1.00  0.00     0.000 HD 
ATOM      4  H2  GLU A   1     -11.823   6.001  71.344  1.00  0.00     0.000 HD 
ATOM      5  OXT GLU A   1      -9.989   8.877  68.428  1.00  0.00    -0.166 OA 
ATOM      6  C   GLU A   1     -10.523   7.862  68.847  1.00  0.00    -0.190 C  
ATOM      7  O   GLU A   1     -10.797   6.790  68.063  1.00  0.00    -0.235 OA 
ENDROOT
BRANCH   2   8
ATOM      8  CB  GLU A   1      -9.871   7.827  71.328  1.00  0.00    -0.194 C  
BRANCH   8   9
ATOM      9  CG  GLU A   1      -8.536   7.208  70.904  1.00  0.00    -0.133 C  
ATOM     10  CD  GLU A   1      -8.459   5.751  71.284  1.00  0.00    -0.128 C  
ATOM     11  OE1 GLU A   1      -7.656   5.033  70.465  1.00  0.00    -0.066 OA 
ATOM     12  OE2 GLU A   1      -9.027   5.256  72.245  1.00  0.00    -0.128 OA 
ENDBRANCH   8   9
ENDBRANCH   2   8
TORSDOF 2
ENDMDL
MODEL      236
REMARK 921   NORMALIZED FREE ENERGY PREDICTED BY IDOCK:   -1.72 KCAL/MOL
REMARK 922        TOTAL FREE ENERGY PREDICTED BY IDOCK:   -1.97 KCAL/MOL
REMARK 923 INTER-LIGAND FREE ENERGY PREDICTED BY IDOCK:   -1.81 KCAL/MOL
REMARK 924 INTRA-LIGAND FREE ENERGY PREDICTED BY IDOCK:   -0.16 KCAL/MOL
REMARK 927      BINDING AFFINITY PREDICTED BY RF-SCORE:    0.00 PKD
ROOT
ATOM      1  N   GLU A   1     -10.489   6.124  68.512  1.00  0.00    -0.210 NA 
ATOM      2  CA  GLU A   1     -10.582   6.635  67.108  1.00  0.00    -0.331 C  
ATOM      3  H1  GLU A   1     -10.464   5.104  68.505  1.00  0.00     0.000 HD 
ATOM      4  H2  GLU A   1     -11.236   6.486  69.104  1.00  0.00     0.000 HD 
ATOM      5  OXT GLU A   1      -9.118   6.324  65.151  1.00  0.00     0.127 OA 
ATOM      6  C   GLU A   1      -9.382   6.069  66.316  1.00  0.00    -0.145 C  
ATOM      7  O   GLU A   1      -8.646   5.218  67.073  1.00  0.00    -0.107 OA 
ENDROOT
BRANCH   2   8
ATOM      8  CB  GLU A   1     -10.619   8.167  67.120  1.00  0.00    -0.355 C  
BRANCH   8   9
ATOM      9  CG  GLU A   1      -9.473   8.802  67.913  1.00  0.00    -0.160 C  
ATOM     10  CD  GLU A   1      -9.991   9.664  69.037  1.00  0.00    -0.185 C  
ATOM     11  OE1 GLU A   1      -9.131   9.747  70.079  1.00  0.00    -0.218 OA 
ATOM     12  OE2 GLU A   1     -11.057  10.259  69.016  1.00  0.00    -0.225 OA 
ENDBRANCH   8   9
ENDBRANCH   2   8
TORSDOF 2
ENDMDL
MODEL      237
REMARK 921   NORMALIZED FREE ENERGY PREDICTED BY IDOCK:   -1.71 KCAL/MOL
REMARK 922        TOTAL FREE ENERGY PREDICTED BY IDOCK:   -1.96 KCAL/MOL
REMARK 923 INTER-LIGAND FREE ENERGY PREDICTED BY IDOCK:   -1.86 KCAL/MOL
REMARK 924 INTRA-LIGAND FREE ENERGY PREDICTED BY IDOCK:   -0.11 KCAL/MOL
REMARK 927      BINDING AFFINITY PREDICTED BY RF-SCORE:    0.00 PKD
ROOT
ATOM      1  N   GLU A   1      -9.698   6.351  71.997  1.00  0.00    -0.151 NA 
ATOM      2  CA  GLU A   1     -10.430   7.105  70.929  1.00  0.00    -0.210 C  
ATOM      3  H1  GLU A   1     -10.312   5.640  72.395  1.00  0.00     0.000 HD 
ATOM      4  H2  GLU A   1      -9.314   6.970  72.710  1.00  0.00     0.000 HD 
ATOM      5  OXT GLU A   1     -11.515   6.357  68.847  1.00  0.00    -0.314 OA 
ATOM      6  C   GLU A   1     -10.925   6.082  69.881  1.00  0.00    -0.388 C  
ATOM      7  O   GLU A   1     -10.641   4.811  70.257  1.00  0.00    -0.112 OA 
ENDROOT
BRANCH   2   8
ATOM      8  CB  GLU A   1      -9.508   8.174  70.331  1.00  0.00    -0.163 C  
BRANCH   8   9
ATOM      9  CG  GLU A   1      -8.022   7.924  70.605  1.00  0.00    -0.096 C  
ATOM     10  CD  GLU A   1      -7.289   9.212  70.887  1.00  0.00    -0.116 C  
ATOM     11  OE1 GLU A   1      -6.211   9.042  71.686  1.00  0.00    -0.077 OA 
ATOM     12  OE2 GLU A   1      -7.601  10.299  70.427  1.00  0.00    -0.228 OA 
ENDBRANCH   8   9
ENDBRANCH   2   8
TORSDOF 2
ENDMDL
MODEL      238
REMARK 921   NORMALIZED FREE ENERGY PREDICTED BY IDOCK:   -1.67 KCAL/MOL
REMARK 922        TOTAL FREE ENERGY PREDICTED BY IDOCK:   -1.92 KCAL/MOL
REMARK 923 INTER-LIGAND FREE ENERGY PREDICTED BY IDOCK:   -1.62 KCAL/MOL
REMARK 924 INTRA-LIGAND FREE ENERGY PREDICTED BY IDOCK:   -0.30 KCAL/MOL
REMARK 927      BINDING AFFINITY PREDICTED BY RF-SCORE:    0.00 PKD
ROOT
ATOM      1  N   GLU A   1      -9.603   5.388  73.195  1.00  0.00    -0.145 NA 
ATOM      2  CA  GLU A   1      -9.419   6.545  72.262  1.00  0.00    -0.143 C  
ATOM      3  H1  GLU A   1      -9.374   5.676  74.147  1.00  0.00     0.000 HD 
ATOM      4  H2  GLU A   1      -9.070   4.569  72.903  1.00  0.00     0.000 HD 
ATOM      5  OXT GLU A   1     -10.437   8.789  72.215  1.00  0.00    -0.329 OA 
ATOM      6  C   GLU A   1     -10.304   7.707  72.768  1.00  0.00    -0.295 C  
ATOM      7  O   GLU A   1     -10.917   7.391  73.936  1.00  0.00    -0.196 OA 
ENDROOT
BRANCH   2   8
ATOM      8  CB  GLU A   1      -9.763   6.112  70.833  1.00  0.00    -0.203 C  
BRANCH   8   9
ATOM      9  CG  GLU A   1      -8.545   5.670  70.016  1.00  0.00    -0.122 C  
ATOM     10  CD  GLU A   1      -8.367   4.173  70.056  1.00  0.00    -0.061 C  
ATOM     11  OE1 GLU A   1      -7.753   3.684  68.955  1.00  0.00    -0.053 OA 
ATOM     12  OE2 GLU A   1      -8.704   3.463  70.990  1.00  0.00    -0.070 OA 
ENDBRANCH   8   9
ENDBRANCH   2   8
TORSDOF 2
ENDMDL
MODEL      239
REMARK 921   NORMALIZED FREE ENERGY PREDICTED BY IDOCK:   -1.65 KCAL/MOL
REMARK 922        TOTAL FREE ENERGY PREDICTED BY IDOCK:   -1.90 KCAL/MOL
REMARK 923 INTER-LIGAND FREE ENERGY PREDICTED BY IDOCK:   -1.59 KCAL/MOL
REMARK 924 INTRA-LIGAND FREE ENERGY PREDICTED BY IDOCK:   -0.30 KCAL/MOL
REMARK 927      BINDING AFFINITY PREDICTED BY RF-SCORE:    0.00 PKD
ROOT
ATOM      1  N   GLU A   1      -8.529   4.648  68.185  1.00  0.00    -0.101 NA 
ATOM      2  CA  GLU A   1      -8.903   4.344  69.604  1.00  0.00    -0.088 C  
ATOM      3  H1  GLU A   1      -7.732   4.074  67.911  1.00  0.00     0.000 HD 
ATOM      4  H2  GLU A   1      -8.354   5.642  68.038  1.00  0.00     0.000 HD 
ATOM      5  OXT GLU A   1      -9.574   2.245  70.706  1.00  0.00    -0.140 OA 
ATOM      6  C   GLU A   1      -9.191   2.829  69.703  1.00  0.00    -0.136 C  
ATOM      7  O   GLU A   1      -8.946   2.199  68.527  1.00  0.00    -0.093 OA 
ENDROOT
BRANCH   2   8
ATOM      8  CB  GLU A   1     -10.100   5.208  70.016  1.00  0.00    -0.345 C  
BRANCH   8   9
ATOM      9  CG  GLU A   1      -9.716   6.425  70.862  1.00  0.00    -0.193 C  
ATOM     10  CD  GLU A   1      -9.651   7.679  70.028  1.00  0.00    -0.164 C  
ATOM     11  OE1 GLU A   1      -9.915   8.800  70.737  1.00  0.00    -0.188 OA 
ATOM     12  OE2 GLU A   1      -9.360   7.705  68.842  1.00  0.00    -0.146 OA 
ENDBRANCH   8   9
ENDBRANCH   2   8
TORSDOF 2
ENDMDL
MODEL      240
REMARK 921   NORMALIZED FREE ENERGY PREDICTED BY IDOCK:   -1.64 KCAL/MOL
REMARK 922        TOTAL FREE ENERGY PREDICTED BY IDOCK:   -1.88 KCAL/MOL
REMARK 923 INTER-LIGAND FREE ENERGY PREDICTED BY IDOCK:   -1.66 KCAL/MOL
REMARK 924 INTRA-LIGAND FREE ENERGY PREDICTED BY IDOCK:   -0.22 KCAL/MOL
REMARK 927      BINDING AFFINITY PREDICTED BY RF-SCORE:    0.00 PKD
ROOT
ATOM      1  N   GLU A   1      -9.271   6.303  71.788  1.00  0.00    -0.144 NA 
ATOM      2  CA  GLU A   1      -9.579   6.195  70.327  1.00  0.00    -0.163 C  
ATOM      3  H1  GLU A   1      -9.957   5.771  72.323  1.00  0.00     0.000 HD 
ATOM      4  H2  GLU A   1      -9.211   7.273  72.098  1.00  0.00     0.000 HD 
ATOM      5  OXT GLU A   1      -9.766   4.243  68.834  1.00  0.00    -0.168 OA 
ATOM      6  C   GLU A   1      -9.597   4.694  69.956  1.00  0.00    -0.188 C  
ATOM      7  O   GLU A   1      -9.419   3.912  71.050  1.00  0.00    -0.139 OA 
ENDROOT
BRANCH   2   8
ATOM      8  CB  GLU A   1      -8.548   6.995  69.523  1.00  0.00    -0.134 C  
BRANCH   8   9
ATOM      9  CG  GLU A   1      -9.157   8.152  68.725  1.00  0.00    -0.144 C  
ATOM     10  CD  GLU A   1      -9.671   7.689  67.386  1.00  0.00    -0.161 C  
ATOM     11  OE1 GLU A   1     -10.695   8.442  66.923  1.00  0.00    -0.279 OA 
ATOM     12  OE2 GLU A   1      -9.205   6.755  66.753  1.00  0.00    -0.140 OA 
ENDBRANCH   8   9
ENDBRANCH   2   8
TORSDOF 2
ENDMDL
MODEL      241
REMARK 921   NORMALIZED FREE ENERGY PREDICTED BY IDOCK:   -1.61 KCAL/MOL
REMARK 922        TOTAL FREE ENERGY PREDICTED BY IDOCK:   -1.85 KCAL/MOL
REMARK 923 INTER-LIGAND FREE ENERGY PREDICTED BY IDOCK:   -1.73 KCAL/MOL
REMARK 924 INTRA-LIGAND FREE ENERGY PREDICTED BY IDOCK:   -0.12 KCAL/MOL
REMARK 927      BINDING AFFINITY PREDICTED BY RF-SCORE:    0.00 PKD
ROOT
ATOM      1  N   GLU A   1      -8.318  12.375  68.748  1.00  0.00    -0.347 NA 
ATOM      2  CA  GLU A   1      -7.646  12.349  67.410  1.00  0.00    -0.160 C  
ATOM      3  H1  GLU A   1      -9.295  12.102  68.646  1.00  0.00     0.000 HD 
ATOM      4  H2  GLU A   1      -8.218  13.278  69.211  1.00  0.00     0.000 HD 
ATOM      5  OXT GLU A   1      -7.346  10.540  65.763  1.00  0.00    -0.142 OA 
ATOM      6  C   GLU A   1      -7.816  10.929  66.822  1.00  0.00    -0.141 C  
ATOM      7  O   GLU A   1      -8.582  10.149  67.624  1.00  0.00    -0.118 OA 
ENDROOT
BRANCH   2   8
ATOM      8  CB  GLU A   1      -6.178  12.759  67.564  1.00  0.00    -0.159 C  
BRANCH   8   9
ATOM      9  CG  GLU A   1      -5.922  13.688  68.754  1.00  0.00    -0.084 C  
ATOM     10  CD  GLU A   1      -6.110  15.135  68.375  1.00  0.00    -0.107 C  
ATOM     11  OE1 GLU A   1      -6.488  15.910  69.418  1.00  0.00    -0.145 OA 
ATOM     12  OE2 GLU A   1      -5.914  15.588  67.258  1.00  0.00    -0.326 OA 
ENDBRANCH   8   9
ENDBRANCH   2   8
TORSDOF 2
ENDMDL
MODEL      242
REMARK 921   NORMALIZED FREE ENERGY PREDICTED BY IDOCK:   -1.60 KCAL/MOL
REMARK 922        TOTAL FREE ENERGY PREDICTED BY IDOCK:   -1.84 KCAL/MOL
REMARK 923 INTER-LIGAND FREE ENERGY PREDICTED BY IDOCK:   -1.68 KCAL/MOL
REMARK 924 INTRA-LIGAND FREE ENERGY PREDICTED BY IDOCK:   -0.17 KCAL/MOL
REMARK 927      BINDING AFFINITY PREDICTED BY RF-SCORE:    0.00 PKD
ROOT
ATOM      1  N   GLU A   1      -9.345  10.313  70.079  1.00  0.00    -0.389 NA 
ATOM      2  CA  GLU A   1      -8.113   9.650  69.544  1.00  0.00    -0.129 C  
ATOM      3  H1  GLU A   1      -9.495  11.198  69.595  1.00  0.00     0.000 HD 
ATOM      4  H2  GLU A   1      -9.310  10.430  71.091  1.00  0.00     0.000 HD 
ATOM      5  OXT GLU A   1      -7.499   8.927  67.270  1.00  0.00    -0.084 OA 
ATOM      6  C   GLU A   1      -8.291   9.478  68.018  1.00  0.00    -0.118 C  
ATOM      7  O   GLU A   1      -9.448  10.041  67.588  1.00  0.00    -0.143 OA 
ENDROOT
BRANCH   2   8
ATOM      8  CB  GLU A   1      -7.888   8.320  70.272  1.00  0.00    -0.092 C  
BRANCH   8   9
ATOM      9  CG  GLU A   1      -8.362   8.330  71.728  1.00  0.00    -0.193 C  
ATOM     10  CD  GLU A   1      -9.657   7.576  71.892  1.00  0.00    -0.148 C  
ATOM     11  OE1 GLU A   1      -9.807   7.044  73.127  1.00  0.00    -0.168 OA 
ATOM     12  OE2 GLU A   1     -10.511   7.472  71.025  1.00  0.00    -0.213 OA 
ENDBRANCH   8   9
ENDBRANCH   2   8
TORSDOF 2
ENDMDL
MODEL      243
REMARK 921   NORMALIZED FREE ENERGY PREDICTED BY IDOCK:   -1.59 KCAL/MOL
REMARK 922        TOTAL FREE ENERGY PREDICTED BY IDOCK:   -1.83 KCAL/MOL
REMARK 923 INTER-LIGAND FREE ENERGY PREDICTED BY IDOCK:   -1.73 KCAL/MOL
REMARK 924 INTRA-LIGAND FREE ENERGY PREDICTED BY IDOCK:   -0.10 KCAL/MOL
REMARK 927      BINDING AFFINITY PREDICTED BY RF-SCORE:    0.00 PKD
ROOT
ATOM      1  N   GLU A   1     -10.934  10.926  68.436  1.00  0.00    -0.217 NA 
ATOM      2  CA  GLU A   1     -10.523   9.521  68.753  1.00  0.00    -0.219 C  
ATOM      3  H1  GLU A   1     -11.948  11.010  68.507  1.00  0.00     0.000 HD 
ATOM      4  H2  GLU A   1     -10.585  11.233  67.528  1.00  0.00     0.000 HD 
ATOM      5  OXT GLU A   1     -10.863   8.128  70.757  1.00  0.00    -0.220 OA 
ATOM      6  C   GLU A   1     -11.058   9.177  70.162  1.00  0.00    -0.222 C  
ATOM      7  O   GLU A   1     -11.806  10.188  70.668  1.00  0.00    -0.293 OA 
ENDROOT
BRANCH   2   8
ATOM      8  CB  GLU A   1      -9.000   9.394  68.646  1.00  0.00    -0.132 C  
BRANCH   8   9
ATOM      9  CG  GLU A   1      -8.276  10.742  68.567  1.00  0.00    -0.136 C  
ATOM     10  CD  GLU A   1      -7.085  10.676  67.645  1.00  0.00    -0.084 C  
ATOM     11  OE1 GLU A   1      -6.791  11.868  67.076  1.00  0.00    -0.144 OA 
ATOM     12  OE2 GLU A   1      -6.422   9.670  67.444  1.00  0.00    -0.067 OA 
ENDBRANCH   8   9
ENDBRANCH   2   8
TORSDOF 2
ENDMDL
MODEL      244
REMARK 921   NORMALIZED FREE ENERGY PREDICTED BY IDOCK:   -1.59 KCAL/MOL
REMARK 922        TOTAL FREE ENERGY PREDICTED BY IDOCK:   -1.82 KCAL/MOL
REMARK 923 INTER-LIGAND FREE ENERGY PREDICTED BY IDOCK:   -1.75 KCAL/MOL
REMARK 924 INTRA-LIGAND FREE ENERGY PREDICTED BY IDOCK:   -0.07 KCAL/MOL
REMARK 927      BINDING AFFINITY PREDICTED BY RF-SCORE:    0.00 PKD
ROOT
ATOM      1  N   GLU A   1      -7.987   7.726  69.336  1.00  0.00    -0.122 NA 
ATOM      2  CA  GLU A   1      -9.473   7.838  69.489  1.00  0.00    -0.160 C  
ATOM      3  H1  GLU A   1      -7.661   8.408  68.652  1.00  0.00     0.000 HD 
ATOM      4  H2  GLU A   1      -7.695   6.778  69.103  1.00  0.00     0.000 HD 
ATOM      5  OXT GLU A   1     -10.914   9.725  70.146  1.00  0.00    -0.250 OA 
ATOM      6  C   GLU A   1      -9.800   9.295  69.889  1.00  0.00    -0.199 C  
ATOM      7  O   GLU A   1      -8.686  10.067  69.904  1.00  0.00    -0.197 OA 
ENDROOT
BRANCH   2   8
ATOM      8  CB  GLU A   1      -9.962   6.813  70.518  1.00  0.00    -0.197 C  
BRANCH   8   9
ATOM      9  CG  GLU A   1      -9.034   5.603  70.668  1.00  0.00    -0.157 C  
ATOM     10  CD  GLU A   1      -9.684   4.505  71.472  1.00  0.00    -0.175 C  
ATOM     11  OE1 GLU A   1      -9.229   3.273  71.148  1.00  0.00    -0.101 OA 
ATOM     12  OE2 GLU A   1     -10.512   4.690  72.350  1.00  0.00    -0.197 OA 
ENDBRANCH   8   9
ENDBRANCH   2   8
TORSDOF 2
ENDMDL
MODEL      245
REMARK 921   NORMALIZED FREE ENERGY PREDICTED BY IDOCK:   -1.56 KCAL/MOL
REMARK 922        TOTAL FREE ENERGY PREDICTED BY IDOCK:   -1.80 KCAL/MOL
REMARK 923 INTER-LIGAND FREE ENERGY PREDICTED BY IDOCK:   -1.90 KCAL/MOL
REMARK 924 INTRA-LIGAND FREE ENERGY PREDICTED BY IDOCK:    0.11 KCAL/MOL
REMARK 927      BINDING AFFINITY PREDICTED BY RF-SCORE:    0.00 PKD
ROOT
ATOM      1  N   GLU A   1     -10.591   5.563  73.640  1.00  0.00    -0.264 NA 
ATOM      2  CA  GLU A   1      -9.937   5.006  72.413  1.00  0.00    -0.178 C  
ATOM      3  H1  GLU A   1      -9.934   5.538  74.419  1.00  0.00     0.000 HD 
ATOM      4  H2  GLU A   1     -11.466   5.087  73.859  1.00  0.00     0.000 HD 
ATOM      5  OXT GLU A   1      -7.904   5.677  71.194  1.00  0.00    -0.104 OA 
ATOM      6  C   GLU A   1      -8.655   5.827  72.146  1.00  0.00    -0.129 C  
ATOM      7  O   GLU A   1      -8.440   6.742  73.123  1.00  0.00    -0.118 OA 
ENDROOT
BRANCH   2   8
ATOM      8  CB  GLU A   1     -10.925   5.045  71.242  1.00  0.00     0.120 C  
BRANCH   8   9
ATOM      9  CG  GLU A   1     -10.683   6.207  70.273  1.00  0.00    -0.355 C  
ATOM     10  CD  GLU A   1     -11.534   7.401  70.621  1.00  0.00    -0.282 C  
ATOM     11  OE1 GLU A   1     -10.978   8.575  70.244  1.00  0.00    -0.242 OA 
ATOM     12  OE2 GLU A   1     -12.629   7.336  71.158  1.00  0.00    -0.351 OA 
ENDBRANCH   8   9
ENDBRANCH   2   8
TORSDOF 2
ENDMDL
MODEL      246
REMARK 921   NORMALIZED FREE ENERGY PREDICTED BY IDOCK:   -1.52 KCAL/MOL
REMARK 922        TOTAL FREE ENERGY PREDICTED BY IDOCK:   -1.75 KCAL/MOL
REMARK 923 INTER-LIGAND FREE ENERGY PREDICTED BY IDOCK:   -1.62 KCAL/MOL
REMARK 924 INTRA-LIGAND FREE ENERGY PREDICTED BY IDOCK:   -0.13 KCAL/MOL
REMARK 927      BINDING AFFINITY PREDICTED BY RF-SCORE:    0.00 PKD
ROOT
ATOM      1  N   GLU A   1      -7.035  11.050  66.096  1.00  0.00    -0.295 NA 
ATOM      2  CA  GLU A   1      -7.033  10.764  67.566  1.00  0.00    -0.084 C  
ATOM      3  H1  GLU A   1      -6.149  10.752  65.688  1.00  0.00     0.000 HD 
ATOM      4  H2  GLU A   1      -7.241  12.029  65.895  1.00  0.00     0.000 HD 
ATOM      5  OXT GLU A   1      -6.743   8.665  68.825  1.00  0.00    -0.056 OA 
ATOM      6  C   GLU A   1      -6.762   9.253  67.754  1.00  0.00    -0.068 C  
ATOM      7  O   GLU A   1      -6.520   8.642  66.568  1.00  0.00    -0.057 OA 
ENDROOT
BRANCH   2   8
ATOM      8  CB  GLU A   1      -8.365  11.211  68.179  1.00  0.00    -0.136 C  
BRANCH   8   9
ATOM      9  CG  GLU A   1      -8.849  12.571  67.666  1.00  0.00    -0.179 C  
ATOM     10  CD  GLU A   1     -10.195  12.460  66.996  1.00  0.00    -0.220 C  
ATOM     11  OE1 GLU A   1     -10.918  13.601  67.070  1.00  0.00    -0.284 OA 
ATOM     12  OE2 GLU A   1     -10.597  11.465  66.414  1.00  0.00    -0.246 OA 
ENDBRANCH   8   9
ENDBRANCH   2   8
TORSDOF 2
ENDMDL
MODEL      247
REMARK 921   NORMALIZED FREE ENERGY PREDICTED BY IDOCK:   -1.51 KCAL/MOL
REMARK 922        TOTAL FREE ENERGY PREDICTED BY IDOCK:   -1.74 KCAL/MOL
REMARK 923 INTER-LIGAND FREE ENERGY PREDICTED BY IDOCK:   -1.65 KCAL/MOL
REMARK 924 INTRA-LIGAND FREE ENERGY PREDICTED BY IDOCK:   -0.09 KCAL/MOL
REMARK 927      BINDING AFFINITY PREDICTED BY RF-SCORE:    0.00 PKD
ROOT
ATOM      1  N   GLU A   1      -8.902   5.707  64.003  1.00  0.00    -0.339 NA 
ATOM      2  CA  GLU A   1      -8.280   4.556  64.733  1.00  0.00    -0.108 C  
ATOM      3  H1  GLU A   1      -9.201   5.403  63.077  1.00  0.00     0.000 HD 
ATOM      4  H2  GLU A   1      -8.283   6.516  63.962  1.00  0.00     0.000 HD 
ATOM      5  OXT GLU A   1      -9.160   2.337  65.345  1.00  0.00    -0.130 OA 
ATOM      6  C   GLU A   1      -9.315   3.409  64.780  1.00  0.00    -0.148 C  
ATOM      7  O   GLU A   1     -10.438   3.727  64.089  1.00  0.00    -0.240 OA 
ENDROOT
BRANCH   2   8
ATOM      8  CB  GLU A   1      -7.831   5.012  66.125  1.00  0.00    -0.099 C  
BRANCH   8   9
ATOM      9  CG  GLU A   1      -8.980   5.134  67.131  1.00  0.00    -0.112 C  
ATOM     10  CD  GLU A   1      -9.444   6.562  67.268  1.00  0.00    -0.125 C  
ATOM     11  OE1 GLU A   1     -10.746   6.663  67.622  1.00  0.00    -0.230 OA 
ATOM     12  OE2 GLU A   1      -8.728   7.539  67.112  1.00  0.00    -0.119 OA 
ENDBRANCH   8   9
ENDBRANCH   2   8
TORSDOF 2
ENDMDL
MODEL      248
REMARK 921   NORMALIZED FREE ENERGY PREDICTED BY IDOCK:   -1.37 KCAL/MOL
REMARK 922        TOTAL FREE ENERGY PREDICTED BY IDOCK:   -1.58 KCAL/MOL
REMARK 923 INTER-LIGAND FREE ENERGY PREDICTED BY IDOCK:   -1.46 KCAL/MOL
REMARK 924 INTRA-LIGAND FREE ENERGY PREDICTED BY IDOCK:   -0.12 KCAL/MOL
REMARK 927      BINDING AFFINITY PREDICTED BY RF-SCORE:    0.00 PKD
ROOT
ATOM      1  N   GLU A   1      -8.633   7.702  63.090  1.00  0.00    -0.333 NA 
ATOM      2  CA  GLU A   1      -7.448   8.017  63.951  1.00  0.00    -0.117 C  
ATOM      3  H1  GLU A   1      -8.358   7.053  62.353  1.00  0.00     0.000 HD 
ATOM      4  H2  GLU A   1      -9.071   8.544  62.717  1.00  0.00     0.000 HD 
ATOM      5  OXT GLU A   1      -5.961   6.571  65.280  1.00  0.00    -0.031 OA 
ATOM      6  C   GLU A   1      -6.895   6.682  64.501  1.00  0.00    -0.046 C  
ATOM      7  O   GLU A   1      -7.567   5.620  63.993  1.00  0.00    -0.065 OA 
ENDROOT
BRANCH   2   8
ATOM      8  CB  GLU A   1      -7.862   8.992  65.058  1.00  0.00    -0.113 C  
BRANCH   8   9
ATOM      9  CG  GLU A   1      -9.165   8.604  65.763  1.00  0.00    -0.245 C  
ATOM     10  CD  GLU A   1      -9.289   9.278  67.106  1.00  0.00    -0.132 C  
ATOM     11  OE1 GLU A   1     -10.573   9.474  67.483  1.00  0.00    -0.259 OA 
ATOM     12  OE2 GLU A   1      -8.342   9.594  67.810  1.00  0.00    -0.119 OA 
ENDBRANCH   8   9
ENDBRANCH   2   8
TORSDOF 2
ENDMDL
MODEL      249
REMARK 921   NORMALIZED FREE ENERGY PREDICTED BY IDOCK:   -1.37 KCAL/MOL
REMARK 922        TOTAL FREE ENERGY PREDICTED BY IDOCK:   -1.58 KCAL/MOL
REMARK 923 INTER-LIGAND FREE ENERGY PREDICTED BY IDOCK:   -1.35 KCAL/MOL
REMARK 924 INTRA-LIGAND FREE ENERGY PREDICTED BY IDOCK:   -0.23 KCAL/MOL
REMARK 927      BINDING AFFINITY PREDICTED BY RF-SCORE:    0.00 PKD
ROOT
ATOM      1  N   GLU A   1      -9.819   6.580  69.957  1.00  0.00    -0.165 NA 
ATOM      2  CA  GLU A   1      -9.153   7.289  68.818  1.00  0.00    -0.127 C  
ATOM      3  H1  GLU A   1      -9.894   5.585  69.744  1.00  0.00     0.000 HD 
ATOM      4  H2  GLU A   1     -10.721   6.992  70.192  1.00  0.00     0.000 HD 
ATOM      5  OXT GLU A   1      -6.951   6.978  67.758  1.00  0.00    -0.077 OA 
ATOM      6  C   GLU A   1      -7.781   6.619  68.579  1.00  0.00    -0.105 C  
ATOM      7  O   GLU A   1      -7.605   5.547  69.391  1.00  0.00    -0.075 OA 
ENDROOT
BRANCH   2   8
ATOM      8  CB  GLU A   1      -9.040   8.783  69.138  1.00  0.00    -0.141 C  
BRANCH   8   9
ATOM      9  CG  GLU A   1      -8.012   9.101  70.227  1.00  0.00    -0.139 C  
ATOM     10  CD  GLU A   1      -6.985  10.094  69.745  1.00  0.00    -0.118 C  
ATOM     11  OE1 GLU A   1      -6.462  10.842  70.743  1.00  0.00    -0.348 OA 
ATOM     12  OE2 GLU A   1      -6.625  10.206  68.583  1.00  0.00    -0.052 OA 
ENDBRANCH   8   9
ENDBRANCH   2   8
TORSDOF 2
ENDMDL
MODEL      250
REMARK 921   NORMALIZED FREE ENERGY PREDICTED BY IDOCK:   -1.31 KCAL/MOL
REMARK 922        TOTAL FREE ENERGY PREDICTED BY IDOCK:   -1.52 KCAL/MOL
REMARK 923 INTER-LIGAND FREE ENERGY PREDICTED BY IDOCK:   -1.25 KCAL/MOL
REMARK 924 INTRA-LIGAND FREE ENERGY PREDICTED BY IDOCK:   -0.27 KCAL/MOL
REMARK 927      BINDING AFFINITY PREDICTED BY RF-SCORE:    0.00 PKD
ROOT
ATOM      1  N   GLU A   1      -8.542   9.390  65.308  1.00  0.00    -0.151 NA 
ATOM      2  CA  GLU A   1      -9.205   9.554  66.641  1.00  0.00    -0.152 C  
ATOM      3  H1  GLU A   1      -9.190   9.661  64.568  1.00  0.00     0.000 HD 
ATOM      4  H2  GLU A   1      -8.177   8.448  65.172  1.00  0.00     0.000 HD 
ATOM      5  OXT GLU A   1     -10.210  11.517  67.740  1.00  0.00    -0.177 OA 
ATOM      6  C   GLU A   1      -9.675  11.022  66.760  1.00  0.00    -0.193 C  
ATOM      7  O   GLU A   1      -9.438  11.712  65.616  1.00  0.00    -0.226 OA 
ENDROOT
BRANCH   2   8
ATOM      8  CB  GLU A   1      -8.232   9.147  67.752  1.00  0.00    -0.109 C  
BRANCH   8   9
ATOM      9  CG  GLU A   1      -7.937   7.644  67.789  1.00  0.00    -0.121 C  
ATOM     10  CD  GLU A   1      -6.511   7.351  67.395  1.00  0.00    -0.060 C  
ATOM     11  OE1 GLU A   1      -6.029   6.219  67.958  1.00  0.00    -0.018 OA 
ATOM     12  OE2 GLU A   1      -5.854   8.034  66.625  1.00  0.00    -0.042 OA 
ENDBRANCH   8   9
ENDBRANCH   2   8
TORSDOF 2
ENDMDL
MODEL      251
REMARK 921   NORMALIZED FREE ENERGY PREDICTED BY IDOCK:   -1.23 KCAL/MOL
REMARK 922        TOTAL FREE ENERGY PREDICTED BY IDOCK:   -1.43 KCAL/MOL
REMARK 923 INTER-LIGAND FREE ENERGY PREDICTED BY IDOCK:   -1.84 KCAL/MOL
REMARK 924 INTRA-LIGAND FREE ENERGY PREDICTED BY IDOCK:    0.41 KCAL/MOL
REMARK 927      BINDING AFFINITY PREDICTED BY RF-SCORE:    0.00 PKD
ROOT
ATOM      1  N   GLU A   1      -9.113   8.975  63.912  1.00  0.00    -0.376 NA 
ATOM      2  CA  GLU A   1      -8.640   8.758  65.317  1.00  0.00    -0.187 C  
ATOM      3  H1  GLU A   1      -8.311   9.125  63.300  1.00  0.00     0.000 HD 
ATOM      4  H2  GLU A   1      -9.793   9.733  63.848  1.00  0.00     0.000 HD 
ATOM      5  OXT GLU A   1      -7.122   7.080  66.292  1.00  0.00    -0.070 OA 
ATOM      6  C   GLU A   1      -7.659   7.564  65.307  1.00  0.00    -0.097 C  
ATOM      7  O   GLU A   1      -7.440   7.113  64.047  1.00  0.00    -0.084 OA 
ENDROOT
BRANCH   2   8
ATOM      8  CB  GLU A   1      -9.845   8.533  66.236  1.00  0.00    -0.285 C  
BRANCH   8   9
ATOM      9  CG  GLU A   1      -9.468   8.009  67.625  1.00  0.00    -0.171 C  
ATOM     10  CD  GLU A   1     -10.001   6.617  67.854  1.00  0.00    -0.132 C  
ATOM     11  OE1 GLU A   1      -9.251   5.900  68.721  1.00  0.00    -0.115 OA 
ATOM     12  OE2 GLU A   1     -11.019   6.175  67.344  1.00  0.00    -0.321 OA 
ENDBRANCH   8   9
ENDBRANCH   2   8
TORSDOF 2
ENDMDL
MODEL      252
REMARK 921   NORMALIZED FREE ENERGY PREDICTED BY IDOCK:   -1.20 KCAL/MOL
REMARK 922        TOTAL FREE ENERGY PREDICTED BY IDOCK:   -1.39 KCAL/MOL
REMARK 923 INTER-LIGAND FREE ENERGY PREDICTED BY IDOCK:   -1.21 KCAL/MOL
REMARK 924 INTRA-LIGAND FREE ENERGY PREDICTED BY IDOCK:   -0.18 KCAL/MOL
REMARK 927      BINDING AFFINITY PREDICTED BY RF-SCORE:    0.00 PKD
ROOT
ATOM      1  N   GLU A   1      -8.663   8.177  71.961  1.00  0.00    -0.147 NA 
ATOM      2  CA  GLU A   1      -7.695   8.008  70.832  1.00  0.00    -0.084 C  
ATOM      3  H1  GLU A   1      -8.995   9.142  71.986  1.00  0.00     0.000 HD 
ATOM      4  H2  GLU A   1      -8.268   7.884  72.854  1.00  0.00     0.000 HD 
ATOM      5  OXT GLU A   1      -7.928   8.372  68.406  1.00  0.00    -0.114 OA 
ATOM      6  C   GLU A   1      -8.408   8.432  69.528  1.00  0.00    -0.120 C  
ATOM      7  O   GLU A   1      -9.653   8.911  69.777  1.00  0.00    -0.164 OA 
ENDROOT
BRANCH   2   8
ATOM      8  CB  GLU A   1      -7.197   6.559  70.795  1.00  0.00    -0.071 C  
BRANCH   8   9
ATOM      9  CG  GLU A   1      -8.002   5.611  71.690  1.00  0.00    -0.117 C  
ATOM     10  CD  GLU A   1      -9.022   4.835  70.895  1.00  0.00    -0.121 C  
ATOM     11  OE1 GLU A   1      -9.314   3.633  71.442  1.00  0.00    -0.118 OA 
ATOM     12  OE2 GLU A   1      -9.564   5.244  69.880  1.00  0.00    -0.153 OA 
ENDBRANCH   8   9
ENDBRANCH   2   8
TORSDOF 2
ENDMDL
MODEL      253
REMARK 921   NORMALIZED FREE ENERGY PREDICTED BY IDOCK:   -1.18 KCAL/MOL
REMARK 922        TOTAL FREE ENERGY PREDICTED BY IDOCK:   -1.37 KCAL/MOL
REMARK 923 INTER-LIGAND FREE ENERGY PREDICTED BY IDOCK:   -1.12 KCAL/MOL
REMARK 924 INTRA-LIGAND FREE ENERGY PREDICTED BY IDOCK:   -0.25 KCAL/MOL
REMARK 927      BINDING AFFINITY PREDICTED BY RF-SCORE:    0.00 PKD
ROOT
ATOM      1  N   GLU A   1      -6.722   5.039  63.812  1.00  0.00    -0.041 NA 
ATOM      2  CA  GLU A   1      -8.010   5.803  63.822  1.00  0.00    -0.120 C  
ATOM      3  H1  GLU A   1      -6.145   5.352  63.032  1.00  0.00     0.000 HD 
ATOM      4  H2  GLU A   1      -6.874   4.031  63.798  1.00  0.00     0.000 HD 
ATOM      5  OXT GLU A   1      -8.480   8.218  63.969  1.00  0.00    -0.084 OA 
ATOM      6  C   GLU A   1      -7.667   7.309  63.893  1.00  0.00    -0.120 C  
ATOM      7  O   GLU A   1      -6.328   7.515  63.840  1.00  0.00    -0.051 OA 
ENDROOT
BRANCH   2   8
ATOM      8  CB  GLU A   1      -8.878   5.333  64.994  1.00  0.00    -0.111 C  
BRANCH   8   9
ATOM      9  CG  GLU A   1      -8.292   5.675  66.367  1.00  0.00    -0.112 C  
ATOM     10  CD  GLU A   1      -9.252   6.499  67.187  1.00  0.00    -0.128 C  
ATOM     11  OE1 GLU A   1      -9.092   6.327  68.520  1.00  0.00    -0.126 OA 
ATOM     12  OE2 GLU A   1     -10.073   7.272  66.719  1.00  0.00    -0.224 OA 
ENDBRANCH   8   9
ENDBRANCH   2   8
TORSDOF 2
ENDMDL
MODEL      254
REMARK 921   NORMALIZED FREE ENERGY PREDICTED BY IDOCK:   -1.14 KCAL/MOL
REMARK 922        TOTAL FREE ENERGY PREDICTED BY IDOCK:   -1.33 KCAL/MOL
REMARK 923 INTER-LIGAND FREE ENERGY PREDICTED BY IDOCK:   -1.18 KCAL/MOL
REMARK 924 INTRA-LIGAND FREE ENERGY PREDICTED BY IDOCK:   -0.15 KCAL/MOL
REMARK 927      BINDING AFFINITY PREDICTED BY RF-SCORE:    0.00 PKD
ROOT
ATOM      1  N   GLU A   1      -7.325   3.289  65.237  1.00  0.00    -0.070 NA 
ATOM      2  CA  GLU A   1      -8.406   4.095  64.584  1.00  0.00    -0.104 C  
ATOM      3  H1  GLU A   1      -7.109   2.475  64.662  1.00  0.00     0.000 HD 
ATOM      4  H2  GLU A   1      -7.563   3.031  66.194  1.00  0.00     0.000 HD 
ATOM      5  OXT GLU A   1      -8.534   5.172  62.372  1.00  0.00    -0.103 OA 
ATOM      6  C   GLU A   1      -7.923   4.473  63.165  1.00  0.00    -0.079 C  
ATOM      7  O   GLU A   1      -6.722   3.909  62.883  1.00  0.00    -0.032 OA 
ENDROOT
BRANCH   2   8
ATOM      8  CB  GLU A   1      -8.729   5.317  65.449  1.00  0.00    -0.150 C  
BRANCH   8   9
ATOM      9  CG  GLU A   1      -9.878   5.084  66.435  1.00  0.00    -0.218 C  
ATOM     10  CD  GLU A   1      -9.425   5.257  67.862  1.00  0.00    -0.125 C  
ATOM     11  OE1 GLU A   1     -10.419   5.656  68.689  1.00  0.00    -0.202 OA 
ATOM     12  OE2 GLU A   1      -8.291   5.035  68.258  1.00  0.00    -0.095 OA 
ENDBRANCH   8   9
ENDBRANCH   2   8
TORSDOF 2
ENDMDL
MODEL      255
REMARK 921   NORMALIZED FREE ENERGY PREDICTED BY IDOCK:   -1.14 KCAL/MOL
REMARK 922        TOTAL FREE ENERGY PREDICTED BY IDOCK:   -1.33 KCAL/MOL
REMARK 923 INTER-LIGAND FREE ENERGY PREDICTED BY IDOCK:   -1.38 KCAL/MOL
REMARK 924 INTRA-LIGAND FREE ENERGY PREDICTED BY IDOCK:    0.05 KCAL/MOL
REMARK 927      BINDING AFFINITY PREDICTED BY RF-SCORE:    0.00 PKD
ROOT
ATOM      1  N   GLU A   1      -6.538   9.041  69.399  1.00  0.00    -0.044 NA 
ATOM      2  CA  GLU A   1      -7.736   8.754  70.250  1.00  0.00    -0.085 C  
ATOM      3  H1  GLU A   1      -5.732   8.532  69.759  1.00  0.00     0.000 HD 
ATOM      4  H2  GLU A   1      -6.355  10.041  69.317  1.00  0.00     0.000 HD 
ATOM      5  OXT GLU A   1      -8.869   6.642  70.822  1.00  0.00    -0.145 OA 
ATOM      6  C   GLU A   1      -7.950   7.223  70.266  1.00  0.00    -0.115 C  
ATOM      7  O   GLU A   1      -6.965   6.578  69.592  1.00  0.00    -0.062 OA 
ENDROOT
BRANCH   2   8
ATOM      8  CB  GLU A   1      -8.948   9.520  69.708  1.00  0.00    -0.214 C  
BRANCH   8   9
ATOM      9  CG  GLU A   1      -9.835   8.686  68.778  1.00  0.00    -0.180 C  
ATOM     10  CD  GLU A   1      -9.616   9.051  67.332  1.00  0.00    -0.152 C  
ATOM     11  OE1 GLU A   1      -9.866   8.027  66.484  1.00  0.00    -0.234 OA 
ATOM     12  OE2 GLU A   1      -9.280  10.159  66.942  1.00  0.00    -0.144 OA 
ENDBRANCH   8   9
ENDBRANCH   2   8
TORSDOF 2
ENDMDL
MODEL      256
REMARK 921   NORMALIZED FREE ENERGY PREDICTED BY IDOCK:   -1.13 KCAL/MOL
REMARK 922        TOTAL FREE ENERGY PREDICTED BY IDOCK:   -1.31 KCAL/MOL
REMARK 923 INTER-LIGAND FREE ENERGY PREDICTED BY IDOCK:   -1.02 KCAL/MOL
REMARK 924 INTRA-LIGAND FREE ENERGY PREDICTED BY IDOCK:   -0.29 KCAL/MOL
REMARK 927      BINDING AFFINITY PREDICTED BY RF-SCORE:    0.00 PKD
ROOT
ATOM      1  N   GLU A   1      -8.713   8.222  72.018  1.00  0.00    -0.164 NA 
ATOM      2  CA  GLU A   1      -7.739   7.964  70.911  1.00  0.00    -0.083 C  
ATOM      3  H1  GLU A   1      -9.032   9.190  71.975  1.00  0.00     0.000 HD 
ATOM      4  H2  GLU A   1      -8.329   7.986  72.933  1.00  0.00     0.000 HD 
ATOM      5  OXT GLU A   1      -7.950   8.164  68.464  1.00  0.00    -0.121 OA 
ATOM      6  C   GLU A   1      -8.437   8.307  69.575  1.00  0.00    -0.125 C  
ATOM      7  O   GLU A   1      -9.677   8.817  69.781  1.00  0.00    -0.172 OA 
ENDROOT
BRANCH   2   8
ATOM      8  CB  GLU A   1      -7.260   6.510  70.977  1.00  0.00    -0.078 C  
BRANCH   8   9
ATOM      9  CG  GLU A   1      -6.273   6.240  72.117  1.00  0.00    -0.042 C  
ATOM     10  CD  GLU A   1      -6.928   5.487  73.247  1.00  0.00    -0.084 C  
ATOM     11  OE1 GLU A   1      -6.057   4.725  73.949  1.00  0.00    -0.034 OA 
ATOM     12  OE2 GLU A   1      -8.111   5.567  73.537  1.00  0.00    -0.112 OA 
ENDBRANCH   8   9
ENDBRANCH   2   8
TORSDOF 2
ENDMDL
MODEL      257
REMARK 921   NORMALIZED FREE ENERGY PREDICTED BY IDOCK:   -1.09 KCAL/MOL
REMARK 922        TOTAL FREE ENERGY PREDICTED BY IDOCK:   -1.27 KCAL/MOL
REMARK 923 INTER-LIGAND FREE ENERGY PREDICTED BY IDOCK:   -1.65 KCAL/MOL
REMARK 924 INTRA-LIGAND FREE ENERGY PREDICTED BY IDOCK:    0.38 KCAL/MOL
REMARK 927      BINDING AFFINITY PREDICTED BY RF-SCORE:    0.00 PKD
ROOT
ATOM      1  N   GLU A   1      -9.540   5.571  72.967  1.00  0.00    -0.150 NA 
ATOM      2  CA  GLU A   1      -8.678   6.743  72.610  1.00  0.00    -0.122 C  
ATOM      3  H1  GLU A   1      -9.940   5.711  73.895  1.00  0.00     0.000 HD 
ATOM      4  H2  GLU A   1      -9.036   4.688  72.896  1.00  0.00     0.000 HD 
ATOM      5  OXT GLU A   1      -9.179   9.149  72.428  1.00  0.00    -0.194 OA 
ATOM      6  C   GLU A   1      -9.548   8.017  72.703  1.00  0.00    -0.259 C  
ATOM      7  O   GLU A   1     -10.795   7.734  73.156  1.00  0.00    -0.389 OA 
ENDROOT
BRANCH   2   8
ATOM      8  CB  GLU A   1      -8.076   6.532  71.216  1.00  0.00    -0.113 C  
BRANCH   8   9
ATOM      9  CG  GLU A   1      -8.582   7.532  70.172  1.00  0.00    -0.141 C  
ATOM     10  CD  GLU A   1      -7.759   7.476  68.910  1.00  0.00    -0.115 C  
ATOM     11  OE1 GLU A   1      -8.456   7.837  67.808  1.00  0.00    -0.121 OA 
ATOM     12  OE2 GLU A   1      -6.577   7.171  68.869  1.00  0.00    -0.044 OA 
ENDBRANCH   8   9
ENDBRANCH   2   8
TORSDOF 2
ENDMDL
MODEL      258
REMARK 921   NORMALIZED FREE ENERGY PREDICTED BY IDOCK:   -1.07 KCAL/MOL
REMARK 922        TOTAL FREE ENERGY PREDICTED BY IDOCK:   -1.25 KCAL/MOL
REMARK 923 INTER-LIGAND FREE ENERGY PREDICTED BY IDOCK:   -1.01 KCAL/MOL
REMARK 924 INTRA-LIGAND FREE ENERGY PREDICTED BY IDOCK:   -0.24 KCAL/MOL
REMARK 927      BINDING AFFINITY PREDICTED BY RF-SCORE:    0.00 PKD
ROOT
ATOM      1  N   GLU A   1      -6.778   5.467  72.687  1.00  0.00    -0.072 NA 
ATOM      2  CA  GLU A   1      -6.399   6.153  71.410  1.00  0.00    -0.049 C  
ATOM      3  H1  GLU A   1      -6.068   5.649  73.397  1.00  0.00     0.000 HD 
ATOM      4  H2  GLU A   1      -6.941   4.469  72.554  1.00  0.00     0.000 HD 
ATOM      5  OXT GLU A   1      -5.967   8.522  70.891  1.00  0.00    -0.032 OA 
ATOM      6  C   GLU A   1      -6.225   7.659  71.715  1.00  0.00    -0.039 C  
ATOM      7  O   GLU A   1      -6.375   7.917  73.038  1.00  0.00    -0.062 OA 
ENDROOT
BRANCH   2   8
ATOM      8  CB  GLU A   1      -7.465   5.879  70.344  1.00  0.00    -0.089 C  
BRANCH   8   9
ATOM      9  CG  GLU A   1      -8.852   6.417  70.711  1.00  0.00    -0.144 C  
ATOM     10  CD  GLU A   1      -9.435   7.246  69.595  1.00  0.00    -0.155 C  
ATOM     11  OE1 GLU A   1     -10.787   7.236  69.579  1.00  0.00    -0.240 OA 
ATOM     12  OE2 GLU A   1      -8.774   7.893  68.797  1.00  0.00    -0.128 OA 
ENDBRANCH   8   9
ENDBRANCH   2   8
TORSDOF 2
ENDMDL
MODEL      259
REMARK 921   NORMALIZED FREE ENERGY PREDICTED BY IDOCK:   -1.01 KCAL/MOL
REMARK 922        TOTAL FREE ENERGY PREDICTED BY IDOCK:   -1.18 KCAL/MOL
REMARK 923 INTER-LIGAND FREE ENERGY PREDICTED BY IDOCK:   -1.12 KCAL/MOL
REMARK 924 INTRA-LIGAND FREE ENERGY PREDICTED BY IDOCK:   -0.06 KCAL/MOL
REMARK 927      BINDING AFFINITY PREDICTED BY RF-SCORE:    0.00 PKD
ROOT
ATOM      1  N   GLU A   1      -9.228   5.142  63.151  1.00  0.00    -0.346 NA 
ATOM      2  CA  GLU A   1      -8.867   3.701  63.348  1.00  0.00    -0.097 C  
ATOM      3  H1  GLU A   1     -10.193   5.212  62.830  1.00  0.00     0.000 HD 
ATOM      4  H2  GLU A   1      -8.579   5.618  62.524  1.00  0.00     0.000 HD 
ATOM      5  OXT GLU A   1      -9.851   1.949  64.774  1.00  0.00     0.020 OA 
ATOM      6  C   GLU A   1      -9.879   3.093  64.347  1.00  0.00    -0.146 C  
ATOM      7  O   GLU A   1     -10.838   3.988  64.688  1.00  0.00    -0.256 OA 
ENDROOT
BRANCH   2   8
ATOM      8  CB  GLU A   1      -7.417   3.596  63.831  1.00  0.00    -0.062 C  
BRANCH   8   9
ATOM      9  CG  GLU A   1      -7.254   3.813  65.338  1.00  0.00    -0.067 C  
ATOM     10  CD  GLU A   1      -6.899   5.243  65.655  1.00  0.00    -0.061 C  
ATOM     11  OE1 GLU A   1      -7.318   5.633  66.881  1.00  0.00    -0.077 OA 
ATOM     12  OE2 GLU A   1      -6.270   5.980  64.911  1.00  0.00    -0.028 OA 
ENDBRANCH   8   9
ENDBRANCH   2   8
TORSDOF 2
ENDMDL
MODEL      260
REMARK 921   NORMALIZED FREE ENERGY PREDICTED BY IDOCK:   -1.00 KCAL/MOL
REMARK 922        TOTAL FREE ENERGY PREDICTED BY IDOCK:   -1.17 KCAL/MOL
REMARK 923 INTER-LIGAND FREE ENERGY PREDICTED BY IDOCK:   -1.12 KCAL/MOL
REMARK 924 INTRA-LIGAND FREE ENERGY PREDICTED BY IDOCK:   -0.06 KCAL/MOL
REMARK 927      BINDING AFFINITY PREDICTED BY RF-SCORE:    0.00 PKD
ROOT
ATOM      1  N   GLU A   1      -7.052   5.141  64.649  1.00  0.00    -0.053 NA 
ATOM      2  CA  GLU A   1      -7.756   5.857  65.761  1.00  0.00    -0.096 C  
ATOM      3  H1  GLU A   1      -7.282   5.582  63.759  1.00  0.00     0.000 HD 
ATOM      4  H2  GLU A   1      -7.255   4.142  64.647  1.00  0.00     0.000 HD 
ATOM      5  OXT GLU A   1      -7.689   8.209  66.494  1.00  0.00    -0.090 OA 
ATOM      6  C   GLU A   1      -7.342   7.346  65.703  1.00  0.00    -0.074 C  
ATOM      7  O   GLU A   1      -6.546   7.597  64.634  1.00  0.00    -0.044 OA 
ENDROOT
BRANCH   2   8
ATOM      8  CB  GLU A   1      -7.410   5.194  67.099  1.00  0.00    -0.082 C  
BRANCH   8   9
ATOM      9  CG  GLU A   1      -8.453   5.443  68.194  1.00  0.00    -0.097 C  
ATOM     10  CD  GLU A   1      -9.319   4.229  68.417  1.00  0.00    -0.153 C  
ATOM     11  OE1 GLU A   1      -9.801   4.149  69.678  1.00  0.00    -0.217 OA 
ATOM     12  OE2 GLU A   1      -9.594   3.409  67.555  1.00  0.00    -0.208 OA 
ENDBRANCH   8   9
ENDBRANCH   2   8
TORSDOF 2
ENDMDL
MODEL      261
REMARK 921   NORMALIZED FREE ENERGY PREDICTED BY IDOCK:   -0.97 KCAL/MOL
REMARK 922        TOTAL FREE ENERGY PREDICTED BY IDOCK:   -1.14 KCAL/MOL
REMARK 923 INTER-LIGAND FREE ENERGY PREDICTED BY IDOCK:   -1.04 KCAL/MOL
REMARK 924 INTRA-LIGAND FREE ENERGY PREDICTED BY IDOCK:   -0.10 KCAL/MOL
REMARK 927      BINDING AFFINITY PREDICTED BY RF-SCORE:    0.00 PKD
ROOT
ATOM      1  N   GLU A   1      -7.417   4.903  71.028  1.00  0.00    -0.070 NA 
ATOM      2  CA  GLU A   1      -7.012   5.170  69.611  1.00  0.00    -0.054 C  
ATOM      3  H1  GLU A   1      -6.631   5.092  71.650  1.00  0.00     0.000 HD 
ATOM      4  H2  GLU A   1      -7.788   3.961  71.152  1.00  0.00     0.000 HD 
ATOM      5  OXT GLU A   1      -6.155   7.199  68.508  1.00  0.00    -0.028 OA 
ATOM      6  C   GLU A   1      -6.515   6.631  69.527  1.00  0.00    -0.044 C  
ATOM      7  O   GLU A   1      -6.503   7.221  70.748  1.00  0.00    -0.042 OA 
ENDROOT
BRANCH   2   8
ATOM      8  CB  GLU A   1      -8.193   4.887  68.677  1.00  0.00    -0.084 C  
BRANCH   8   9
ATOM      9  CG  GLU A   1      -9.292   5.952  68.737  1.00  0.00    -0.133 C  
ATOM     10  CD  GLU A   1     -10.065   6.021  67.445  1.00  0.00    -0.163 C  
ATOM     11  OE1 GLU A   1     -11.338   6.449  67.612  1.00  0.00    -0.267 OA 
ATOM     12  OE2 GLU A   1      -9.601   5.755  66.347  1.00  0.00    -0.154 OA 
ENDBRANCH   8   9
ENDBRANCH   2   8
TORSDOF 2
ENDMDL
MODEL      262
REMARK 921   NORMALIZED FREE ENERGY PREDICTED BY IDOCK:   -0.79 KCAL/MOL
REMARK 922        TOTAL FREE ENERGY PREDICTED BY IDOCK:   -0.93 KCAL/MOL
REMARK 923 INTER-LIGAND FREE ENERGY PREDICTED BY IDOCK:   -0.74 KCAL/MOL
REMARK 924 INTRA-LIGAND FREE ENERGY PREDICTED BY IDOCK:   -0.20 KCAL/MOL
REMARK 927      BINDING AFFINITY PREDICTED BY RF-SCORE:    0.00 PKD
ROOT
ATOM      1  N   GLU A   1      -6.719   5.460  72.691  1.00  0.00    -0.072 NA 
ATOM      2  CA  GLU A   1      -6.215   6.077  71.422  1.00  0.00    -0.043 C  
ATOM      3  H1  GLU A   1      -6.048   5.624  73.441  1.00  0.00     0.000 HD 
ATOM      4  H2  GLU A   1      -6.935   4.470  72.578  1.00  0.00     0.000 HD 
ATOM      5  OXT GLU A   1      -5.603   8.396  70.860  1.00  0.00    -0.032 OA 
ATOM      6  C   GLU A   1      -5.968   7.579  71.691  1.00  0.00    -0.036 C  
ATOM      7  O   GLU A   1      -6.188   7.892  72.992  1.00  0.00    -0.060 OA 
ENDROOT
BRANCH   2   8
ATOM      8  CB  GLU A   1      -7.224   5.830  70.295  1.00  0.00    -0.075 C  
BRANCH   8   9
ATOM      9  CG  GLU A   1      -7.729   4.386  70.229  1.00  0.00    -0.052 C  
ATOM     10  CD  GLU A   1      -9.189   4.294  70.591  1.00  0.00    -0.124 C  
ATOM     11  OE1 GLU A   1      -9.816   3.250  70.002  1.00  0.00    -0.085 OA 
ATOM     12  OE2 GLU A   1      -9.759   5.053  71.360  1.00  0.00    -0.156 OA 
ENDBRANCH   8   9
ENDBRANCH   2   8
TORSDOF 2
ENDMDL
MODEL      263
REMARK 921   NORMALIZED FREE ENERGY PREDICTED BY IDOCK:   -0.59 KCAL/MOL
REMARK 922        TOTAL FREE ENERGY PREDICTED BY IDOCK:   -0.71 KCAL/MOL
REMARK 923 INTER-LIGAND FREE ENERGY PREDICTED BY IDOCK:   -0.94 KCAL/MOL
REMARK 924 INTRA-LIGAND FREE ENERGY PREDICTED BY IDOCK:    0.23 KCAL/MOL
REMARK 927      BINDING AFFINITY PREDICTED BY RF-SCORE:    0.00 PKD
ROOT
ATOM      1  N   GLU A   1      -8.231  10.953  65.229  1.00  0.00    -0.348 NA 
ATOM      2  CA  GLU A   1      -8.183   9.665  65.992  1.00  0.00    -0.119 C  
ATOM      3  H1  GLU A   1      -7.745  10.842  64.339  1.00  0.00     0.000 HD 
ATOM      4  H2  GLU A   1      -7.865  11.735  65.771  1.00  0.00     0.000 HD 
ATOM      5  OXT GLU A   1      -8.971   7.399  65.431  1.00  0.00     0.014 OA 
ATOM      6  C   GLU A   1      -8.803   8.563  65.103  1.00  0.00    -0.071 C  
ATOM      7  O   GLU A   1      -9.128   9.042  63.876  1.00  0.00    -0.003 OA 
ENDROOT
BRANCH   2   8
ATOM      8  CB  GLU A   1      -8.912   9.833  67.329  1.00  0.00    -0.146 C  
BRANCH   8   9
ATOM      9  CG  GLU A   1      -8.096   9.362  68.537  1.00  0.00    -0.105 C  
ATOM     10  CD  GLU A   1      -6.800  10.123  68.658  1.00  0.00    -0.057 C  
ATOM     11  OE1 GLU A   1      -6.353  10.207  69.932  1.00  0.00    -0.053 OA 
ATOM     12  OE2 GLU A   1      -6.185  10.594  67.714  1.00  0.00    -0.054 OA 
ENDBRANCH   8   9
ENDBRANCH   2   8
TORSDOF 2
ENDMDL
MODEL      264
REMARK 921   NORMALIZED FREE ENERGY PREDICTED BY IDOCK:   -0.58 KCAL/MOL
REMARK 922        TOTAL FREE ENERGY PREDICTED BY IDOCK:   -0.70 KCAL/MOL
REMARK 923 INTER-LIGAND FREE ENERGY PREDICTED BY IDOCK:   -0.58 KCAL/MOL
REMARK 924 INTRA-LIGAND FREE ENERGY PREDICTED BY IDOCK:   -0.12 KCAL/MOL
REMARK 927      BINDING AFFINITY PREDICTED BY RF-SCORE:    0.00 PKD
ROOT
ATOM      1  N   GLU A   1      -7.546   3.711  71.159  1.00  0.00    -0.044 NA 
ATOM      2  CA  GLU A   1      -6.984   3.745  69.771  1.00  0.00    -0.042 C  
ATOM      3  H1  GLU A   1      -6.801   3.883  71.834  1.00  0.00     0.000 HD 
ATOM      4  H2  GLU A   1      -8.044   2.842  71.350  1.00  0.00     0.000 HD 
ATOM      5  OXT GLU A   1      -5.776   5.503  68.536  1.00  0.00    -0.014 OA 
ATOM      6  C   GLU A   1      -6.296   5.115  69.571  1.00  0.00    -0.034 C  
ATOM      7  O   GLU A   1      -6.318   5.851  70.710  1.00  0.00    -0.036 OA 
ENDROOT
BRANCH   2   8
ATOM      8  CB  GLU A   1      -8.103   3.486  68.756  1.00  0.00    -0.070 C  
BRANCH   8   9
ATOM      9  CG  GLU A   1      -7.616   2.828  67.461  1.00  0.00    -0.061 C  
ATOM     10  CD  GLU A   1      -8.038   3.619  66.249  1.00  0.00    -0.096 C  
ATOM     11  OE1 GLU A   1      -7.195   3.471  65.201  1.00  0.00    -0.064 OA 
ATOM     12  OE2 GLU A   1      -9.049   4.302  66.187  1.00  0.00    -0.122 OA 
ENDBRANCH   8   9
ENDBRANCH   2   8
TORSDOF 2
ENDMDL
