MODEL        1
REMARK 921   NORMALIZED FREE ENERGY PREDICTED BY IDOCK:   -6.39 KCAL/MOL
REMARK 922        TOTAL FREE ENERGY PREDICTED BY IDOCK:   -9.57 KCAL/MOL
REMARK 923 INTER-LIGAND FREE ENERGY PREDICTED BY IDOCK:   -9.01 KCAL/MOL
REMARK 924 INTRA-LIGAND FREE ENERGY PREDICTED BY IDOCK:   -0.56 KCAL/MOL
REMARK 927      BINDING AFFINITY PREDICTED BY RF-SCORE:    0.00 PKD
ROOT
HETATM    1  N   UNK A   1      -9.791  16.595  65.558  1.00  0.00    -0.550 NA 
HETATM    2  C   UNK A   1     -10.510  15.287  65.561  1.00  0.00    -0.374 C  
HETATM    3  H2  UNK A   1      -9.036  16.598  66.243  1.00  0.00     0.000 HD 
HETATM    4  H1  UNK A   1      -9.446  16.856  64.634  1.00  0.00     0.000 HD 
HETATM    5  O   UNK A   1     -11.633  16.501  63.832  1.00  0.00    -1.175 OA 
HETATM    6  C   UNK A   1     -11.654  15.338  64.532  1.00  0.00    -0.312 C  
HETATM    7  O   UNK A   1     -12.496  14.469  64.374  1.00  0.00    -0.633 OA 
ENDROOT
BRANCH   2   8
HETATM    8  C   UNK A   1     -11.029  14.896  66.948  1.00  0.00    -0.327 C  
BRANCH   8   9
HETATM    9  C   UNK A   1     -10.245  13.767  67.624  1.00  0.00    -0.242 C  
BRANCH   9  10
HETATM   10  C   UNK A   1     -11.184  12.654  68.030  1.00  0.00    -0.265 C  
HETATM   11  O   UNK A   1     -11.917  12.089  67.224  1.00  0.00    -0.591 OA 
HETATM   12  N   UNK A   1     -11.129  12.309  69.354  1.00  0.00    -0.441 N  
HETATM   13  H   UNK A   1     -10.497  12.816  69.974  1.00  0.00     0.000 HD 
BRANCH  12  14
HETATM   14  C   UNK A   1     -11.951  11.236  69.905  1.00  0.00    -0.365 C  
BRANCH  14  15
HETATM   15  C   UNK A   1     -12.655  11.776  71.164  1.00  0.00    -0.309 C  
ATOM     16  H   GLY A   2     -12.609  13.707  70.365  1.00  0.00     0.000 HD 
ATOM     17  N   GLY A   2     -12.842  13.148  71.186  1.00  0.00    -0.306 N  
HETATM   18  O   UNK A   1     -13.099  11.036  72.038  1.00  0.00    -0.496 OA 
BRANCH  17  19
ATOM     19  CA  GLY A   2     -13.374  13.803  72.390  1.00  0.00    -0.535 C  
ATOM     20  C   GLY A   2     -13.725  15.275  72.178  1.00  0.00    -0.494 C  
ATOM     21  O   GLY A   2     -13.479  15.716  70.922  1.00  0.00    -0.569 OA 
ATOM     22  OXT GLY A   2     -14.147  16.007  73.061  1.00  0.00    -0.508 OA 
ENDBRANCH  17  19
ENDBRANCH  14  15
BRANCH  14  23
HETATM   23  C   UNK A   1     -11.139  10.005  70.335  1.00  0.00    -0.327 C  
HETATM   24  S   UNK A   1      -9.774   9.528  69.225  1.00  0.00    -0.186 SA 
HETATM   25  H   UNK A   1      -9.040   8.414  69.614  1.00  0.00     0.000 H  
ENDBRANCH  14  23
ENDBRANCH  12  14
ENDBRANCH   9  10
ENDBRANCH   8   9
ENDBRANCH   2   8
TORSDOF 7
ENDMDL
MODEL        2
REMARK 921   NORMALIZED FREE ENERGY PREDICTED BY IDOCK:   -6.33 KCAL/MOL
REMARK 922        TOTAL FREE ENERGY PREDICTED BY IDOCK:   -9.48 KCAL/MOL
REMARK 923 INTER-LIGAND FREE ENERGY PREDICTED BY IDOCK:   -8.81 KCAL/MOL
REMARK 924 INTRA-LIGAND FREE ENERGY PREDICTED BY IDOCK:   -0.67 KCAL/MOL
REMARK 927      BINDING AFFINITY PREDICTED BY RF-SCORE:    0.00 PKD
ROOT
HETATM    1  N   UNK A   1     -12.816  14.105  64.967  1.00  0.00    -0.713 NA 
HETATM    2  C   UNK A   1     -11.708  14.773  65.713  1.00  0.00    -0.252 C  
HETATM    3  H2  UNK A   1     -13.190  13.318  65.497  1.00  0.00     0.000 HD 
HETATM    4  H1  UNK A   1     -13.558  14.750  64.698  1.00  0.00     0.000 HD 
HETATM    5  O   UNK A   1     -11.890  16.106  63.735  1.00  0.00    -0.885 OA 
HETATM    6  C   UNK A   1     -11.159  15.935  64.867  1.00  0.00    -0.389 C  
HETATM    7  O   UNK A   1     -10.179  16.607  65.147  1.00  0.00    -0.592 OA 
ENDROOT
BRANCH   2   8
HETATM    8  C   UNK A   1     -10.592  13.804  66.117  1.00  0.00    -0.291 C  
BRANCH   8   9
HETATM    9  C   UNK A   1     -10.438  13.608  67.628  1.00  0.00    -0.238 C  
BRANCH   9  10
HETATM   10  C   UNK A   1     -11.302  12.458  68.092  1.00  0.00    -0.291 C  
HETATM   11  O   UNK A   1     -12.035  11.838  67.326  1.00  0.00    -0.618 OA 
HETATM   12  N   UNK A   1     -11.181  12.147  69.420  1.00  0.00    -0.412 N  
HETATM   13  H   UNK A   1     -10.553  12.699  70.004  1.00  0.00     0.000 HD 
BRANCH  12  14
HETATM   14  C   UNK A   1     -11.925  11.046  70.024  1.00  0.00    -0.351 C  
BRANCH  14  15
HETATM   15  C   UNK A   1     -12.760  11.618  71.185  1.00  0.00    -0.325 C  
ATOM     16  H   GLY A   2     -12.451  13.553  70.456  1.00  0.00     0.000 HD 
ATOM     17  N   GLY A   2     -12.842  13.001  71.220  1.00  0.00    -0.333 N  
HETATM   18  O   UNK A   1     -13.382  10.901  71.965  1.00  0.00    -0.448 OA 
BRANCH  17  19
ATOM     19  CA  GLY A   2     -13.491  13.675  72.353  1.00  0.00    -0.584 C  
ATOM     20  C   GLY A   2     -13.751  15.160  72.111  1.00  0.00    -0.477 C  
ATOM     21  O   GLY A   2     -13.332  15.594  70.899  1.00  0.00    -0.556 OA 
ATOM     22  OXT GLY A   2     -14.248  15.908  72.940  1.00  0.00    -0.497 OA 
ENDBRANCH  17  19
ENDBRANCH  14  15
BRANCH  14  23
HETATM   23  C   UNK A   1     -11.023   9.951  70.614  1.00  0.00    -0.337 C  
HETATM   24  S   UNK A   1      -9.489   9.605  69.693  1.00  0.00    -0.223 SA 
HETATM   25  H   UNK A   1      -8.674   8.615  70.227  1.00  0.00     0.000 H  
ENDBRANCH  14  23
ENDBRANCH  12  14
ENDBRANCH   9  10
ENDBRANCH   8   9
ENDBRANCH   2   8
TORSDOF 7
ENDMDL
MODEL        3
REMARK 921   NORMALIZED FREE ENERGY PREDICTED BY IDOCK:   -6.29 KCAL/MOL
REMARK 922        TOTAL FREE ENERGY PREDICTED BY IDOCK:   -9.43 KCAL/MOL
REMARK 923 INTER-LIGAND FREE ENERGY PREDICTED BY IDOCK:   -8.68 KCAL/MOL
REMARK 924 INTRA-LIGAND FREE ENERGY PREDICTED BY IDOCK:   -0.75 KCAL/MOL
REMARK 927      BINDING AFFINITY PREDICTED BY RF-SCORE:    0.00 PKD
ROOT
HETATM    1  N   UNK A   1     -12.034  16.372  72.130  1.00  0.00    -0.634 NA 
HETATM    2  C   UNK A   1     -13.119  15.499  71.593  1.00  0.00    -0.481 C  
HETATM    3  H2  UNK A   1     -11.761  17.078  71.447  1.00  0.00     0.000 HD 
HETATM    4  H1  UNK A   1     -12.277  16.803  73.023  1.00  0.00     0.000 HD 
HETATM    5  O   UNK A   1     -12.802  14.643  73.804  1.00  0.00    -0.492 OA 
HETATM    6  C   UNK A   1     -13.480  14.437  72.645  1.00  0.00    -0.509 C  
HETATM    7  O   UNK A   1     -14.251  13.507  72.469  1.00  0.00    -0.734 OA 
ENDROOT
BRANCH   2   8
HETATM    8  C   UNK A   1     -12.754  14.852  70.253  1.00  0.00    -0.317 C  
BRANCH   8   9
HETATM    9  C   UNK A   1     -11.258  14.868  69.926  1.00  0.00    -0.307 C  
BRANCH   9  10
HETATM   10  C   UNK A   1     -10.956  15.963  68.930  1.00  0.00    -0.290 C  
HETATM   11  O   UNK A   1     -10.889  17.145  69.254  1.00  0.00    -0.239 OA 
HETATM   12  N   UNK A   1     -10.736  15.531  67.648  1.00  0.00    -0.295 N  
HETATM   13  H   UNK A   1     -10.805  14.534  67.442  1.00  0.00     0.000 HD 
BRANCH  12  14
HETATM   14  C   UNK A   1     -10.406  16.456  66.570  1.00  0.00    -0.303 C  
BRANCH  14  15
HETATM   15  C   UNK A   1     -10.913  15.846  65.249  1.00  0.00    -0.324 C  
ATOM     16  H   GLY A   2     -10.844  13.939  66.102  1.00  0.00     0.000 HD 
ATOM     17  N   GLY A   2     -11.008  14.464  65.242  1.00  0.00    -0.329 N  
HETATM   18  O   UNK A   1     -11.291  16.538  64.307  1.00  0.00    -1.020 OA 
BRANCH  17  19
ATOM     19  CA  GLY A   2     -11.344  13.752  64.002  1.00  0.00    -0.155 C  
ATOM     20  C   GLY A   2     -12.504  12.770  64.157  1.00  0.00    -0.369 C  
ATOM     21  O   GLY A   2     -13.012  12.726  65.412  1.00  0.00    -0.587 OA 
ATOM     22  OXT GLY A   2     -12.915  12.054  63.256  1.00  0.00    -0.736 OA 
ENDBRANCH  17  19
ENDBRANCH  14  15
BRANCH  14  23
HETATM   23  C   UNK A   1      -8.896  16.691  66.408  1.00  0.00    -0.302 C  
HETATM   24  S   UNK A   1      -8.295  18.344  66.886  1.00  0.00    -0.260 SA 
HETATM   25  H   UNK A   1      -6.930  18.556  66.740  1.00  0.00     0.000 H  
ENDBRANCH  14  23
ENDBRANCH  12  14
ENDBRANCH   9  10
ENDBRANCH   8   9
ENDBRANCH   2   8
TORSDOF 7
ENDMDL
MODEL        4
REMARK 921   NORMALIZED FREE ENERGY PREDICTED BY IDOCK:   -6.22 KCAL/MOL
REMARK 922        TOTAL FREE ENERGY PREDICTED BY IDOCK:   -9.33 KCAL/MOL
REMARK 923 INTER-LIGAND FREE ENERGY PREDICTED BY IDOCK:   -8.77 KCAL/MOL
REMARK 924 INTRA-LIGAND FREE ENERGY PREDICTED BY IDOCK:   -0.56 KCAL/MOL
REMARK 927      BINDING AFFINITY PREDICTED BY RF-SCORE:    0.00 PKD
ROOT
HETATM    1  N   UNK A   1     -10.249  13.789  64.343  1.00  0.00    -0.729 NA 
HETATM    2  C   UNK A   1     -11.112  12.657  64.793  1.00  0.00    -0.300 C  
HETATM    3  H2  UNK A   1      -9.361  13.793  64.844  1.00  0.00     0.000 HD 
HETATM    4  H1  UNK A   1     -10.099  13.797  63.334  1.00  0.00     0.000 HD 
HETATM    5  O   UNK A   1     -12.440  13.686  63.090  1.00  0.00    -0.786 OA 
HETATM    6  C   UNK A   1     -12.447  12.706  64.030  1.00  0.00    -0.399 C  
HETATM    7  O   UNK A   1     -13.409  11.987  64.249  1.00  0.00    -0.709 OA 
ENDROOT
BRANCH   2   8
HETATM    8  C   UNK A   1     -11.338  12.646  66.308  1.00  0.00    -0.376 C  
BRANCH   8   9
HETATM    9  C   UNK A   1     -12.026  13.900  66.857  1.00  0.00    -0.467 C  
BRANCH   9  10
HETATM   10  C   UNK A   1     -11.591  14.147  68.283  1.00  0.00    -0.321 C  
HETATM   11  O   UNK A   1     -10.494  14.625  68.561  1.00  0.00    -0.233 OA 
HETATM   12  N   UNK A   1     -12.523  13.825  69.234  1.00  0.00    -0.327 N  
HETATM   13  H   UNK A   1     -13.417  13.432  68.939  1.00  0.00     0.000 HD 
BRANCH  12  14
HETATM   14  C   UNK A   1     -12.273  14.027  70.657  1.00  0.00    -0.372 C  
BRANCH  14  15
HETATM   15  C   UNK A   1     -12.893  12.842  71.421  1.00  0.00    -0.275 C  
ATOM     16  H   GLY A   2     -11.643  11.521  70.391  1.00  0.00     0.000 HD 
ATOM     17  N   GLY A   2     -12.419  11.595  71.050  1.00  0.00    -0.374 N  
HETATM   18  O   UNK A   1     -13.681  12.998  72.351  1.00  0.00    -0.578 OA 
BRANCH  17  19
ATOM     19  CA  GLY A   2     -13.028  10.377  71.602  1.00  0.00    -0.475 C  
ATOM     20  C   GLY A   2     -12.043   9.221  71.763  1.00  0.00    -0.387 C  
ATOM     21  O   GLY A   2     -10.784   9.521  71.363  1.00  0.00    -0.346 OA 
ATOM     22  OXT GLY A   2     -12.355   8.112  72.171  1.00  0.00    -0.319 OA 
ENDBRANCH  17  19
ENDBRANCH  14  15
BRANCH  14  23
HETATM   23  C   UNK A   1     -12.914  15.308  71.214  1.00  0.00    -0.441 C  
HETATM   24  S   UNK A   1     -12.038  16.093  72.605  1.00  0.00    -0.551 SA 
HETATM   25  H   UNK A   1     -12.618  17.251  73.108  1.00  0.00     0.000 H  
ENDBRANCH  14  23
ENDBRANCH  12  14
ENDBRANCH   9  10
ENDBRANCH   8   9
ENDBRANCH   2   8
TORSDOF 7
ENDMDL
MODEL        5
REMARK 921   NORMALIZED FREE ENERGY PREDICTED BY IDOCK:   -6.12 KCAL/MOL
REMARK 922        TOTAL FREE ENERGY PREDICTED BY IDOCK:   -9.19 KCAL/MOL
REMARK 923 INTER-LIGAND FREE ENERGY PREDICTED BY IDOCK:   -8.39 KCAL/MOL
REMARK 924 INTRA-LIGAND FREE ENERGY PREDICTED BY IDOCK:   -0.80 KCAL/MOL
REMARK 927      BINDING AFFINITY PREDICTED BY RF-SCORE:    0.00 PKD
ROOT
HETATM    1  N   UNK A   1     -12.466  14.079  63.273  1.00  0.00    -1.112 NA 
HETATM    2  C   UNK A   1     -11.791  14.203  64.599  1.00  0.00    -0.431 C  
HETATM    3  H2  UNK A   1     -12.814  13.131  63.128  1.00  0.00     0.000 HD 
HETATM    4  H1  UNK A   1     -13.209  14.764  63.140  1.00  0.00     0.000 HD 
HETATM    5  O   UNK A   1     -11.640  16.423  63.721  1.00  0.00    -1.055 OA 
HETATM    6  C   UNK A   1     -11.262  15.638  64.763  1.00  0.00    -0.382 C  
HETATM    7  O   UNK A   1     -10.567  16.030  65.687  1.00  0.00    -0.357 OA 
ENDROOT
BRANCH   2   8
HETATM    8  C   UNK A   1     -10.675  13.173  64.798  1.00  0.00    -0.381 C  
BRANCH   8   9
HETATM    9  C   UNK A   1     -10.976  12.105  65.853  1.00  0.00    -0.332 C  
BRANCH   9  10
HETATM   10  C   UNK A   1     -10.423  12.530  67.194  1.00  0.00    -0.224 C  
HETATM   11  O   UNK A   1      -9.470  11.961  67.720  1.00  0.00    -0.174 OA 
HETATM   12  N   UNK A   1     -11.046  13.612  67.757  1.00  0.00    -0.265 N  
HETATM   13  H   UNK A   1     -11.831  14.043  67.268  1.00  0.00     0.000 HD 
BRANCH  12  14
HETATM   14  C   UNK A   1     -10.617  14.167  69.037  1.00  0.00    -0.213 C  
BRANCH  14  15
HETATM   15  C   UNK A   1     -11.791  14.040  70.026  1.00  0.00    -0.320 C  
ATOM     16  H   GLY A   2     -12.207  16.076  69.798  1.00  0.00     0.000 HD 
ATOM     17  N   GLY A   2     -12.449  15.226  70.308  1.00  0.00    -0.368 N  
HETATM   18  O   UNK A   1     -12.172  12.955  70.459  1.00  0.00    -0.368 OA 
BRANCH  17  19
ATOM     19  CA  GLY A   2     -13.494  15.264  71.341  1.00  0.00    -0.505 C  
ATOM     20  C   GLY A   2     -13.089  16.044  72.590  1.00  0.00    -0.398 C  
ATOM     21  O   GLY A   2     -11.836  16.556  72.528  1.00  0.00    -0.534 OA 
ATOM     22  OXT GLY A   2     -13.799  16.165  73.577  1.00  0.00    -0.509 OA 
ENDBRANCH  17  19
ENDBRANCH  14  15
BRANCH  14  23
HETATM   23  C   UNK A   1     -10.249  15.657  68.963  1.00  0.00    -0.225 C  
HETATM   24  S   UNK A   1      -8.473  16.027  68.788  1.00  0.00    -0.242 SA 
HETATM   25  H   UNK A   1      -8.140  17.375  68.721  1.00  0.00     0.000 H  
ENDBRANCH  14  23
ENDBRANCH  12  14
ENDBRANCH   9  10
ENDBRANCH   8   9
ENDBRANCH   2   8
TORSDOF 7
ENDMDL
MODEL        6
REMARK 921   NORMALIZED FREE ENERGY PREDICTED BY IDOCK:   -5.92 KCAL/MOL
REMARK 922        TOTAL FREE ENERGY PREDICTED BY IDOCK:   -8.91 KCAL/MOL
REMARK 923 INTER-LIGAND FREE ENERGY PREDICTED BY IDOCK:   -8.06 KCAL/MOL
REMARK 924 INTRA-LIGAND FREE ENERGY PREDICTED BY IDOCK:   -0.84 KCAL/MOL
REMARK 927      BINDING AFFINITY PREDICTED BY RF-SCORE:    0.00 PKD
ROOT
HETATM    1  N   UNK A   1     -13.183  15.791  70.418  1.00  0.00    -0.740 NA 
HETATM    2  C   UNK A   1     -13.234  14.311  70.608  1.00  0.00    -0.116 C  
HETATM    3  H2  UNK A   1     -12.942  16.027  69.455  1.00  0.00     0.000 HD 
HETATM    4  H1  UNK A   1     -14.044  16.257  70.703  1.00  0.00     0.000 HD 
HETATM    5  O   UNK A   1     -13.841  15.140  72.768  1.00  0.00    -0.467 OA 
HETATM    6  C   UNK A   1     -13.575  14.002  72.076  1.00  0.00    -0.463 C  
HETATM    7  O   UNK A   1     -13.581  12.889  72.577  1.00  0.00    -0.556 OA 
ENDROOT
BRANCH   2   8
HETATM    8  C   UNK A   1     -11.940  13.610  70.179  1.00  0.00    -0.407 C  
BRANCH   8   9
HETATM    9  C   UNK A   1     -12.144  12.225  69.559  1.00  0.00    -0.260 C  
BRANCH   9  10
HETATM   10  C   UNK A   1     -11.795  12.258  68.089  1.00  0.00    -0.311 C  
HETATM   11  O   UNK A   1     -11.668  11.236  67.422  1.00  0.00    -0.580 OA 
HETATM   12  N   UNK A   1     -11.663  13.514  67.557  1.00  0.00    -0.345 N  
HETATM   13  H   UNK A   1     -11.783  14.325  68.164  1.00  0.00     0.000 HD 
BRANCH  12  14
HETATM   14  C   UNK A   1     -11.355  13.724  66.147  1.00  0.00    -0.314 C  
BRANCH  14  15
HETATM   15  C   UNK A   1     -10.993  15.209  65.956  1.00  0.00    -0.332 C  
ATOM     16  H   GLY A   2     -10.417  15.328  67.961  1.00  0.00     0.000 HD 
ATOM     17  N   GLY A   2     -10.565  15.858  67.102  1.00  0.00    -0.315 N  
HETATM   18  O   UNK A   1     -10.997  15.751  64.853  1.00  0.00    -0.433 OA 
BRANCH  17  19
ATOM     19  CA  GLY A   2     -10.324  17.308  67.085  1.00  0.00    -0.321 C  
ATOM     20  C   GLY A   2     -10.407  17.956  68.466  1.00  0.00    -0.360 C  
ATOM     21  O   GLY A   2     -10.694  17.082  69.459  1.00  0.00    -0.313 OA 
ATOM     22  OXT GLY A   2     -10.274  19.154  68.664  1.00  0.00    -0.395 OA 
ENDBRANCH  17  19
ENDBRANCH  14  15
BRANCH  14  23
HETATM   23  C   UNK A   1     -12.537  13.423  65.212  1.00  0.00    -0.464 C  
HETATM   24  S   UNK A   1     -12.158  12.386  63.762  1.00  0.00    -0.572 SA 
HETATM   25  H   UNK A   1     -13.227  12.115  62.917  1.00  0.00     0.000 H  
ENDBRANCH  14  23
ENDBRANCH  12  14
ENDBRANCH   9  10
ENDBRANCH   8   9
ENDBRANCH   2   8
TORSDOF 7
ENDMDL
MODEL        7
REMARK 921   NORMALIZED FREE ENERGY PREDICTED BY IDOCK:   -5.91 KCAL/MOL
REMARK 922        TOTAL FREE ENERGY PREDICTED BY IDOCK:   -8.89 KCAL/MOL
REMARK 923 INTER-LIGAND FREE ENERGY PREDICTED BY IDOCK:   -8.32 KCAL/MOL
REMARK 924 INTRA-LIGAND FREE ENERGY PREDICTED BY IDOCK:   -0.56 KCAL/MOL
REMARK 927      BINDING AFFINITY PREDICTED BY RF-SCORE:    0.00 PKD
ROOT
HETATM    1  N   UNK A   1     -14.222   8.735  72.859  1.00  0.00    -1.095 NA 
HETATM    2  C   UNK A   1     -13.360   8.802  71.641  1.00  0.00    -0.359 C  
HETATM    3  H2  UNK A   1     -14.558   9.661  73.119  1.00  0.00     0.000 HD 
HETATM    4  H1  UNK A   1     -14.996   8.079  72.761  1.00  0.00     0.000 HD 
HETATM    5  O   UNK A   1     -13.409   6.459  72.123  1.00  0.00    -0.055 OA 
HETATM    6  C   UNK A   1     -12.856   7.388  71.301  1.00  0.00    -0.321 C  
HETATM    7  O   UNK A   1     -12.043   7.123  70.430  1.00  0.00    -0.213 OA 
ENDROOT
BRANCH   2   8
HETATM    8  C   UNK A   1     -12.196   9.787  71.788  1.00  0.00    -0.449 C  
BRANCH   8   9
HETATM    9  C   UNK A   1     -11.885  10.596  70.525  1.00  0.00    -0.453 C  
BRANCH   9  10
HETATM   10  C   UNK A   1     -12.346  12.024  70.699  1.00  0.00    -0.304 C  
HETATM   11  O   UNK A   1     -13.154  12.353  71.563  1.00  0.00    -0.378 OA 
HETATM   12  N   UNK A   1     -11.771  12.923  69.839  1.00  0.00    -0.485 N  
HETATM   13  H   UNK A   1     -11.104  12.588  69.144  1.00  0.00     0.000 HD 
BRANCH  12  14
HETATM   14  C   UNK A   1     -12.086  14.347  69.890  1.00  0.00    -0.344 C  
BRANCH  14  15
HETATM   15  C   UNK A   1     -11.744  14.958  68.518  1.00  0.00    -0.310 C  
ATOM     16  H   GLY A   2     -12.283  13.167  67.585  1.00  0.00     0.000 HD 
ATOM     17  N   GLY A   2     -11.883  14.096  67.443  1.00  0.00    -0.396 N  
HETATM   18  O   UNK A   1     -11.460  16.145  68.378  1.00  0.00    -0.369 OA 
BRANCH  17  19
ATOM     19  CA  GLY A   2     -11.457  14.512  66.100  1.00  0.00    -0.357 C  
ATOM     20  C   GLY A   2     -12.516  14.281  65.025  1.00  0.00    -0.400 C  
ATOM     21  O   GLY A   2     -13.658  13.727  65.498  1.00  0.00    -0.511 OA 
ATOM     22  OXT GLY A   2     -12.347  14.525  63.839  1.00  0.00    -0.730 OA 
ENDBRANCH  17  19
ENDBRANCH  14  15
BRANCH  14  23
HETATM   23  C   UNK A   1     -11.270  15.115  70.942  1.00  0.00    -0.284 C  
HETATM   24  S   UNK A   1     -12.224  15.827  72.322  1.00  0.00    -0.514 SA 
HETATM   25  H   UNK A   1     -11.486  16.521  73.272  1.00  0.00     0.000 H  
ENDBRANCH  14  23
ENDBRANCH  12  14
ENDBRANCH   9  10
ENDBRANCH   8   9
ENDBRANCH   2   8
TORSDOF 7
ENDMDL
MODEL        8
REMARK 921   NORMALIZED FREE ENERGY PREDICTED BY IDOCK:   -5.89 KCAL/MOL
REMARK 922        TOTAL FREE ENERGY PREDICTED BY IDOCK:   -8.87 KCAL/MOL
REMARK 923 INTER-LIGAND FREE ENERGY PREDICTED BY IDOCK:   -8.22 KCAL/MOL
REMARK 924 INTRA-LIGAND FREE ENERGY PREDICTED BY IDOCK:   -0.66 KCAL/MOL
REMARK 927      BINDING AFFINITY PREDICTED BY RF-SCORE:    0.00 PKD
ROOT
HETATM    1  N   UNK A   1     -13.828   8.935  73.083  1.00  0.00    -1.176 NA 
HETATM    2  C   UNK A   1     -13.317   8.862  71.682  1.00  0.00    -0.365 C  
HETATM    3  H2  UNK A   1     -14.790   9.271  73.103  1.00  0.00     0.000 HD 
HETATM    4  H1  UNK A   1     -13.739   8.052  73.584  1.00  0.00     0.000 HD 
HETATM    5  O   UNK A   1     -11.467   8.045  72.959  1.00  0.00    -0.370 OA 
HETATM    6  C   UNK A   1     -11.857   8.375  71.701  1.00  0.00    -0.304 C  
HETATM    7  O   UNK A   1     -11.123   8.316  70.728  1.00  0.00    -0.250 OA 
ENDROOT
BRANCH   2   8
HETATM    8  C   UNK A   1     -13.450  10.189  70.929  1.00  0.00    -0.153 C  
BRANCH   8   9
HETATM    9  C   UNK A   1     -12.899  11.404  71.681  1.00  0.00    -0.497 C  
BRANCH   9  10
HETATM   10  C   UNK A   1     -12.373  12.426  70.700  1.00  0.00    -0.279 C  
HETATM   11  O   UNK A   1     -12.698  13.610  70.748  1.00  0.00    -0.314 OA 
HETATM   12  N   UNK A   1     -11.487  11.936  69.777  1.00  0.00    -0.462 N  
HETATM   13  H   UNK A   1     -11.256  10.943  69.791  1.00  0.00     0.000 HD 
BRANCH  12  14
HETATM   14  C   UNK A   1     -10.865  12.795  68.775  1.00  0.00    -0.234 C  
BRANCH  14  15
HETATM   15  C   UNK A   1     -11.696  12.695  67.482  1.00  0.00    -0.368 C  
ATOM     16  H   GLY A   2     -11.358  14.723  67.106  1.00  0.00     0.000 HD 
ATOM     17  N   GLY A   2     -11.857  13.888  66.797  1.00  0.00    -0.400 N  
HETATM   18  O   UNK A   1     -12.107  11.623  67.045  1.00  0.00    -0.547 OA 
BRANCH  17  19
ATOM     19  CA  GLY A   2     -12.742  13.955  65.626  1.00  0.00    -0.495 C  
ATOM     20  C   GLY A   2     -12.034  13.653  64.307  1.00  0.00    -0.445 C  
ATOM     21  O   GLY A   2     -10.715  13.383  64.449  1.00  0.00    -0.396 OA 
ATOM     22  OXT GLY A   2     -12.582  13.691  63.216  1.00  0.00    -0.816 OA 
ENDBRANCH  17  19
ENDBRANCH  14  15
BRANCH  14  23
HETATM   23  C   UNK A   1      -9.428  12.379  68.422  1.00  0.00    -0.169 C  
HETATM   24  S   UNK A   1      -9.020  10.625  68.700  1.00  0.00    -0.176 SA 
HETATM   25  H   UNK A   1      -7.721  10.249  68.380  1.00  0.00     0.000 H  
ENDBRANCH  14  23
ENDBRANCH  12  14
ENDBRANCH   9  10
ENDBRANCH   8   9
ENDBRANCH   2   8
TORSDOF 7
ENDMDL
MODEL        9
REMARK 921   NORMALIZED FREE ENERGY PREDICTED BY IDOCK:   -5.87 KCAL/MOL
REMARK 922        TOTAL FREE ENERGY PREDICTED BY IDOCK:   -8.83 KCAL/MOL
REMARK 923 INTER-LIGAND FREE ENERGY PREDICTED BY IDOCK:   -8.45 KCAL/MOL
REMARK 924 INTRA-LIGAND FREE ENERGY PREDICTED BY IDOCK:   -0.39 KCAL/MOL
REMARK 927      BINDING AFFINITY PREDICTED BY RF-SCORE:    0.00 PKD
ROOT
HETATM    1  N   UNK A   1     -11.978  15.931  63.897  1.00  0.00    -1.249 NA 
HETATM    2  C   UNK A   1     -11.203  15.742  65.159  1.00  0.00    -0.248 C  
HETATM    3  H2  UNK A   1     -12.339  15.041  63.554  1.00  0.00     0.000 HD 
HETATM    4  H1  UNK A   1     -12.728  16.616  63.991  1.00  0.00     0.000 HD 
HETATM    5  O   UNK A   1     -11.114  18.110  64.836  1.00  0.00    -0.673 OA 
HETATM    6  C   UNK A   1     -10.659  17.104  65.626  1.00  0.00    -0.179 C  
HETATM    7  O   UNK A   1      -9.894  17.271  66.562  1.00  0.00    -0.272 OA 
ENDROOT
BRANCH   2   8
HETATM    8  C   UNK A   1     -10.078  14.712  65.019  1.00  0.00    -0.318 C  
BRANCH   8   9
HETATM    9  C   UNK A   1     -10.553  13.259  64.935  1.00  0.00    -0.381 C  
BRANCH   9  10
HETATM   10  C   UNK A   1     -11.489  12.953  66.081  1.00  0.00    -0.348 C  
HETATM   11  O   UNK A   1     -12.641  12.566  65.901  1.00  0.00    -0.514 OA 
HETATM   12  N   UNK A   1     -10.945  13.112  67.328  1.00  0.00    -0.263 N  
HETATM   13  H   UNK A   1      -9.981  13.434  67.411  1.00  0.00     0.000 HD 
BRANCH  12  14
HETATM   14  C   UNK A   1     -11.706  12.832  68.541  1.00  0.00    -0.333 C  
BRANCH  14  15
HETATM   15  C   UNK A   1     -11.672  14.095  69.424  1.00  0.00    -0.313 C  
ATOM     16  H   GLY A   2     -13.406  13.460  70.402  1.00  0.00     0.000 HD 
ATOM     17  N   GLY A   2     -12.733  14.221  70.305  1.00  0.00    -0.314 N  
HETATM   18  O   UNK A   1     -10.729  14.882  69.410  1.00  0.00    -0.245 OA 
BRANCH  17  19
ATOM     19  CA  GLY A   2     -12.892  15.445  71.102  1.00  0.00    -0.455 C  
ATOM     20  C   GLY A   2     -13.607  15.219  72.432  1.00  0.00    -0.488 C  
ATOM     21  O   GLY A   2     -13.974  13.932  72.639  1.00  0.00    -0.684 OA 
ATOM     22  OXT GLY A   2     -13.870  16.112  73.224  1.00  0.00    -0.559 OA 
ENDBRANCH  17  19
ENDBRANCH  14  15
BRANCH  14  23
HETATM   23  C   UNK A   1     -11.122  11.683  69.377  1.00  0.00    -0.206 C  
HETATM   24  S   UNK A   1     -12.229  10.980  70.642  1.00  0.00    -0.404 SA 
HETATM   25  H   UNK A   1     -11.701   9.941  71.398  1.00  0.00     0.000 H  
ENDBRANCH  14  23
ENDBRANCH  12  14
ENDBRANCH   9  10
ENDBRANCH   8   9
ENDBRANCH   2   8
TORSDOF 7
ENDMDL
MODEL       10
REMARK 921   NORMALIZED FREE ENERGY PREDICTED BY IDOCK:   -5.85 KCAL/MOL
REMARK 922        TOTAL FREE ENERGY PREDICTED BY IDOCK:   -8.81 KCAL/MOL
REMARK 923 INTER-LIGAND FREE ENERGY PREDICTED BY IDOCK:   -8.35 KCAL/MOL
REMARK 924 INTRA-LIGAND FREE ENERGY PREDICTED BY IDOCK:   -0.46 KCAL/MOL
REMARK 927      BINDING AFFINITY PREDICTED BY RF-SCORE:    0.00 PKD
ROOT
HETATM    1  N   UNK A   1     -10.046  13.540  64.164  1.00  0.00    -0.761 NA 
HETATM    2  C   UNK A   1     -10.813  12.317  63.784  1.00  0.00    -0.442 C  
HETATM    3  H2  UNK A   1      -9.065  13.319  64.329  1.00  0.00     0.000 HD 
HETATM    4  H1  UNK A   1     -10.141  14.295  63.485  1.00  0.00     0.000 HD 
HETATM    5  O   UNK A   1     -12.475  14.034  63.676  1.00  0.00    -0.803 OA 
HETATM    6  C   UNK A   1     -12.290  12.693  63.570  1.00  0.00    -0.496 C  
HETATM    7  O   UNK A   1     -13.194  11.900  63.360  1.00  0.00    -0.649 OA 
ENDROOT
BRANCH   2   8
HETATM    8  C   UNK A   1     -10.671  11.183  64.804  1.00  0.00    -0.334 C  
BRANCH   8   9
HETATM    9  C   UNK A   1     -10.038  11.602  66.135  1.00  0.00    -0.259 C  
BRANCH   9  10
HETATM   10  C   UNK A   1     -11.102  12.122  67.074  1.00  0.00    -0.294 C  
HETATM   11  O   UNK A   1     -12.026  11.418  67.472  1.00  0.00    -0.626 OA 
HETATM   12  N   UNK A   1     -10.938  13.424  67.466  1.00  0.00    -0.263 N  
HETATM   13  H   UNK A   1     -10.147  13.956  67.101  1.00  0.00     0.000 HD 
BRANCH  12  14
HETATM   14  C   UNK A   1     -11.861  14.072  68.391  1.00  0.00    -0.362 C  
BRANCH  14  15
HETATM   15  C   UNK A   1     -11.509  15.571  68.442  1.00  0.00    -0.363 C  
ATOM     16  H   GLY A   2     -10.965  15.513  66.425  1.00  0.00     0.000 HD 
ATOM     17  N   GLY A   2     -10.994  16.090  67.266  1.00  0.00    -0.261 N  
HETATM   18  O   UNK A   1     -11.752  16.272  69.421  1.00  0.00    -0.255 OA 
BRANCH  17  19
ATOM     19  CA  GLY A   2     -10.489  17.469  67.225  1.00  0.00    -0.327 C  
ATOM     20  C   GLY A   2     -10.572  18.108  65.840  1.00  0.00    -0.234 C  
ATOM     21  O   GLY A   2     -11.091  17.289  64.894  1.00  0.00    -0.807 OA 
ATOM     22  OXT GLY A   2     -10.172  19.235  65.585  1.00  0.00    -0.473 OA 
ENDBRANCH  17  19
ENDBRANCH  14  15
BRANCH  14  23
HETATM   23  C   UNK A   1     -11.762  13.536  69.828  1.00  0.00    -0.295 C  
HETATM   24  S   UNK A   1     -13.209  13.845  70.891  1.00  0.00    -0.045 SA 
HETATM   25  H   UNK A   1     -13.119  13.360  72.191  1.00  0.00     0.000 H  
ENDBRANCH  14  23
ENDBRANCH  12  14
ENDBRANCH   9  10
ENDBRANCH   8   9
ENDBRANCH   2   8
TORSDOF 7
ENDMDL
MODEL       11
REMARK 921   NORMALIZED FREE ENERGY PREDICTED BY IDOCK:   -5.85 KCAL/MOL
REMARK 922        TOTAL FREE ENERGY PREDICTED BY IDOCK:   -8.80 KCAL/MOL
REMARK 923 INTER-LIGAND FREE ENERGY PREDICTED BY IDOCK:   -8.14 KCAL/MOL
REMARK 924 INTRA-LIGAND FREE ENERGY PREDICTED BY IDOCK:   -0.66 KCAL/MOL
REMARK 927      BINDING AFFINITY PREDICTED BY RF-SCORE:    0.00 PKD
ROOT
HETATM    1  N   UNK A   1     -14.358  15.331  70.907  1.00  0.00    -0.819 NA 
HETATM    2  C   UNK A   1     -13.378  14.534  71.703  1.00  0.00    -0.363 C  
HETATM    3  H2  UNK A   1     -14.504  14.916  69.988  1.00  0.00     0.000 HD 
HETATM    4  H1  UNK A   1     -15.245  15.467  71.392  1.00  0.00     0.000 HD 
HETATM    5  O   UNK A   1     -14.002  16.272  73.224  1.00  0.00    -0.511 OA 
HETATM    6  C   UNK A   1     -13.170  15.210  73.070  1.00  0.00    -0.503 C  
HETATM    7  O   UNK A   1     -12.348  14.868  73.906  1.00  0.00    -0.535 OA 
ENDROOT
BRANCH   2   8
HETATM    8  C   UNK A   1     -12.045  14.331  70.976  1.00  0.00    -0.416 C  
BRANCH   8   9
HETATM    9  C   UNK A   1     -11.398  15.621  70.461  1.00  0.00    -0.386 C  
BRANCH   9  10
HETATM   10  C   UNK A   1     -10.209  15.292  69.588  1.00  0.00    -0.244 C  
HETATM   11  O   UNK A   1      -9.266  16.065  69.446  1.00  0.00    -0.251 OA 
HETATM   12  N   UNK A   1     -10.254  14.058  68.995  1.00  0.00    -0.407 N  
HETATM   13  H   UNK A   1     -11.066  13.460  69.154  1.00  0.00     0.000 HD 
BRANCH  12  14
HETATM   14  C   UNK A   1      -9.174  13.574  68.142  1.00  0.00    -0.208 C  
BRANCH  14  15
HETATM   15  C   UNK A   1      -9.498  13.977  66.691  1.00  0.00    -0.287 C  
ATOM     16  H   GLY A   2     -10.831  12.373  66.541  1.00  0.00     0.000 HD 
ATOM     17  N   GLY A   2     -10.377  13.133  66.032  1.00  0.00    -0.282 N  
HETATM   18  O   UNK A   1      -9.081  15.017  66.188  1.00  0.00    -0.280 OA 
BRANCH  17  19
ATOM     19  CA  GLY A   2     -10.658  13.327  64.603  1.00  0.00    -0.404 C  
ATOM     20  C   GLY A   2     -12.131  13.595  64.303  1.00  0.00    -0.434 C  
ATOM     21  O   GLY A   2     -12.918  13.600  65.405  1.00  0.00    -0.683 OA 
ATOM     22  OXT GLY A   2     -12.579  13.747  63.176  1.00  0.00    -0.793 OA 
ENDBRANCH  17  19
ENDBRANCH  14  15
BRANCH  14  23
HETATM   23  C   UNK A   1      -9.018  12.045  68.162  1.00  0.00    -0.190 C  
HETATM   24  S   UNK A   1      -7.547  11.387  67.312  1.00  0.00    -0.146 SA 
HETATM   25  H   UNK A   1      -7.407  10.004  67.330  1.00  0.00     0.000 H  
ENDBRANCH  14  23
ENDBRANCH  12  14
ENDBRANCH   9  10
ENDBRANCH   8   9
ENDBRANCH   2   8
TORSDOF 7
ENDMDL
MODEL       12
REMARK 921   NORMALIZED FREE ENERGY PREDICTED BY IDOCK:   -5.84 KCAL/MOL
REMARK 922        TOTAL FREE ENERGY PREDICTED BY IDOCK:   -8.79 KCAL/MOL
REMARK 923 INTER-LIGAND FREE ENERGY PREDICTED BY IDOCK:   -8.04 KCAL/MOL
REMARK 924 INTRA-LIGAND FREE ENERGY PREDICTED BY IDOCK:   -0.76 KCAL/MOL
REMARK 927      BINDING AFFINITY PREDICTED BY RF-SCORE:    0.00 PKD
ROOT
HETATM    1  N   UNK A   1     -10.070  13.369  63.963  1.00  0.00    -0.749 NA 
HETATM    2  C   UNK A   1     -10.880  12.138  63.720  1.00  0.00    -0.432 C  
HETATM    3  H2  UNK A   1      -9.090  13.135  64.120  1.00  0.00     0.000 HD 
HETATM    4  H1  UNK A   1     -10.166  14.060  63.220  1.00  0.00     0.000 HD 
HETATM    5  O   UNK A   1     -12.499  13.885  63.501  1.00  0.00    -0.810 OA 
HETATM    6  C   UNK A   1     -12.352  12.535  63.515  1.00  0.00    -0.525 C  
HETATM    7  O   UNK A   1     -13.283  11.753  63.405  1.00  0.00    -0.569 OA 
ENDROOT
BRANCH   2   8
HETATM    8  C   UNK A   1     -10.736  11.099  64.837  1.00  0.00    -0.318 C  
BRANCH   8   9
HETATM    9  C   UNK A   1     -10.079  11.628  66.116  1.00  0.00    -0.259 C  
BRANCH   9  10
HETATM   10  C   UNK A   1     -10.998  12.612  66.802  1.00  0.00    -0.262 C  
HETATM   11  O   UNK A   1     -12.134  12.310  67.156  1.00  0.00    -0.560 OA 
HETATM   12  N   UNK A   1     -10.455  13.850  67.023  1.00  0.00    -0.276 N  
HETATM   13  H   UNK A   1      -9.503  14.038  66.707  1.00  0.00     0.000 HD 
BRANCH  12  14
HETATM   14  C   UNK A   1     -11.199  14.907  67.699  1.00  0.00    -0.323 C  
BRANCH  14  15
HETATM   15  C   UNK A   1     -10.780  16.254  67.079  1.00  0.00    -0.233 C  
ATOM     16  H   GLY A   2     -10.936  17.168  68.952  1.00  0.00     0.000 HD 
ATOM     17  N   GLY A   2     -10.771  17.324  67.957  1.00  0.00    -0.389 N  
HETATM   18  O   UNK A   1     -10.394  16.351  65.916  1.00  0.00    -0.336 OA 
BRANCH  17  19
ATOM     19  CA  GLY A   2     -10.525  18.686  67.462  1.00  0.00    -0.428 C  
ATOM     20  C   GLY A   2      -9.148  19.231  67.835  1.00  0.00    -0.313 C  
ATOM     21  O   GLY A   2      -8.400  18.366  68.561  1.00  0.00    -0.317 OA 
ATOM     22  OXT GLY A   2      -8.760  20.355  67.551  1.00  0.00    -0.329 OA 
ENDBRANCH  17  19
ENDBRANCH  14  15
BRANCH  14  23
HETATM   23  C   UNK A   1     -10.906  14.994  69.205  1.00  0.00    -0.261 C  
HETATM   24  S   UNK A   1     -12.262  14.477  70.307  1.00  0.00    -0.348 SA 
HETATM   25  H   UNK A   1     -11.997  14.555  71.669  1.00  0.00     0.000 H  
ENDBRANCH  14  23
ENDBRANCH  12  14
ENDBRANCH   9  10
ENDBRANCH   8   9
ENDBRANCH   2   8
TORSDOF 7
ENDMDL
MODEL       13
REMARK 921   NORMALIZED FREE ENERGY PREDICTED BY IDOCK:   -5.82 KCAL/MOL
REMARK 922        TOTAL FREE ENERGY PREDICTED BY IDOCK:   -8.76 KCAL/MOL
REMARK 923 INTER-LIGAND FREE ENERGY PREDICTED BY IDOCK:   -8.18 KCAL/MOL
REMARK 924 INTRA-LIGAND FREE ENERGY PREDICTED BY IDOCK:   -0.58 KCAL/MOL
REMARK 927      BINDING AFFINITY PREDICTED BY RF-SCORE:    0.00 PKD
ROOT
HETATM    1  N   UNK A   1     -10.030  14.086  64.598  1.00  0.00    -0.649 NA 
HETATM    2  C   UNK A   1     -10.633  12.789  64.168  1.00  0.00    -0.415 C  
HETATM    3  H2  UNK A   1      -9.049  13.967  64.846  1.00  0.00     0.000 HD 
HETATM    4  H1  UNK A   1     -10.145  14.825  63.905  1.00  0.00     0.000 HD 
HETATM    5  O   UNK A   1     -12.447  14.325  63.903  1.00  0.00    -0.773 OA 
HETATM    6  C   UNK A   1     -12.117  13.010  63.827  1.00  0.00    -0.502 C  
HETATM    7  O   UNK A   1     -12.914  12.128  63.552  1.00  0.00    -0.794 OA 
ENDROOT
BRANCH   2   8
HETATM    8  C   UNK A   1     -10.462  11.678  65.209  1.00  0.00    -0.323 C  
BRANCH   8   9
HETATM    9  C   UNK A   1     -11.449  11.746  66.378  1.00  0.00    -0.309 C  
BRANCH   9  10
HETATM   10  C   UNK A   1     -10.912  12.656  67.458  1.00  0.00    -0.246 C  
HETATM   11  O   UNK A   1      -9.856  12.429  68.042  1.00  0.00    -0.194 OA 
HETATM   12  N   UNK A   1     -11.679  13.763  67.711  1.00  0.00    -0.338 N  
HETATM   13  H   UNK A   1     -12.546  13.896  67.191  1.00  0.00     0.000 HD 
BRANCH  12  14
HETATM   14  C   UNK A   1     -11.289  14.758  68.706  1.00  0.00    -0.282 C  
BRANCH  14  15
HETATM   15  C   UNK A   1     -12.046  14.446  70.011  1.00  0.00    -0.343 C  
ATOM     16  H   GLY A   2     -13.007  16.299  69.898  1.00  0.00     0.000 HD 
ATOM     17  N   GLY A   2     -12.866  15.464  70.468  1.00  0.00    -0.413 N  
HETATM   18  O   UNK A   1     -11.997  13.345  70.553  1.00  0.00    -0.326 OA 
BRANCH  17  19
ATOM     19  CA  GLY A   2     -13.533  15.347  71.772  1.00  0.00    -0.487 C  
ATOM     20  C   GLY A   2     -12.835  16.124  72.887  1.00  0.00    -0.390 C  
ATOM     21  O   GLY A   2     -11.721  16.777  72.477  1.00  0.00    -0.421 OA 
ATOM     22  OXT GLY A   2     -13.208  16.129  74.050  1.00  0.00    -0.623 OA 
ENDBRANCH  17  19
ENDBRANCH  14  15
BRANCH  14  23
HETATM   23  C   UNK A   1     -11.654  16.196  68.305  1.00  0.00    -0.181 C  
HETATM   24  S   UNK A   1     -10.620  16.942  67.003  1.00  0.00    -0.170 SA 
HETATM   25  H   UNK A   1     -10.950  18.243  66.641  1.00  0.00     0.000 H  
ENDBRANCH  14  23
ENDBRANCH  12  14
ENDBRANCH   9  10
ENDBRANCH   8   9
ENDBRANCH   2   8
TORSDOF 7
ENDMDL
MODEL       14
REMARK 921   NORMALIZED FREE ENERGY PREDICTED BY IDOCK:   -5.77 KCAL/MOL
REMARK 922        TOTAL FREE ENERGY PREDICTED BY IDOCK:   -8.69 KCAL/MOL
REMARK 923 INTER-LIGAND FREE ENERGY PREDICTED BY IDOCK:   -7.70 KCAL/MOL
REMARK 924 INTRA-LIGAND FREE ENERGY PREDICTED BY IDOCK:   -0.99 KCAL/MOL
REMARK 927      BINDING AFFINITY PREDICTED BY RF-SCORE:    0.00 PKD
ROOT
HETATM    1  N   UNK A   1     -12.281  12.351  66.151  1.00  0.00    -0.609 NA 
HETATM    2  C   UNK A   1     -10.916  12.425  66.750  1.00  0.00    -0.263 C  
HETATM    3  H2  UNK A   1     -12.350  12.947  65.326  1.00  0.00     0.000 HD 
HETATM    4  H1  UNK A   1     -12.569  11.397  65.936  1.00  0.00     0.000 HD 
HETATM    5  O   UNK A   1     -12.025  10.844  68.161  1.00  0.00    -0.581 OA 
HETATM    6  C   UNK A   1     -10.866  11.533  68.003  1.00  0.00    -0.213 C  
HETATM    7  O   UNK A   1      -9.927  11.463  68.779  1.00  0.00    -0.206 OA 
ENDROOT
BRANCH   2   8
HETATM    8  C   UNK A   1     -10.484  13.859  67.073  1.00  0.00    -0.278 C  
BRANCH   8   9
HETATM    9  C   UNK A   1     -11.591  14.740  67.659  1.00  0.00    -0.374 C  
BRANCH   9  10
HETATM   10  C   UNK A   1     -11.449  14.822  69.161  1.00  0.00    -0.299 C  
HETATM   11  O   UNK A   1     -10.501  15.386  69.700  1.00  0.00    -0.246 OA 
HETATM   12  N   UNK A   1     -12.470  14.245  69.869  1.00  0.00    -0.457 N  
HETATM   13  H   UNK A   1     -13.231  13.792  69.362  1.00  0.00     0.000 HD 
BRANCH  12  14
HETATM   14  C   UNK A   1     -12.500  14.259  71.328  1.00  0.00    -0.365 C  
BRANCH  14  15
HETATM   15  C   UNK A   1     -13.203  12.972  71.800  1.00  0.00    -0.392 C  
ATOM     16  H   GLY A   2     -11.749  11.822  70.835  1.00  0.00     0.000 HD 
ATOM     17  N   GLY A   2     -12.629  11.794  71.351  1.00  0.00    -0.310 N  
HETATM   18  O   UNK A   1     -14.144  12.988  72.590  1.00  0.00    -0.643 OA 
BRANCH  17  19
ATOM     19  CA  GLY A   2     -13.283  10.505  71.615  1.00  0.00    -0.391 C  
ATOM     20  C   GLY A   2     -12.311   9.328  71.669  1.00  0.00    -0.372 C  
ATOM     21  O   GLY A   2     -11.021   9.680  71.459  1.00  0.00    -0.348 OA 
ATOM     22  OXT GLY A   2     -12.656   8.168  71.841  1.00  0.00    -0.311 OA 
ENDBRANCH  17  19
ENDBRANCH  14  15
BRANCH  14  23
HETATM   23  C   UNK A   1     -13.287  15.443  71.910  1.00  0.00    -0.461 C  
HETATM   24  S   UNK A   1     -12.646  16.130  73.472  1.00  0.00    -0.576 SA 
HETATM   25  H   UNK A   1     -13.358  17.200  73.999  1.00  0.00     0.000 H  
ENDBRANCH  14  23
ENDBRANCH  12  14
ENDBRANCH   9  10
ENDBRANCH   8   9
ENDBRANCH   2   8
TORSDOF 7
ENDMDL
MODEL       15
REMARK 921   NORMALIZED FREE ENERGY PREDICTED BY IDOCK:   -5.75 KCAL/MOL
REMARK 922        TOTAL FREE ENERGY PREDICTED BY IDOCK:   -8.67 KCAL/MOL
REMARK 923 INTER-LIGAND FREE ENERGY PREDICTED BY IDOCK:   -8.09 KCAL/MOL
REMARK 924 INTRA-LIGAND FREE ENERGY PREDICTED BY IDOCK:   -0.58 KCAL/MOL
REMARK 927      BINDING AFFINITY PREDICTED BY RF-SCORE:    0.00 PKD
ROOT
HETATM    1  N   UNK A   1     -10.058  13.626  63.845  1.00  0.00    -0.455 NA 
HETATM    2  C   UNK A   1     -10.774  12.318  63.756  1.00  0.00    -0.449 C  
HETATM    3  H2  UNK A   1      -9.069  13.487  64.047  1.00  0.00     0.000 HD 
HETATM    4  H1  UNK A   1     -10.182  14.203  63.013  1.00  0.00     0.000 HD 
HETATM    5  O   UNK A   1     -12.504  13.899  63.276  1.00  0.00    -0.817 OA 
HETATM    6  C   UNK A   1     -12.264  12.577  63.474  1.00  0.00    -0.558 C  
HETATM    7  O   UNK A   1     -13.135  11.722  63.456  1.00  0.00    -0.617 OA 
ENDROOT
BRANCH   2   8
HETATM    8  C   UNK A   1     -10.587  11.451  65.005  1.00  0.00    -0.359 C  
BRANCH   8   9
HETATM    9  C   UNK A   1     -10.150  12.222  66.255  1.00  0.00    -0.253 C  
BRANCH   9  10
HETATM   10  C   UNK A   1     -11.347  12.518  67.127  1.00  0.00    -0.324 C  
HETATM   11  O   UNK A   1     -12.480  12.641  66.668  1.00  0.00    -0.368 OA 
HETATM   12  N   UNK A   1     -11.076  12.609  68.467  1.00  0.00    -0.250 N  
HETATM   13  H   UNK A   1     -10.113  12.495  68.787  1.00  0.00     0.000 HD 
BRANCH  12  14
HETATM   14  C   UNK A   1     -12.124  12.863  69.450  1.00  0.00    -0.198 C  
BRANCH  14  15
HETATM   15  C   UNK A   1     -11.982  14.321  69.928  1.00  0.00    -0.339 C  
ATOM     16  H   GLY A   2     -11.666  13.651  71.883  1.00  0.00     0.000 HD 
ATOM     17  N   GLY A   2     -11.797  14.473  71.292  1.00  0.00    -0.325 N  
HETATM   18  O   UNK A   1     -11.944  15.269  69.148  1.00  0.00    -0.315 OA 
BRANCH  17  19
ATOM     19  CA  GLY A   2     -11.788  15.814  71.893  1.00  0.00    -0.480 C  
ATOM     20  C   GLY A   2     -12.385  15.857  73.298  1.00  0.00    -0.523 C  
ATOM     21  O   GLY A   2     -12.823  14.654  73.738  1.00  0.00    -0.492 OA 
ATOM     22  OXT GLY A   2     -12.504  16.880  73.956  1.00  0.00    -0.476 OA 
ENDBRANCH  17  19
ENDBRANCH  14  15
BRANCH  14  23
HETATM   23  C   UNK A   1     -12.023  11.968  70.695  1.00  0.00    -0.160 C  
HETATM   24  S   UNK A   1     -11.654  10.211  70.380  1.00  0.00    -0.333 SA 
HETATM   25  H   UNK A   1     -11.563   9.402  71.506  1.00  0.00     0.000 H  
ENDBRANCH  14  23
ENDBRANCH  12  14
ENDBRANCH   9  10
ENDBRANCH   8   9
ENDBRANCH   2   8
TORSDOF 7
ENDMDL
MODEL       16
REMARK 921   NORMALIZED FREE ENERGY PREDICTED BY IDOCK:   -5.75 KCAL/MOL
REMARK 922        TOTAL FREE ENERGY PREDICTED BY IDOCK:   -8.67 KCAL/MOL
REMARK 923 INTER-LIGAND FREE ENERGY PREDICTED BY IDOCK:   -7.55 KCAL/MOL
REMARK 924 INTRA-LIGAND FREE ENERGY PREDICTED BY IDOCK:   -1.12 KCAL/MOL
REMARK 927      BINDING AFFINITY PREDICTED BY RF-SCORE:    0.00 PKD
ROOT
HETATM    1  N   UNK A   1     -10.141  14.611  65.113  1.00  0.00    -0.443 NA 
HETATM    2  C   UNK A   1     -10.908  13.340  65.265  1.00  0.00    -0.301 C  
HETATM    3  H2  UNK A   1      -9.230  14.544  65.566  1.00  0.00     0.000 HD 
HETATM    4  H1  UNK A   1     -10.044  14.902  64.140  1.00  0.00     0.000 HD 
HETATM    5  O   UNK A   1     -12.384  14.690  63.953  1.00  0.00    -0.730 OA 
HETATM    6  C   UNK A   1     -12.282  13.495  64.590  1.00  0.00    -0.406 C  
HETATM    7  O   UNK A   1     -13.184  12.674  64.636  1.00  0.00    -0.828 OA 
ENDROOT
BRANCH   2   8
HETATM    8  C   UNK A   1     -11.053  12.903  66.727  1.00  0.00    -0.315 C  
BRANCH   8   9
HETATM    9  C   UNK A   1     -12.044  13.739  67.544  1.00  0.00    -0.366 C  
BRANCH   9  10
HETATM   10  C   UNK A   1     -11.312  14.497  68.626  1.00  0.00    -0.276 C  
HETATM   11  O   UNK A   1     -11.655  14.453  69.805  1.00  0.00    -0.270 OA 
HETATM   12  N   UNK A   1     -10.225  15.210  68.196  1.00  0.00    -0.225 N  
HETATM   13  H   UNK A   1      -9.990  15.206  67.203  1.00  0.00     0.000 HD 
BRANCH  12  14
HETATM   14  C   UNK A   1      -9.392  15.977  69.117  1.00  0.00    -0.251 C  
BRANCH  14  15
HETATM   15  C   UNK A   1      -9.376  17.440  68.636  1.00  0.00    -0.267 C  
ATOM     16  H   GLY A   2     -11.396  17.295  68.119  1.00  0.00     0.000 HD 
ATOM     17  N   GLY A   2     -10.567  17.889  68.090  1.00  0.00    -0.374 N  
HETATM   18  O   UNK A   1      -8.409  18.179  68.808  1.00  0.00    -0.289 OA 
BRANCH  17  19
ATOM     19  CA  GLY A   2     -10.640  19.219  67.468  1.00  0.00    -0.474 C  
ATOM     20  C   GLY A   2     -10.631  19.179  65.941  1.00  0.00    -0.415 C  
ATOM     21  O   GLY A   2     -10.550  17.927  65.431  1.00  0.00    -0.656 OA 
ATOM     22  OXT GLY A   2     -10.649  20.176  65.234  1.00  0.00    -0.272 OA 
ENDBRANCH  17  19
ENDBRANCH  14  15
BRANCH  14  23
HETATM   23  C   UNK A   1      -7.932  15.500  69.162  1.00  0.00    -0.222 C  
HETATM   24  S   UNK A   1      -7.471  14.242  67.927  1.00  0.00    -0.170 SA 
HETATM   25  H   UNK A   1      -6.151  13.810  67.967  1.00  0.00     0.000 H  
ENDBRANCH  14  23
ENDBRANCH  12  14
ENDBRANCH   9  10
ENDBRANCH   8   9
ENDBRANCH   2   8
TORSDOF 7
ENDMDL
MODEL       17
REMARK 921   NORMALIZED FREE ENERGY PREDICTED BY IDOCK:   -5.75 KCAL/MOL
REMARK 922        TOTAL FREE ENERGY PREDICTED BY IDOCK:   -8.67 KCAL/MOL
REMARK 923 INTER-LIGAND FREE ENERGY PREDICTED BY IDOCK:   -7.74 KCAL/MOL
REMARK 924 INTRA-LIGAND FREE ENERGY PREDICTED BY IDOCK:   -0.94 KCAL/MOL
REMARK 927      BINDING AFFINITY PREDICTED BY RF-SCORE:    0.00 PKD
ROOT
HETATM    1  N   UNK A   1     -11.975  11.624  63.152  1.00  0.00    -0.926 NA 
HETATM    2  C   UNK A   1     -11.925  12.109  64.563  1.00  0.00    -0.337 C  
HETATM    3  H2  UNK A   1     -11.731  10.636  63.097  1.00  0.00     0.000 HD 
HETATM    4  H1  UNK A   1     -12.872  11.805  62.702  1.00  0.00     0.000 HD 
HETATM    5  O   UNK A   1     -12.634  14.053  63.364  1.00  0.00    -0.845 OA 
HETATM    6  C   UNK A   1     -12.274  13.607  64.595  1.00  0.00    -0.409 C  
HETATM    7  O   UNK A   1     -12.213  14.322  65.582  1.00  0.00    -0.400 OA 
ENDROOT
BRANCH   2   8
HETATM    8  C   UNK A   1     -10.577  11.838  65.239  1.00  0.00    -0.327 C  
BRANCH   8   9
HETATM    9  C   UNK A   1     -10.678  11.175  66.616  1.00  0.00    -0.322 C  
BRANCH   9  10
HETATM   10  C   UNK A   1     -10.382  12.184  67.701  1.00  0.00    -0.203 C  
HETATM   11  O   UNK A   1      -9.237  12.438  68.065  1.00  0.00    -0.190 OA 
HETATM   12  N   UNK A   1     -11.483  12.812  68.221  1.00  0.00    -0.290 N  
HETATM   13  H   UNK A   1     -12.409  12.558  67.874  1.00  0.00     0.000 HD 
BRANCH  12  14
HETATM   14  C   UNK A   1     -11.370  13.833  69.257  1.00  0.00    -0.273 C  
BRANCH  14  15
HETATM   15  C   UNK A   1     -12.166  13.352  70.486  1.00  0.00    -0.352 C  
ATOM     16  H   GLY A   2     -11.704  11.369  70.011  1.00  0.00     0.000 HD 
ATOM     17  N   GLY A   2     -12.238  11.977  70.633  1.00  0.00    -0.371 N  
HETATM   18  O   UNK A   1     -12.622  14.130  71.320  1.00  0.00    -0.324 OA 
BRANCH  17  19
ATOM     19  CA  GLY A   2     -13.083  11.389  71.682  1.00  0.00    -0.393 C  
ATOM     20  C   GLY A   2     -13.051   9.862  71.707  1.00  0.00    -0.452 C  
ATOM     21  O   GLY A   2     -12.256   9.321  70.753  1.00  0.00    -0.246 OA 
ATOM     22  OXT GLY A   2     -13.709   9.179  72.478  1.00  0.00    -0.474 OA 
ENDBRANCH  17  19
ENDBRANCH  14  15
BRANCH  14  23
HETATM   23  C   UNK A   1     -11.958  15.191  68.842  1.00  0.00    -0.253 C  
HETATM   24  S   UNK A   1     -10.756  16.430  68.260  1.00  0.00    -0.350 SA 
HETATM   25  H   UNK A   1     -11.287  17.658  67.885  1.00  0.00     0.000 H  
ENDBRANCH  14  23
ENDBRANCH  12  14
ENDBRANCH   9  10
ENDBRANCH   8   9
ENDBRANCH   2   8
TORSDOF 7
ENDMDL
MODEL       18
REMARK 921   NORMALIZED FREE ENERGY PREDICTED BY IDOCK:   -5.75 KCAL/MOL
REMARK 922        TOTAL FREE ENERGY PREDICTED BY IDOCK:   -8.67 KCAL/MOL
REMARK 923 INTER-LIGAND FREE ENERGY PREDICTED BY IDOCK:   -7.66 KCAL/MOL
REMARK 924 INTRA-LIGAND FREE ENERGY PREDICTED BY IDOCK:   -1.01 KCAL/MOL
REMARK 927      BINDING AFFINITY PREDICTED BY RF-SCORE:    0.00 PKD
ROOT
HETATM    1  N   UNK A   1     -11.594  16.390  63.729  1.00  0.00    -1.515 NA 
HETATM    2  C   UNK A   1     -11.627  15.328  64.778  1.00  0.00    -0.322 C  
HETATM    3  H2  UNK A   1     -12.155  16.122  62.921  1.00  0.00     0.000 HD 
HETATM    4  H1  UNK A   1     -11.874  17.305  64.081  1.00  0.00     0.000 HD 
HETATM    5  O   UNK A   1     -10.274  17.023  65.787  1.00  0.00    -0.506 OA 
HETATM    6  C   UNK A   1     -10.749  15.763  65.964  1.00  0.00    -0.306 C  
HETATM    7  O   UNK A   1     -10.479  15.069  66.931  1.00  0.00    -0.269 OA 
ENDROOT
BRANCH   2   8
HETATM    8  C   UNK A   1     -11.205  13.954  64.249  1.00  0.00    -0.278 C  
BRANCH   8   9
HETATM    9  C   UNK A   1     -12.128  12.804  64.661  1.00  0.00    -0.483 C  
BRANCH   9  10
HETATM   10  C   UNK A   1     -11.431  11.913  65.664  1.00  0.00    -0.255 C  
HETATM   11  O   UNK A   1     -10.713  10.978  65.322  1.00  0.00    -0.246 OA 
HETATM   12  N   UNK A   1     -11.639  12.250  66.975  1.00  0.00    -0.351 N  
HETATM   13  H   UNK A   1     -12.245  13.040  67.195  1.00  0.00     0.000 HD 
BRANCH  12  14
HETATM   14  C   UNK A   1     -11.016  11.509  68.068  1.00  0.00    -0.231 C  
BRANCH  14  15
HETATM   15  C   UNK A   1     -11.785  11.838  69.362  1.00  0.00    -0.341 C  
ATOM     16  H   GLY A   2     -11.644  13.878  68.929  1.00  0.00     0.000 HD 
ATOM     17  N   GLY A   2     -11.940  13.189  69.622  1.00  0.00    -0.317 N  
HETATM   18  O   UNK A   1     -12.299  10.968  70.061  1.00  0.00    -0.320 OA 
BRANCH  17  19
ATOM     19  CA  GLY A   2     -12.531  13.636  70.891  1.00  0.00    -0.371 C  
ATOM     20  C   GLY A   2     -12.760  15.144  70.960  1.00  0.00    -0.392 C  
ATOM     21  O   GLY A   2     -12.373  15.804  69.843  1.00  0.00    -0.338 OA 
ATOM     22  OXT GLY A   2     -13.208  15.720  71.941  1.00  0.00    -0.463 OA 
ENDBRANCH  17  19
ENDBRANCH  14  15
BRANCH  14  23
HETATM   23  C   UNK A   1      -9.547  11.891  68.306  1.00  0.00    -0.201 C  
HETATM   24  S   UNK A   1      -8.484  10.573  68.980  1.00  0.00    -0.149 SA 
HETATM   25  H   UNK A   1      -7.156  10.919  69.195  1.00  0.00     0.000 H  
ENDBRANCH  14  23
ENDBRANCH  12  14
ENDBRANCH   9  10
ENDBRANCH   8   9
ENDBRANCH   2   8
TORSDOF 7
ENDMDL
MODEL       19
REMARK 921   NORMALIZED FREE ENERGY PREDICTED BY IDOCK:   -5.74 KCAL/MOL
REMARK 922        TOTAL FREE ENERGY PREDICTED BY IDOCK:   -8.65 KCAL/MOL
REMARK 923 INTER-LIGAND FREE ENERGY PREDICTED BY IDOCK:   -7.82 KCAL/MOL
REMARK 924 INTRA-LIGAND FREE ENERGY PREDICTED BY IDOCK:   -0.84 KCAL/MOL
REMARK 927      BINDING AFFINITY PREDICTED BY RF-SCORE:    0.00 PKD
ROOT
HETATM    1  N   UNK A   1     -10.768  16.724  69.167  1.00  0.00    -0.339 NA 
HETATM    2  C   UNK A   1     -10.373  16.057  67.892  1.00  0.00    -0.269 C  
HETATM    3  H2  UNK A   1     -10.768  16.061  69.941  1.00  0.00     0.000 HD 
HETATM    4  H1  UNK A   1     -10.193  17.538  69.384  1.00  0.00     0.000 HD 
HETATM    5  O   UNK A   1     -10.684  18.332  67.221  1.00  0.00    -0.404 OA 
HETATM    6  C   UNK A   1     -10.411  17.088  66.750  1.00  0.00    -0.302 C  
HETATM    7  O   UNK A   1     -10.249  16.833  65.567  1.00  0.00    -0.567 OA 
ENDROOT
BRANCH   2   8
HETATM    8  C   UNK A   1     -11.238  14.835  67.565  1.00  0.00    -0.339 C  
BRANCH   8   9
HETATM    9  C   UNK A   1     -10.467  13.514  67.487  1.00  0.00    -0.237 C  
BRANCH   9  10
HETATM   10  C   UNK A   1     -11.327  12.381  67.998  1.00  0.00    -0.287 C  
HETATM   11  O   UNK A   1     -12.059  11.729  67.259  1.00  0.00    -0.595 OA 
HETATM   12  N   UNK A   1     -11.203  12.123  69.338  1.00  0.00    -0.412 N  
HETATM   13  H   UNK A   1     -10.576  12.700  69.898  1.00  0.00     0.000 HD 
BRANCH  12  14
HETATM   14  C   UNK A   1     -11.943  11.045  69.986  1.00  0.00    -0.351 C  
BRANCH  14  15
HETATM   15  C   UNK A   1     -12.677  11.639  71.203  1.00  0.00    -0.325 C  
ATOM     16  H   GLY A   2     -12.615  13.532  70.320  1.00  0.00     0.000 HD 
ATOM     17  N   GLY A   2     -12.866  13.010  71.160  1.00  0.00    -0.295 N  
HETATM   18  O   UNK A   1     -13.139  10.937  72.099  1.00  0.00    -0.463 OA 
BRANCH  17  19
ATOM     19  CA  GLY A   2     -13.427  13.716  72.320  1.00  0.00    -0.555 C  
ATOM     20  C   GLY A   2     -13.658  15.206  72.075  1.00  0.00    -0.446 C  
ATOM     21  O   GLY A   2     -13.299  15.613  70.834  1.00  0.00    -0.556 OA 
ATOM     22  OXT GLY A   2     -14.083  15.978  72.921  1.00  0.00    -0.530 OA 
ENDBRANCH  17  19
ENDBRANCH  14  15
BRANCH  14  23
HETATM   23  C   UNK A   1     -11.042   9.915  70.508  1.00  0.00    -0.332 C  
HETATM   24  S   UNK A   1     -10.279   8.857  69.236  1.00  0.00    -0.213 SA 
HETATM   25  H   UNK A   1      -9.465   7.834  69.709  1.00  0.00     0.000 H  
ENDBRANCH  14  23
ENDBRANCH  12  14
ENDBRANCH   9  10
ENDBRANCH   8   9
ENDBRANCH   2   8
TORSDOF 7
ENDMDL
MODEL       20
REMARK 921   NORMALIZED FREE ENERGY PREDICTED BY IDOCK:   -5.71 KCAL/MOL
REMARK 922        TOTAL FREE ENERGY PREDICTED BY IDOCK:   -8.62 KCAL/MOL
REMARK 923 INTER-LIGAND FREE ENERGY PREDICTED BY IDOCK:   -7.97 KCAL/MOL
REMARK 924 INTRA-LIGAND FREE ENERGY PREDICTED BY IDOCK:   -0.64 KCAL/MOL
REMARK 927      BINDING AFFINITY PREDICTED BY RF-SCORE:    0.00 PKD
ROOT
HETATM    1  N   UNK A   1     -12.416  14.016  63.391  1.00  0.00    -1.123 NA 
HETATM    2  C   UNK A   1     -11.540  14.174  64.589  1.00  0.00    -0.406 C  
HETATM    3  H2  UNK A   1     -12.687  13.041  63.263  1.00  0.00     0.000 HD 
HETATM    4  H1  UNK A   1     -13.236  14.622  63.416  1.00  0.00     0.000 HD 
HETATM    5  O   UNK A   1     -11.764  16.422  63.802  1.00  0.00    -1.049 OA 
HETATM    6  C   UNK A   1     -11.136  15.652  64.729  1.00  0.00    -0.412 C  
HETATM    7  O   UNK A   1     -10.336  16.089  65.540  1.00  0.00    -0.367 OA 
ENDROOT
BRANCH   2   8
HETATM    8  C   UNK A   1     -10.308  13.263  64.551  1.00  0.00    -0.394 C  
BRANCH   8   9
HETATM    9  C   UNK A   1     -10.597  11.820  64.126  1.00  0.00    -0.403 C  
BRANCH   9  10
HETATM   10  C   UNK A   1     -10.220  10.867  65.236  1.00  0.00    -0.288 C  
HETATM   11  O   UNK A   1      -9.696   9.779  65.016  1.00  0.00    -0.298 OA 
HETATM   12  N   UNK A   1     -10.481  11.324  66.501  1.00  0.00    -0.244 N  
HETATM   13  H   UNK A   1     -10.916  12.239  66.618  1.00  0.00     0.000 HD 
BRANCH  12  14
HETATM   14  C   UNK A   1     -10.153  10.539  67.686  1.00  0.00    -0.179 C  
BRANCH  14  15
HETATM   15  C   UNK A   1     -11.284  10.734  68.713  1.00  0.00    -0.272 C  
ATOM     16  H   GLY A   2     -10.059   9.952  70.215  1.00  0.00     0.000 HD 
ATOM     17  N   GLY A   2     -10.997  10.285  69.991  1.00  0.00    -0.292 N  
HETATM   18  O   UNK A   1     -12.326  11.327  68.440  1.00  0.00    -0.545 OA 
BRANCH  17  19
ATOM     19  CA  GLY A   2     -12.040  10.286  71.027  1.00  0.00    -0.386 C  
ATOM     20  C   GLY A   2     -12.457   8.886  71.474  1.00  0.00    -0.324 C  
ATOM     21  O   GLY A   2     -11.796   7.892  70.832  1.00  0.00    -0.287 OA 
ATOM     22  OXT GLY A   2     -13.332   8.666  72.298  1.00  0.00    -0.370 OA 
ENDBRANCH  17  19
ENDBRANCH  14  15
BRANCH  14  23
HETATM   23  C   UNK A   1      -8.846  10.977  68.366  1.00  0.00    -0.151 C  
HETATM   24  S   UNK A   1      -8.295  12.676  68.005  1.00  0.00    -0.184 SA 
HETATM   25  H   UNK A   1      -7.114  13.072  68.620  1.00  0.00     0.000 H  
ENDBRANCH  14  23
ENDBRANCH  12  14
ENDBRANCH   9  10
ENDBRANCH   8   9
ENDBRANCH   2   8
TORSDOF 7
ENDMDL
MODEL       21
REMARK 921   NORMALIZED FREE ENERGY PREDICTED BY IDOCK:   -5.70 KCAL/MOL
REMARK 922        TOTAL FREE ENERGY PREDICTED BY IDOCK:   -8.60 KCAL/MOL
REMARK 923 INTER-LIGAND FREE ENERGY PREDICTED BY IDOCK:   -7.83 KCAL/MOL
REMARK 924 INTRA-LIGAND FREE ENERGY PREDICTED BY IDOCK:   -0.77 KCAL/MOL
REMARK 927      BINDING AFFINITY PREDICTED BY RF-SCORE:    0.00 PKD
ROOT
HETATM    1  N   UNK A   1     -10.129  10.221  70.166  1.00  0.00    -0.425 NA 
HETATM    2  C   UNK A   1     -11.261   9.773  71.030  1.00  0.00    -0.381 C  
HETATM    3  H2  UNK A   1      -9.974  11.225  70.259  1.00  0.00     0.000 HD 
HETATM    4  H1  UNK A   1      -9.268   9.702  70.340  1.00  0.00     0.000 HD 
HETATM    5  O   UNK A   1     -10.518   7.729  70.033  1.00  0.00    -0.220 OA 
HETATM    6  C   UNK A   1     -11.473   8.261  70.839  1.00  0.00    -0.274 C  
HETATM    7  O   UNK A   1     -12.390   7.614  71.319  1.00  0.00    -0.314 OA 
ENDROOT
BRANCH   2   8
HETATM    8  C   UNK A   1     -12.554  10.552  70.769  1.00  0.00    -0.474 C  
BRANCH   8   9
HETATM    9  C   UNK A   1     -13.255  11.062  72.032  1.00  0.00    -0.447 C  
BRANCH   9  10
HETATM   10  C   UNK A   1     -13.424  12.562  71.961  1.00  0.00    -0.387 C  
HETATM   11  O   UNK A   1     -14.281  13.157  72.608  1.00  0.00    -0.677 OA 
HETATM   12  N   UNK A   1     -12.530  13.204  71.145  1.00  0.00    -0.341 N  
HETATM   13  H   UNK A   1     -11.840  12.653  70.635  1.00  0.00     0.000 HD 
BRANCH  12  14
HETATM   14  C   UNK A   1     -12.539  14.655  70.985  1.00  0.00    -0.329 C  
BRANCH  14  15
HETATM   15  C   UNK A   1     -12.026  14.979  69.569  1.00  0.00    -0.313 C  
ATOM     16  H   GLY A   2     -12.111  12.950  69.072  1.00  0.00     0.000 HD 
ATOM     17  N   GLY A   2     -11.828  13.878  68.753  1.00  0.00    -0.344 N  
HETATM   18  O   UNK A   1     -11.891  16.131  69.166  1.00  0.00    -0.309 OA 
BRANCH  17  19
ATOM     19  CA  GLY A   2     -11.210  14.039  67.430  1.00  0.00    -0.311 C  
ATOM     20  C   GLY A   2     -11.362  12.813  66.532  1.00  0.00    -0.322 C  
ATOM     21  O   GLY A   2     -12.032  11.792  67.117  1.00  0.00    -0.617 OA 
ATOM     22  OXT GLY A   2     -10.890  12.729  65.408  1.00  0.00    -0.277 OA 
ENDBRANCH  17  19
ENDBRANCH  14  15
BRANCH  14  23
HETATM   23  C   UNK A   1     -11.618  15.383  71.976  1.00  0.00    -0.459 C  
HETATM   24  S   UNK A   1     -12.434  16.091  73.444  1.00  0.00    -0.606 SA 
HETATM   25  H   UNK A   1     -11.601  16.750  74.340  1.00  0.00     0.000 H  
ENDBRANCH  14  23
ENDBRANCH  12  14
ENDBRANCH   9  10
ENDBRANCH   8   9
ENDBRANCH   2   8
TORSDOF 7
ENDMDL
MODEL       22
REMARK 921   NORMALIZED FREE ENERGY PREDICTED BY IDOCK:   -5.69 KCAL/MOL
REMARK 922        TOTAL FREE ENERGY PREDICTED BY IDOCK:   -8.59 KCAL/MOL
REMARK 923 INTER-LIGAND FREE ENERGY PREDICTED BY IDOCK:   -7.43 KCAL/MOL
REMARK 924 INTRA-LIGAND FREE ENERGY PREDICTED BY IDOCK:   -1.16 KCAL/MOL
REMARK 927      BINDING AFFINITY PREDICTED BY RF-SCORE:    0.00 PKD
ROOT
HETATM    1  N   UNK A   1     -12.401  13.878  62.958  1.00  0.00    -1.023 NA 
HETATM    2  C   UNK A   1     -12.039  12.700  63.800  1.00  0.00    -0.522 C  
HETATM    3  H2  UNK A   1     -12.079  13.753  61.998  1.00  0.00     0.000 HD 
HETATM    4  H1  UNK A   1     -13.397  14.094  62.984  1.00  0.00     0.000 HD 
HETATM    5  O   UNK A   1     -13.229  14.098  65.334  1.00  0.00    -0.741 OA 
HETATM    6  C   UNK A   1     -12.520  12.943  65.242  1.00  0.00    -0.493 C  
HETATM    7  O   UNK A   1     -12.280  12.219  66.194  1.00  0.00    -0.647 OA 
ENDROOT
BRANCH   2   8
HETATM    8  C   UNK A   1     -10.542  12.377  63.762  1.00  0.00    -0.486 C  
BRANCH   8   9
HETATM    9  C   UNK A   1     -10.217  10.896  63.543  1.00  0.00    -0.379 C  
BRANCH   9  10
HETATM   10  C   UNK A   1      -9.439  10.357  64.721  1.00  0.00    -0.273 C  
HETATM   11  O   UNK A   1      -8.645   9.427  64.612  1.00  0.00    -0.165 OA 
HETATM   12  N   UNK A   1      -9.666  11.005  65.907  1.00  0.00    -0.214 N  
HETATM   13  H   UNK A   1     -10.337  11.773  65.932  1.00  0.00     0.000 HD 
BRANCH  12  14
HETATM   14  C   UNK A   1      -8.975  10.627  67.135  1.00  0.00    -0.136 C  
BRANCH  14  15
HETATM   15  C   UNK A   1      -9.994   9.931  68.058  1.00  0.00    -0.152 C  
ATOM     16  H   GLY A   2      -9.379  11.137  69.650  1.00  0.00     0.000 HD 
ATOM     17  N   GLY A   2      -9.971  10.351  69.377  1.00  0.00    -0.224 N  
HETATM   18  O   UNK A   1     -10.826   9.131  67.635  1.00  0.00    -0.234 OA 
BRANCH  17  19
ATOM     19  CA  GLY A   2     -10.794   9.669  70.386  1.00  0.00    -0.295 C  
ATOM     20  C   GLY A   2     -11.861  10.566  71.009  1.00  0.00    -0.340 C  
ATOM     21  O   GLY A   2     -11.856  11.832  70.527  1.00  0.00    -0.330 OA 
ATOM     22  OXT GLY A   2     -12.625  10.203  71.892  1.00  0.00    -0.396 OA 
ENDBRANCH  17  19
ENDBRANCH  14  15
BRANCH  14  23
HETATM   23  C   UNK A   1      -8.410  11.827  67.912  1.00  0.00    -0.149 C  
HETATM   24  S   UNK A   1      -9.067  13.459  67.436  1.00  0.00    -0.227 SA 
HETATM   25  H   UNK A   1      -8.556  14.544  68.138  1.00  0.00     0.000 H  
ENDBRANCH  14  23
ENDBRANCH  12  14
ENDBRANCH   9  10
ENDBRANCH   8   9
ENDBRANCH   2   8
TORSDOF 7
ENDMDL
MODEL       23
REMARK 921   NORMALIZED FREE ENERGY PREDICTED BY IDOCK:   -5.61 KCAL/MOL
REMARK 922        TOTAL FREE ENERGY PREDICTED BY IDOCK:   -8.47 KCAL/MOL
REMARK 923 INTER-LIGAND FREE ENERGY PREDICTED BY IDOCK:   -7.54 KCAL/MOL
REMARK 924 INTRA-LIGAND FREE ENERGY PREDICTED BY IDOCK:   -0.93 KCAL/MOL
REMARK 927      BINDING AFFINITY PREDICTED BY RF-SCORE:    0.00 PKD
ROOT
HETATM    1  N   UNK A   1     -10.329  14.076  64.351  1.00  0.00    -0.662 NA 
HETATM    2  C   UNK A   1     -10.843  12.704  64.067  1.00  0.00    -0.415 C  
HETATM    3  H2  UNK A   1      -9.390  14.039  64.746  1.00  0.00     0.000 HD 
HETATM    4  H1  UNK A   1     -10.358  14.687  63.535  1.00  0.00     0.000 HD 
HETATM    5  O   UNK A   1     -12.629  14.102  63.306  1.00  0.00    -0.766 OA 
HETATM    6  C   UNK A   1     -12.269  12.807  63.496  1.00  0.00    -0.525 C  
HETATM    7  O   UNK A   1     -13.004  11.860  63.267  1.00  0.00    -0.707 OA 
ENDROOT
BRANCH   2   8
HETATM    8  C   UNK A   1     -10.801  11.786  65.292  1.00  0.00    -0.343 C  
BRANCH   8   9
HETATM    9  C   UNK A   1     -11.723  12.213  66.438  1.00  0.00    -0.394 C  
BRANCH   9  10
HETATM   10  C   UNK A   1     -10.912  12.825  67.556  1.00  0.00    -0.249 C  
HETATM   11  O   UNK A   1     -10.599  12.194  68.562  1.00  0.00    -0.221 OA 
HETATM   12  N   UNK A   1     -10.530  14.124  67.346  1.00  0.00    -0.269 N  
HETATM   13  H   UNK A   1     -10.821  14.594  66.488  1.00  0.00     0.000 HD 
BRANCH  12  14
HETATM   14  C   UNK A   1      -9.720  14.855  68.315  1.00  0.00    -0.215 C  
BRANCH  14  15
HETATM   15  C   UNK A   1     -10.206  16.317  68.333  1.00  0.00    -0.249 C  
ATOM     16  H   GLY A   2     -10.403  16.279  66.252  1.00  0.00     0.000 HD 
ATOM     17  N   GLY A   2     -10.453  16.866  67.085  1.00  0.00    -0.316 N  
HETATM   18  O   UNK A   1     -10.444  16.919  69.377  1.00  0.00    -0.321 OA 
BRANCH  17  19
ATOM     19  CA  GLY A   2     -10.786  18.292  66.958  1.00  0.00    -0.276 C  
ATOM     20  C   GLY A   2      -9.684  19.119  66.298  1.00  0.00    -0.365 C  
ATOM     21  O   GLY A   2      -8.594  18.393  65.953  1.00  0.00    -0.503 OA 
ATOM     22  OXT GLY A   2      -9.748  20.328  66.130  1.00  0.00    -0.399 OA 
ENDBRANCH  17  19
ENDBRANCH  14  15
BRANCH  14  23
HETATM   23  C   UNK A   1      -8.224  14.881  67.963  1.00  0.00    -0.139 C  
HETATM   24  S   UNK A   1      -7.092  15.252  69.342  1.00  0.00    -0.204 SA 
HETATM   25  H   UNK A   1      -5.740  15.275  69.025  1.00  0.00     0.000 H  
ENDBRANCH  14  23
ENDBRANCH  12  14
ENDBRANCH   9  10
ENDBRANCH   8   9
ENDBRANCH   2   8
TORSDOF 7
ENDMDL
MODEL       24
REMARK 921   NORMALIZED FREE ENERGY PREDICTED BY IDOCK:   -5.60 KCAL/MOL
REMARK 922        TOTAL FREE ENERGY PREDICTED BY IDOCK:   -8.46 KCAL/MOL
REMARK 923 INTER-LIGAND FREE ENERGY PREDICTED BY IDOCK:   -7.80 KCAL/MOL
REMARK 924 INTRA-LIGAND FREE ENERGY PREDICTED BY IDOCK:   -0.66 KCAL/MOL
REMARK 927      BINDING AFFINITY PREDICTED BY RF-SCORE:    0.00 PKD
ROOT
HETATM    1  N   UNK A   1     -11.877  12.829  70.147  1.00  0.00    -0.513 NA 
HETATM    2  C   UNK A   1     -12.160  11.368  70.031  1.00  0.00    -0.340 C  
HETATM    3  H2  UNK A   1     -11.387  13.172  69.322  1.00  0.00     0.000 HD 
HETATM    4  H1  UNK A   1     -12.714  13.382  70.331  1.00  0.00     0.000 HD 
HETATM    5  O   UNK A   1     -13.152  11.931  72.134  1.00  0.00    -0.443 OA 
HETATM    6  C   UNK A   1     -12.877  10.890  71.307  1.00  0.00    -0.433 C  
HETATM    7  O   UNK A   1     -13.144   9.728  71.569  1.00  0.00    -0.359 OA 
ENDROOT
BRANCH   2   8
HETATM    8  C   UNK A   1     -10.902  10.537  69.757  1.00  0.00    -0.335 C  
BRANCH   8   9
HETATM    9  C   UNK A   1     -10.957   9.708  68.470  1.00  0.00    -0.153 C  
BRANCH   9  10
HETATM   10  C   UNK A   1     -10.667  10.586  67.275  1.00  0.00    -0.277 C  
HETATM   11  O   UNK A   1      -9.802  10.306  66.450  1.00  0.00    -0.197 OA 
HETATM   12  N   UNK A   1     -11.460  11.698  67.171  1.00  0.00    -0.299 N  
HETATM   13  H   UNK A   1     -12.163  11.875  67.889  1.00  0.00     0.000 HD 
BRANCH  12  14
HETATM   14  C   UNK A   1     -11.328  12.637  66.062  1.00  0.00    -0.327 C  
BRANCH  14  15
HETATM   15  C   UNK A   1     -11.228  14.057  66.651  1.00  0.00    -0.323 C  
ATOM     16  H   GLY A   2     -10.159  14.682  64.967  1.00  0.00     0.000 HD 
ATOM     17  N   GLY A   2     -10.498  14.955  65.890  1.00  0.00    -0.297 N  
HETATM   18  O   UNK A   1     -11.826  14.390  67.671  1.00  0.00    -0.369 OA 
BRANCH  17  19
ATOM     19  CA  GLY A   2     -10.210  16.300  66.407  1.00  0.00    -0.313 C  
ATOM     20  C   GLY A   2     -10.638  17.422  65.463  1.00  0.00    -0.108 C  
ATOM     21  O   GLY A   2     -11.200  16.978  64.313  1.00  0.00    -1.186 OA 
ATOM     22  OXT GLY A   2     -10.456  18.609  65.689  1.00  0.00    -0.603 OA 
ENDBRANCH  17  19
ENDBRANCH  14  15
BRANCH  14  23
HETATM   23  C   UNK A   1     -12.533  12.628  65.108  1.00  0.00    -0.463 C  
HETATM   24  S   UNK A   1     -12.147  12.382  63.345  1.00  0.00    -0.467 SA 
HETATM   25  H   UNK A   1     -13.237  12.375  62.482  1.00  0.00     0.000 H  
ENDBRANCH  14  23
ENDBRANCH  12  14
ENDBRANCH   9  10
ENDBRANCH   8   9
ENDBRANCH   2   8
TORSDOF 7
ENDMDL
MODEL       25
REMARK 921   NORMALIZED FREE ENERGY PREDICTED BY IDOCK:   -5.60 KCAL/MOL
REMARK 922        TOTAL FREE ENERGY PREDICTED BY IDOCK:   -8.46 KCAL/MOL
REMARK 923 INTER-LIGAND FREE ENERGY PREDICTED BY IDOCK:   -7.83 KCAL/MOL
REMARK 924 INTRA-LIGAND FREE ENERGY PREDICTED BY IDOCK:   -0.63 KCAL/MOL
REMARK 927      BINDING AFFINITY PREDICTED BY RF-SCORE:    0.00 PKD
ROOT
HETATM    1  N   UNK A   1     -10.426   9.665  69.810  1.00  0.00    -0.221 NA 
HETATM    2  C   UNK A   1     -11.267  10.847  70.163  1.00  0.00    -0.237 C  
HETATM    3  H2  UNK A   1      -9.786   9.888  69.048  1.00  0.00     0.000 HD 
HETATM    4  H1  UNK A   1      -9.922   9.283  70.610  1.00  0.00     0.000 HD 
HETATM    5  O   UNK A   1     -11.988   9.198  71.739  1.00  0.00    -0.335 OA 
HETATM    6  C   UNK A   1     -12.232  10.459  71.298  1.00  0.00    -0.389 C  
HETATM    7  O   UNK A   1     -13.124  11.168  71.735  1.00  0.00    -0.467 OA 
ENDROOT
BRANCH   2   8
HETATM    8  C   UNK A   1     -12.025  11.420  68.962  1.00  0.00    -0.387 C  
BRANCH   8   9
HETATM    9  C   UNK A   1     -11.758  12.904  68.692  1.00  0.00    -0.359 C  
BRANCH   9  10
HETATM   10  C   UNK A   1     -11.131  13.078  67.328  1.00  0.00    -0.273 C  
HETATM   11  O   UNK A   1     -10.280  12.307  66.894  1.00  0.00    -0.212 OA 
HETATM   12  N   UNK A   1     -11.607  14.142  66.607  1.00  0.00    -0.366 N  
HETATM   13  H   UNK A   1     -12.316  14.745  67.023  1.00  0.00     0.000 HD 
BRANCH  12  14
HETATM   14  C   UNK A   1     -11.127  14.436  65.260  1.00  0.00    -0.342 C  
BRANCH  14  15
HETATM   15  C   UNK A   1     -10.973  15.963  65.134  1.00  0.00    -0.377 C  
ATOM     16  H   GLY A   2      -9.701  15.974  66.792  1.00  0.00     0.000 HD 
ATOM     17  N   GLY A   2     -10.198  16.556  66.117  1.00  0.00    -0.332 N  
HETATM   18  O   UNK A   1     -11.428  16.594  64.183  1.00  0.00    -1.131 OA 
BRANCH  17  19
ATOM     19  CA  GLY A   2     -10.088  18.019  66.191  1.00  0.00    -0.334 C  
ATOM     20  C   GLY A   2     -10.469  18.592  67.555  1.00  0.00    -0.418 C  
ATOM     21  O   GLY A   2     -10.846  17.650  68.452  1.00  0.00    -0.294 OA 
ATOM     22  OXT GLY A   2     -10.481  19.786  67.813  1.00  0.00    -0.426 OA 
ENDBRANCH  17  19
ENDBRANCH  14  15
BRANCH  14  23
HETATM   23  C   UNK A   1     -12.095  13.987  64.155  1.00  0.00    -0.422 C  
HETATM   24  S   UNK A   1     -11.900  12.269  63.579  1.00  0.00    -0.512 SA 
HETATM   25  H   UNK A   1     -12.776  11.863  62.580  1.00  0.00     0.000 H  
ENDBRANCH  14  23
ENDBRANCH  12  14
ENDBRANCH   9  10
ENDBRANCH   8   9
ENDBRANCH   2   8
TORSDOF 7
ENDMDL
MODEL       26
REMARK 921   NORMALIZED FREE ENERGY PREDICTED BY IDOCK:   -5.60 KCAL/MOL
REMARK 922        TOTAL FREE ENERGY PREDICTED BY IDOCK:   -8.46 KCAL/MOL
REMARK 923 INTER-LIGAND FREE ENERGY PREDICTED BY IDOCK:   -7.74 KCAL/MOL
REMARK 924 INTRA-LIGAND FREE ENERGY PREDICTED BY IDOCK:   -0.72 KCAL/MOL
REMARK 927      BINDING AFFINITY PREDICTED BY RF-SCORE:    0.00 PKD
ROOT
HETATM    1  N   UNK A   1     -11.615  16.221  63.906  1.00  0.00    -1.573 NA 
HETATM    2  C   UNK A   1     -11.132  15.685  65.213  1.00  0.00    -0.303 C  
HETATM    3  H2  UNK A   1     -12.030  15.482  63.339  1.00  0.00     0.000 HD 
HETATM    4  H1  UNK A   1     -12.260  17.004  64.013  1.00  0.00     0.000 HD 
HETATM    5  O   UNK A   1     -10.637  18.019  65.387  1.00  0.00    -0.648 OA 
HETATM    6  C   UNK A   1     -10.493  16.828  66.022  1.00  0.00    -0.293 C  
HETATM    7  O   UNK A   1      -9.906  16.694  67.084  1.00  0.00    -0.246 OA 
ENDROOT
BRANCH   2   8
HETATM    8  C   UNK A   1     -10.162  14.509  65.053  1.00  0.00    -0.398 C  
BRANCH   8   9
HETATM    9  C   UNK A   1     -10.734  13.315  64.283  1.00  0.00    -0.408 C  
BRANCH   9  10
HETATM   10  C   UNK A   1     -11.328  12.314  65.247  1.00  0.00    -0.338 C  
HETATM   11  O   UNK A   1     -12.530  12.275  65.494  1.00  0.00    -0.597 OA 
HETATM   12  N   UNK A   1     -10.428  11.440  65.797  1.00  0.00    -0.256 N  
HETATM   13  H   UNK A   1      -9.441  11.523  65.550  1.00  0.00     0.000 HD 
BRANCH  12  14
HETATM   14  C   UNK A   1     -10.840  10.394  66.727  1.00  0.00    -0.116 C  
BRANCH  14  15
HETATM   15  C   UNK A   1     -10.751  10.965  68.155  1.00  0.00    -0.214 C  
ATOM     16  H   GLY A   2     -12.836  11.069  68.246  1.00  0.00     0.000 HD 
ATOM     17  N   GLY A   2     -11.967  11.299  68.728  1.00  0.00    -0.327 N  
HETATM   18  O   UNK A   1      -9.690  11.033  68.771  1.00  0.00    -0.188 OA 
BRANCH  17  19
ATOM     19  CA  GLY A   2     -12.009  11.981  70.028  1.00  0.00    -0.324 C  
ATOM     20  C   GLY A   2     -11.933  13.503  69.921  1.00  0.00    -0.348 C  
ATOM     21  O   GLY A   2     -11.834  13.953  68.647  1.00  0.00    -0.335 OA 
ATOM     22  OXT GLY A   2     -11.918  14.254  70.885  1.00  0.00    -0.328 OA 
ENDBRANCH  17  19
ENDBRANCH  14  15
BRANCH  14  23
HETATM   23  C   UNK A   1      -9.941   9.148  66.682  1.00  0.00    -0.273 C  
HETATM   24  S   UNK A   1     -10.499   7.731  67.683  1.00  0.00    -0.222 SA 
HETATM   25  H   UNK A   1      -9.686   6.605  67.642  1.00  0.00     0.000 H  
ENDBRANCH  14  23
ENDBRANCH  12  14
ENDBRANCH   9  10
ENDBRANCH   8   9
ENDBRANCH   2   8
TORSDOF 7
ENDMDL
MODEL       27
REMARK 921   NORMALIZED FREE ENERGY PREDICTED BY IDOCK:   -5.58 KCAL/MOL
REMARK 922        TOTAL FREE ENERGY PREDICTED BY IDOCK:   -8.43 KCAL/MOL
REMARK 923 INTER-LIGAND FREE ENERGY PREDICTED BY IDOCK:   -7.25 KCAL/MOL
REMARK 924 INTRA-LIGAND FREE ENERGY PREDICTED BY IDOCK:   -1.18 KCAL/MOL
REMARK 927      BINDING AFFINITY PREDICTED BY RF-SCORE:    0.00 PKD
ROOT
HETATM    1  N   UNK A   1     -10.994  16.723  67.992  1.00  0.00    -0.338 NA 
HETATM    2  C   UNK A   1      -9.843  17.065  67.105  1.00  0.00    -0.269 C  
HETATM    3  H2  UNK A   1     -10.946  15.751  68.294  1.00  0.00     0.000 HD 
HETATM    4  H1  UNK A   1     -11.079  17.350  68.792  1.00  0.00     0.000 HD 
HETATM    5  O   UNK A   1     -11.020  19.142  67.263  1.00  0.00    -0.478 OA 
HETATM    6  C   UNK A   1      -9.970  18.531  66.655  1.00  0.00    -0.372 C  
HETATM    7  O   UNK A   1      -9.249  19.080  65.838  1.00  0.00    -0.450 OA 
ENDROOT
BRANCH   2   8
HETATM    8  C   UNK A   1      -9.717  16.124  65.903  1.00  0.00    -0.374 C  
BRANCH   8   9
HETATM    9  C   UNK A   1     -10.969  16.045  65.024  1.00  0.00    -0.393 C  
BRANCH   9  10
HETATM   10  C   UNK A   1     -11.501  14.631  65.005  1.00  0.00    -0.386 C  
HETATM   11  O   UNK A   1     -12.062  14.154  64.022  1.00  0.00    -0.456 OA 
HETATM   12  N   UNK A   1     -11.284  13.919  66.155  1.00  0.00    -0.299 N  
HETATM   13  H   UNK A   1     -10.810  14.371  66.937  1.00  0.00     0.000 HD 
BRANCH  12  14
HETATM   14  C   UNK A   1     -11.710  12.530  66.292  1.00  0.00    -0.404 C  
BRANCH  14  15
HETATM   15  C   UNK A   1     -11.897  12.238  67.793  1.00  0.00    -0.273 C  
ATOM     16  H   GLY A   2     -11.880  14.288  68.197  1.00  0.00     0.000 HD 
ATOM     17  N   GLY A   2     -11.899  13.356  68.611  1.00  0.00    -0.348 N  
HETATM   18  O   UNK A   1     -12.119  11.108  68.221  1.00  0.00    -0.620 OA 
BRANCH  17  19
ATOM     19  CA  GLY A   2     -11.928  13.204  70.072  1.00  0.00    -0.321 C  
ATOM     20  C   GLY A   2     -12.327  14.480  70.810  1.00  0.00    -0.340 C  
ATOM     21  O   GLY A   2     -12.577  15.527  69.988  1.00  0.00    -0.339 OA 
ATOM     22  OXT GLY A   2     -12.377  14.575  72.027  1.00  0.00    -0.332 OA 
ENDBRANCH  17  19
ENDBRANCH  14  15
BRANCH  14  23
HETATM   23  C   UNK A   1     -10.682  11.520  65.760  1.00  0.00    -0.271 C  
HETATM   24  S   UNK A   1      -9.023  11.608  66.509  1.00  0.00    -0.189 SA 
HETATM   25  H   UNK A   1      -8.093  10.694  66.028  1.00  0.00     0.000 H  
ENDBRANCH  14  23
ENDBRANCH  12  14
ENDBRANCH   9  10
ENDBRANCH   8   9
ENDBRANCH   2   8
TORSDOF 7
ENDMDL
MODEL       28
REMARK 921   NORMALIZED FREE ENERGY PREDICTED BY IDOCK:   -5.58 KCAL/MOL
REMARK 922        TOTAL FREE ENERGY PREDICTED BY IDOCK:   -8.42 KCAL/MOL
REMARK 923 INTER-LIGAND FREE ENERGY PREDICTED BY IDOCK:   -7.56 KCAL/MOL
REMARK 924 INTRA-LIGAND FREE ENERGY PREDICTED BY IDOCK:   -0.86 KCAL/MOL
REMARK 927      BINDING AFFINITY PREDICTED BY RF-SCORE:    0.00 PKD
ROOT
HETATM    1  N   UNK A   1      -9.977  13.348  63.982  1.00  0.00    -0.703 NA 
HETATM    2  C   UNK A   1     -10.798  12.174  63.561  1.00  0.00    -0.458 C  
HETATM    3  H2  UNK A   1      -8.993  13.094  64.065  1.00  0.00     0.000 HD 
HETATM    4  H1  UNK A   1     -10.094  14.155  63.369  1.00  0.00     0.000 HD 
HETATM    5  O   UNK A   1     -12.418  13.930  63.691  1.00  0.00    -0.768 OA 
HETATM    6  C   UNK A   1     -12.275  12.597  63.473  1.00  0.00    -0.547 C  
HETATM    7  O   UNK A   1     -13.211  11.842  63.263  1.00  0.00    -0.602 OA 
ENDROOT
BRANCH   2   8
HETATM    8  C   UNK A   1     -10.621  10.963  64.482  1.00  0.00    -0.335 C  
BRANCH   8   9
HETATM    9  C   UNK A   1      -9.219  10.819  65.081  1.00  0.00    -0.239 C  
BRANCH   9  10
HETATM   10  C   UNK A   1      -9.264  11.062  66.572  1.00  0.00    -0.171 C  
HETATM   11  O   UNK A   1      -8.506  10.492  67.352  1.00  0.00    -0.122 OA 
HETATM   12  N   UNK A   1     -10.192  11.984  66.977  1.00  0.00    -0.203 N  
HETATM   13  H   UNK A   1     -10.792  12.424  66.279  1.00  0.00     0.000 HD 
BRANCH  12  14
HETATM   14  C   UNK A   1     -10.347  12.354  68.380  1.00  0.00    -0.229 C  
BRANCH  14  15
HETATM   15  C   UNK A   1     -11.557  11.584  68.943  1.00  0.00    -0.320 C  
ATOM     16  H   GLY A   2     -11.080  12.241  70.869  1.00  0.00     0.000 HD 
ATOM     17  N   GLY A   2     -11.695  11.639  70.320  1.00  0.00    -0.308 N  
HETATM   18  O   UNK A   1     -12.386  11.040  68.218  1.00  0.00    -0.479 OA 
BRANCH  17  19
ATOM     19  CA  GLY A   2     -12.723  10.834  70.993  1.00  0.00    -0.415 C  
ATOM     20  C   GLY A   2     -12.193   9.519  71.563  1.00  0.00    -0.386 C  
ATOM     21  O   GLY A   2     -10.871   9.326  71.341  1.00  0.00    -0.314 OA 
ATOM     22  OXT GLY A   2     -12.892   8.691  72.127  1.00  0.00    -0.349 OA 
ENDBRANCH  17  19
ENDBRANCH  14  15
BRANCH  14  23
HETATM   23  C   UNK A   1     -10.629  13.851  68.588  1.00  0.00    -0.257 C  
HETATM   24  S   UNK A   1     -11.392  14.718  67.179  1.00  0.00    -0.352 SA 
HETATM   25  H   UNK A   1     -11.646  16.071  67.367  1.00  0.00     0.000 H  
ENDBRANCH  14  23
ENDBRANCH  12  14
ENDBRANCH   9  10
ENDBRANCH   8   9
ENDBRANCH   2   8
TORSDOF 7
ENDMDL
MODEL       29
REMARK 921   NORMALIZED FREE ENERGY PREDICTED BY IDOCK:   -5.57 KCAL/MOL
REMARK 922        TOTAL FREE ENERGY PREDICTED BY IDOCK:   -8.41 KCAL/MOL
REMARK 923 INTER-LIGAND FREE ENERGY PREDICTED BY IDOCK:   -7.94 KCAL/MOL
REMARK 924 INTRA-LIGAND FREE ENERGY PREDICTED BY IDOCK:   -0.47 KCAL/MOL
REMARK 927      BINDING AFFINITY PREDICTED BY RF-SCORE:    0.00 PKD
ROOT
HETATM    1  N   UNK A   1     -10.042  13.658  64.139  1.00  0.00    -0.718 NA 
HETATM    2  C   UNK A   1     -10.710  12.377  63.763  1.00  0.00    -0.451 C  
HETATM    3  H2  UNK A   1      -9.063  13.503  64.376  1.00  0.00     0.000 HD 
HETATM    4  H1  UNK A   1     -10.135  14.379  63.424  1.00  0.00     0.000 HD 
HETATM    5  O   UNK A   1     -12.458  13.986  63.476  1.00  0.00    -0.826 OA 
HETATM    6  C   UNK A   1     -12.189  12.655  63.439  1.00  0.00    -0.517 C  
HETATM    7  O   UNK A   1     -13.030  11.802  63.205  1.00  0.00    -0.633 OA 
ENDROOT
BRANCH   2   8
HETATM    8  C   UNK A   1     -10.571  11.294  64.837  1.00  0.00    -0.364 C  
BRANCH   8   9
HETATM    9  C   UNK A   1     -10.097  11.808  66.200  1.00  0.00    -0.255 C  
BRANCH   9  10
HETATM   10  C   UNK A   1     -11.284  12.077  67.095  1.00  0.00    -0.316 C  
HETATM   11  O   UNK A   1     -12.390  12.368  66.647  1.00  0.00    -0.477 OA 
HETATM   12  N   UNK A   1     -11.038  11.942  68.435  1.00  0.00    -0.225 N  
HETATM   13  H   UNK A   1     -10.097  11.696  68.744  1.00  0.00     0.000 HD 
BRANCH  12  14
HETATM   14  C   UNK A   1     -12.083  12.140  69.434  1.00  0.00    -0.190 C  
BRANCH  14  15
HETATM   15  C   UNK A   1     -11.870  13.524  70.076  1.00  0.00    -0.301 C  
ATOM     16  H   GLY A   2     -10.906  14.181  68.341  1.00  0.00     0.000 HD 
ATOM     17  N   GLY A   2     -11.159  14.425  69.299  1.00  0.00    -0.265 N  
HETATM   18  O   UNK A   1     -12.371  13.835  71.153  1.00  0.00    -0.355 OA 
BRANCH  17  19
ATOM     19  CA  GLY A   2     -10.769  15.730  69.851  1.00  0.00    -0.328 C  
ATOM     20  C   GLY A   2     -10.611  16.818  68.790  1.00  0.00    -0.348 C  
ATOM     21  O   GLY A   2     -10.853  16.385  67.529  1.00  0.00    -0.315 OA 
ATOM     22  OXT GLY A   2     -10.258  17.961  69.035  1.00  0.00    -0.378 OA 
ENDBRANCH  17  19
ENDBRANCH  14  15
BRANCH  14  23
HETATM   23  C   UNK A   1     -12.045  11.106  70.571  1.00  0.00    -0.381 C  
HETATM   24  S   UNK A   1     -10.714   9.865  70.469  1.00  0.00    -0.295 SA 
HETATM   25  H   UNK A   1     -10.679   8.930  71.496  1.00  0.00     0.000 H  
ENDBRANCH  14  23
ENDBRANCH  12  14
ENDBRANCH   9  10
ENDBRANCH   8   9
ENDBRANCH   2   8
TORSDOF 7
ENDMDL
MODEL       30
REMARK 921   NORMALIZED FREE ENERGY PREDICTED BY IDOCK:   -5.54 KCAL/MOL
REMARK 922        TOTAL FREE ENERGY PREDICTED BY IDOCK:   -8.37 KCAL/MOL
REMARK 923 INTER-LIGAND FREE ENERGY PREDICTED BY IDOCK:   -7.62 KCAL/MOL
REMARK 924 INTRA-LIGAND FREE ENERGY PREDICTED BY IDOCK:   -0.75 KCAL/MOL
REMARK 927      BINDING AFFINITY PREDICTED BY RF-SCORE:    0.00 PKD
ROOT
HETATM    1  N   UNK A   1      -9.433  19.558  68.132  1.00  0.00    -0.344 NA 
HETATM    2  C   UNK A   1      -9.398  18.300  67.330  1.00  0.00    -0.261 C  
HETATM    3  H2  UNK A   1      -8.867  19.469  68.976  1.00  0.00     0.000 HD 
HETATM    4  H1  UNK A   1      -9.159  20.380  67.594  1.00  0.00     0.000 HD 
HETATM    5  O   UNK A   1     -10.765  19.739  65.994  1.00  0.00    -0.472 OA 
HETATM    6  C   UNK A   1     -10.285  18.472  66.084  1.00  0.00    -0.398 C  
HETATM    7  O   UNK A   1     -10.554  17.588  65.286  1.00  0.00    -0.664 OA 
ENDROOT
BRANCH   2   8
HETATM    8  C   UNK A   1      -9.811  17.066  68.139  1.00  0.00    -0.273 C  
BRANCH   8   9
HETATM    9  C   UNK A   1      -8.643  16.185  68.594  1.00  0.00    -0.210 C  
BRANCH   9  10
HETATM   10  C   UNK A   1      -9.077  14.739  68.651  1.00  0.00    -0.186 C  
HETATM   11  O   UNK A   1      -8.275  13.811  68.600  1.00  0.00    -0.144 OA 
HETATM   12  N   UNK A   1     -10.426  14.547  68.793  1.00  0.00    -0.241 N  
HETATM   13  H   UNK A   1     -11.042  15.360  68.831  1.00  0.00     0.000 HD 
BRANCH  12  14
HETATM   14  C   UNK A   1     -11.009  13.213  68.892  1.00  0.00    -0.230 C  
BRANCH  14  15
HETATM   15  C   UNK A   1     -11.774  12.931  67.585  1.00  0.00    -0.370 C  
ATOM     16  H   GLY A   2     -11.664  14.957  67.082  1.00  0.00     0.000 HD 
ATOM     17  N   GLY A   2     -12.049  14.050  66.816  1.00  0.00    -0.447 N  
HETATM   18  O   UNK A   1     -12.039  11.792  67.209  1.00  0.00    -0.595 OA 
BRANCH  17  19
ATOM     19  CA  GLY A   2     -12.893  13.936  65.618  1.00  0.00    -0.424 C  
ATOM     20  C   GLY A   2     -12.097  13.866  64.316  1.00  0.00    -0.440 C  
ATOM     21  O   GLY A   2     -10.756  13.929  64.495  1.00  0.00    -0.412 OA 
ATOM     22  OXT GLY A   2     -12.609  13.805  63.208  1.00  0.00    -0.830 OA 
ENDBRANCH  17  19
ENDBRANCH  14  15
BRANCH  14  23
HETATM   23  C   UNK A   1     -12.015  13.070  70.044  1.00  0.00    -0.312 C  
HETATM   24  S   UNK A   1     -12.448  14.611  70.914  1.00  0.00    -0.364 SA 
HETATM   25  H   UNK A   1     -13.358  14.482  71.956  1.00  0.00     0.000 H  
ENDBRANCH  14  23
ENDBRANCH  12  14
ENDBRANCH   9  10
ENDBRANCH   8   9
ENDBRANCH   2   8
TORSDOF 7
ENDMDL
MODEL       31
REMARK 921   NORMALIZED FREE ENERGY PREDICTED BY IDOCK:   -5.48 KCAL/MOL
REMARK 922        TOTAL FREE ENERGY PREDICTED BY IDOCK:   -8.29 KCAL/MOL
REMARK 923 INTER-LIGAND FREE ENERGY PREDICTED BY IDOCK:   -7.69 KCAL/MOL
REMARK 924 INTRA-LIGAND FREE ENERGY PREDICTED BY IDOCK:   -0.60 KCAL/MOL
REMARK 927      BINDING AFFINITY PREDICTED BY RF-SCORE:    0.00 PKD
ROOT
HETATM    1  N   UNK A   1      -8.593  18.910  66.150  1.00  0.00    -0.468 NA 
HETATM    2  C   UNK A   1      -8.550  19.699  67.416  1.00  0.00    -0.306 C  
HETATM    3  H2  UNK A   1      -9.453  19.092  65.635  1.00  0.00     0.000 HD 
HETATM    4  H1  UNK A   1      -7.775  19.063  65.559  1.00  0.00     0.000 HD 
HETATM    5  O   UNK A   1      -6.451  18.553  67.440  1.00  0.00    -0.191 OA 
HETATM    6  C   UNK A   1      -7.248  19.374  68.170  1.00  0.00    -0.287 C  
HETATM    7  O   UNK A   1      -6.967  19.770  69.290  1.00  0.00    -0.341 OA 
ENDROOT
BRANCH   2   8
HETATM    8  C   UNK A   1      -9.778  19.469  68.303  1.00  0.00    -0.495 C  
BRANCH   8   9
HETATM    9  C   UNK A   1     -10.768  18.434  67.762  1.00  0.00    -0.371 C  
BRANCH   9  10
HETATM   10  C   UNK A   1     -10.471  17.075  68.353  1.00  0.00    -0.370 C  
HETATM   11  O   UNK A   1      -9.338  16.735  68.679  1.00  0.00    -0.237 OA 
HETATM   12  N   UNK A   1     -11.566  16.269  68.522  1.00  0.00    -0.285 N  
HETATM   13  H   UNK A   1     -12.483  16.611  68.232  1.00  0.00     0.000 HD 
BRANCH  12  14
HETATM   14  C   UNK A   1     -11.458  14.936  69.105  1.00  0.00    -0.302 C  
BRANCH  14  15
HETATM   15  C   UNK A   1     -11.815  13.910  68.012  1.00  0.00    -0.375 C  
ATOM     16  H   GLY A   2     -11.674  15.406  66.559  1.00  0.00     0.000 HD 
ATOM     17  N   GLY A   2     -11.922  14.432  66.733  1.00  0.00    -0.417 N  
HETATM   18  O   UNK A   1     -11.906  12.707  68.243  1.00  0.00    -0.318 OA 
BRANCH  17  19
ATOM     19  CA  GLY A   2     -12.393  13.587  65.627  1.00  0.00    -0.476 C  
ATOM     20  C   GLY A   2     -12.274  14.254  64.258  1.00  0.00    -0.423 C  
ATOM     21  O   GLY A   2     -11.763  15.507  64.307  1.00  0.00    -0.370 OA 
ATOM     22  OXT GLY A   2     -12.643  13.736  63.214  1.00  0.00    -0.830 OA 
ENDBRANCH  17  19
ENDBRANCH  14  15
BRANCH  14  23
HETATM   23  C   UNK A   1     -12.425  14.701  70.276  1.00  0.00    -0.346 C  
HETATM   24  S   UNK A   1     -11.987  15.522  71.843  1.00  0.00    -0.480 SA 
HETATM   25  H   UNK A   1     -12.861  15.311  72.902  1.00  0.00     0.000 H  
ENDBRANCH  14  23
ENDBRANCH  12  14
ENDBRANCH   9  10
ENDBRANCH   8   9
ENDBRANCH   2   8
TORSDOF 7
ENDMDL
MODEL       32
REMARK 921   NORMALIZED FREE ENERGY PREDICTED BY IDOCK:   -5.48 KCAL/MOL
REMARK 922        TOTAL FREE ENERGY PREDICTED BY IDOCK:   -8.28 KCAL/MOL
REMARK 923 INTER-LIGAND FREE ENERGY PREDICTED BY IDOCK:   -7.68 KCAL/MOL
REMARK 924 INTRA-LIGAND FREE ENERGY PREDICTED BY IDOCK:   -0.60 KCAL/MOL
REMARK 927      BINDING AFFINITY PREDICTED BY RF-SCORE:    0.00 PKD
ROOT
HETATM    1  N   UNK A   1     -11.757   7.963  70.275  1.00  0.00    -0.474 NA 
HETATM    2  C   UNK A   1     -12.154   8.764  71.471  1.00  0.00    -0.329 C  
HETATM    3  H2  UNK A   1     -10.813   8.203  69.973  1.00  0.00     0.000 HD 
HETATM    4  H1  UNK A   1     -11.848   6.958  70.422  1.00  0.00     0.000 HD 
HETATM    5  O   UNK A   1     -14.063   7.366  71.116  1.00  0.00    -0.345 OA 
HETATM    6  C   UNK A   1     -13.590   8.387  71.877  1.00  0.00    -0.379 C  
HETATM    7  O   UNK A   1     -14.244   8.942  72.745  1.00  0.00    -0.557 OA 
ENDROOT
BRANCH   2   8
HETATM    8  C   UNK A   1     -12.017  10.273  71.250  1.00  0.00    -0.457 C  
BRANCH   8   9
HETATM    9  C   UNK A   1     -11.139  10.664  70.058  1.00  0.00    -0.359 C  
BRANCH   9  10
HETATM   10  C   UNK A   1     -11.685  11.909  69.398  1.00  0.00    -0.339 C  
HETATM   11  O   UNK A   1     -11.970  11.947  68.204  1.00  0.00    -0.496 OA 
HETATM   12  N   UNK A   1     -11.862  12.976  70.238  1.00  0.00    -0.532 N  
HETATM   13  H   UNK A   1     -11.607  12.881  71.222  1.00  0.00     0.000 HD 
BRANCH  12  14
HETATM   14  C   UNK A   1     -12.406  14.245  69.767  1.00  0.00    -0.292 C  
BRANCH  14  15
HETATM   15  C   UNK A   1     -11.223  15.165  69.410  1.00  0.00    -0.283 C  
ATOM     16  H   GLY A   2     -12.248  15.828  67.713  1.00  0.00     0.000 HD 
ATOM     17  N   GLY A   2     -11.366  15.868  68.225  1.00  0.00    -0.356 N  
HETATM   18  O   UNK A   1     -10.268  15.331  70.164  1.00  0.00    -0.253 OA 
BRANCH  17  19
ATOM     19  CA  GLY A   2     -10.252  16.670  67.702  1.00  0.00    -0.285 C  
ATOM     20  C   GLY A   2      -9.628  16.094  66.432  1.00  0.00    -0.287 C  
ATOM     21  O   GLY A   2     -10.207  14.942  66.018  1.00  0.00    -0.270 OA 
ATOM     22  OXT GLY A   2      -8.668  16.589  65.860  1.00  0.00    -0.456 OA 
ENDBRANCH  17  19
ENDBRANCH  14  15
BRANCH  14  23
HETATM   23  C   UNK A   1     -13.246  14.980  70.823  1.00  0.00    -0.348 C  
HETATM   24  S   UNK A   1     -13.741  13.990  72.271  1.00  0.00    -0.587 SA 
HETATM   25  H   UNK A   1     -14.500  14.654  73.226  1.00  0.00     0.000 H  
ENDBRANCH  14  23
ENDBRANCH  12  14
ENDBRANCH   9  10
ENDBRANCH   8   9
ENDBRANCH   2   8
TORSDOF 7
ENDMDL
MODEL       33
REMARK 921   NORMALIZED FREE ENERGY PREDICTED BY IDOCK:   -5.48 KCAL/MOL
REMARK 922        TOTAL FREE ENERGY PREDICTED BY IDOCK:   -8.28 KCAL/MOL
REMARK 923 INTER-LIGAND FREE ENERGY PREDICTED BY IDOCK:   -7.39 KCAL/MOL
REMARK 924 INTRA-LIGAND FREE ENERGY PREDICTED BY IDOCK:   -0.89 KCAL/MOL
REMARK 927      BINDING AFFINITY PREDICTED BY RF-SCORE:    0.00 PKD
ROOT
HETATM    1  N   UNK A   1     -11.557  12.572  70.326  1.00  0.00    -0.534 NA 
HETATM    2  C   UNK A   1     -12.226  13.636  71.131  1.00  0.00    -0.239 C  
HETATM    3  H2  UNK A   1     -10.809  12.963  69.755  1.00  0.00     0.000 HD 
HETATM    4  H1  UNK A   1     -11.214  11.799  70.896  1.00  0.00     0.000 HD 
HETATM    5  O   UNK A   1     -13.379  11.654  71.816  1.00  0.00    -0.399 OA 
HETATM    6  C   UNK A   1     -13.362  13.005  71.957  1.00  0.00    -0.492 C  
HETATM    7  O   UNK A   1     -14.168  13.625  72.631  1.00  0.00    -0.735 OA 
ENDROOT
BRANCH   2   8
HETATM    8  C   UNK A   1     -12.741  14.797  70.275  1.00  0.00    -0.324 C  
BRANCH   8   9
HETATM    9  C   UNK A   1     -11.872  16.057  70.323  1.00  0.00    -0.268 C  
BRANCH   9  10
HETATM   10  C   UNK A   1     -11.151  16.240  69.008  1.00  0.00    -0.331 C  
HETATM   11  O   UNK A   1     -11.100  17.324  68.434  1.00  0.00    -0.254 OA 
HETATM   12  N   UNK A   1     -10.537  15.115  68.526  1.00  0.00    -0.232 N  
HETATM   13  H   UNK A   1     -10.615  14.244  69.052  1.00  0.00     0.000 HD 
BRANCH  12  14
HETATM   14  C   UNK A   1      -9.776  15.126  67.281  1.00  0.00    -0.210 C  
BRANCH  14  15
HETATM   15  C   UNK A   1     -10.150  13.862  66.485  1.00  0.00    -0.286 C  
ATOM     16  H   GLY A   2     -12.122  14.537  66.335  1.00  0.00     0.000 HD 
ATOM     17  N   GLY A   2     -11.488  13.761  66.143  1.00  0.00    -0.328 N  
HETATM   18  O   UNK A   1      -9.309  13.052  66.102  1.00  0.00    -0.198 OA 
BRANCH  17  19
ATOM     19  CA  GLY A   2     -11.999  12.539  65.506  1.00  0.00    -0.442 C  
ATOM     20  C   GLY A   2     -12.532  12.766  64.093  1.00  0.00    -0.369 C  
ATOM     21  O   GLY A   2     -12.445  14.053  63.680  1.00  0.00    -0.803 OA 
ATOM     22  OXT GLY A   2     -13.033  11.888  63.405  1.00  0.00    -0.730 OA 
ENDBRANCH  17  19
ENDBRANCH  14  15
BRANCH  14  23
HETATM   23  C   UNK A   1      -8.254  15.090  67.496  1.00  0.00    -0.182 C  
HETATM   24  S   UNK A   1      -7.699  14.519  69.135  1.00  0.00    -0.034 SA 
HETATM   25  H   UNK A   1      -6.323  14.486  69.329  1.00  0.00     0.000 H  
ENDBRANCH  14  23
ENDBRANCH  12  14
ENDBRANCH   9  10
ENDBRANCH   8   9
ENDBRANCH   2   8
TORSDOF 7
ENDMDL
MODEL       34
REMARK 921   NORMALIZED FREE ENERGY PREDICTED BY IDOCK:   -5.47 KCAL/MOL
REMARK 922        TOTAL FREE ENERGY PREDICTED BY IDOCK:   -8.27 KCAL/MOL
REMARK 923 INTER-LIGAND FREE ENERGY PREDICTED BY IDOCK:   -7.75 KCAL/MOL
REMARK 924 INTRA-LIGAND FREE ENERGY PREDICTED BY IDOCK:   -0.52 KCAL/MOL
REMARK 927      BINDING AFFINITY PREDICTED BY RF-SCORE:    0.00 PKD
ROOT
HETATM    1  N   UNK A   1     -13.301  10.838  72.181  1.00  0.00    -0.579 NA 
HETATM    2  C   UNK A   1     -12.657  10.754  70.836  1.00  0.00    -0.401 C  
HETATM    3  H2  UNK A   1     -14.008  11.572  72.201  1.00  0.00     0.000 HD 
HETATM    4  H1  UNK A   1     -13.690   9.948  72.491  1.00  0.00     0.000 HD 
HETATM    5  O   UNK A   1     -11.583   8.991  72.046  1.00  0.00    -0.361 OA 
HETATM    6  C   UNK A   1     -11.582   9.653  70.860  1.00  0.00    -0.344 C  
HETATM    7  O   UNK A   1     -10.802   9.412  69.952  1.00  0.00    -0.224 OA 
ENDROOT
BRANCH   2   8
HETATM    8  C   UNK A   1     -12.072  12.091  70.371  1.00  0.00    -0.407 C  
BRANCH   8   9
HETATM    9  C   UNK A   1     -12.620  13.316  71.110  1.00  0.00    -0.412 C  
BRANCH   9  10
HETATM   10  C   UNK A   1     -12.440  14.555  70.264  1.00  0.00    -0.348 C  
HETATM   11  O   UNK A   1     -12.857  15.655  70.615  1.00  0.00    -0.463 OA 
HETATM   12  N   UNK A   1     -11.754  14.359  69.094  1.00  0.00    -0.297 N  
HETATM   13  H   UNK A   1     -11.431  13.420  68.860  1.00  0.00     0.000 HD 
BRANCH  12  14
HETATM   14  C   UNK A   1     -11.470  15.456  68.175  1.00  0.00    -0.343 C  
BRANCH  14  15
HETATM   15  C   UNK A   1     -11.149  14.849  66.796  1.00  0.00    -0.335 C  
ATOM     16  H   GLY A   2     -11.681  12.956  67.504  1.00  0.00     0.000 HD 
ATOM     17  N   GLY A   2     -11.291  13.474  66.716  1.00  0.00    -0.317 N  
HETATM   18  O   UNK A   1     -10.877  15.542  65.819  1.00  0.00    -0.332 OA 
BRANCH  17  19
ATOM     19  CA  GLY A   2     -10.882  12.757  65.500  1.00  0.00    -0.274 C  
ATOM     20  C   GLY A   2     -12.041  12.449  64.554  1.00  0.00    -0.417 C  
ATOM     21  O   GLY A   2     -13.241  12.884  65.007  1.00  0.00    -0.765 OA 
ATOM     22  OXT GLY A   2     -11.920  11.830  63.508  1.00  0.00    -0.482 OA 
ENDBRANCH  17  19
ENDBRANCH  14  15
BRANCH  14  23
HETATM   23  C   UNK A   1     -10.256  16.302  68.590  1.00  0.00    -0.254 C  
HETATM   24  S   UNK A   1     -10.259  18.030  68.010  1.00  0.00    -0.398 SA 
HETATM   25  H   UNK A   1      -9.161  18.795  68.385  1.00  0.00     0.000 H  
ENDBRANCH  14  23
ENDBRANCH  12  14
ENDBRANCH   9  10
ENDBRANCH   8   9
ENDBRANCH   2   8
TORSDOF 7
ENDMDL
MODEL       35
REMARK 921   NORMALIZED FREE ENERGY PREDICTED BY IDOCK:   -5.46 KCAL/MOL
REMARK 922        TOTAL FREE ENERGY PREDICTED BY IDOCK:   -8.26 KCAL/MOL
REMARK 923 INTER-LIGAND FREE ENERGY PREDICTED BY IDOCK:   -7.59 KCAL/MOL
REMARK 924 INTRA-LIGAND FREE ENERGY PREDICTED BY IDOCK:   -0.67 KCAL/MOL
REMARK 927      BINDING AFFINITY PREDICTED BY RF-SCORE:    0.00 PKD
ROOT
HETATM    1  N   UNK A   1     -13.783   9.069  73.159  1.00  0.00    -1.092 NA 
HETATM    2  C   UNK A   1     -13.423   8.774  71.740  1.00  0.00    -0.393 C  
HETATM    3  H2  UNK A   1     -14.710   9.490  73.220  1.00  0.00     0.000 HD 
HETATM    4  H1  UNK A   1     -13.714   8.251  73.764  1.00  0.00     0.000 HD 
HETATM    5  O   UNK A   1     -11.523   7.961  72.946  1.00  0.00    -0.403 OA 
HETATM    6  C   UNK A   1     -12.011   8.164  71.695  1.00  0.00    -0.300 C  
HETATM    7  O   UNK A   1     -11.384   7.917  70.677  1.00  0.00    -0.273 OA 
ENDROOT
BRANCH   2   8
HETATM    8  C   UNK A   1     -13.527  10.003  70.831  1.00  0.00    -0.179 C  
BRANCH   8   9
HETATM    9  C   UNK A   1     -12.641  11.180  71.251  1.00  0.00    -0.503 C  
BRANCH   9  10
HETATM   10  C   UNK A   1     -11.814  11.650  70.077  1.00  0.00    -0.355 C  
HETATM   11  O   UNK A   1     -11.067  10.898  69.458  1.00  0.00    -0.234 OA 
HETATM   12  N   UNK A   1     -11.986  12.967  69.742  1.00  0.00    -0.322 N  
HETATM   13  H   UNK A   1     -12.623  13.541  70.295  1.00  0.00     0.000 HD 
BRANCH  12  14
HETATM   14  C   UNK A   1     -11.282  13.574  68.617  1.00  0.00    -0.278 C  
BRANCH  14  15
HETATM   15  C   UNK A   1     -11.137  15.080  68.904  1.00  0.00    -0.266 C  
ATOM     16  H   GLY A   2     -10.985  15.459  66.854  1.00  0.00     0.000 HD 
ATOM     17  N   GLY A   2     -10.933  15.872  67.786  1.00  0.00    -0.326 N  
HETATM   18  O   UNK A   1     -11.283  15.553  70.029  1.00  0.00    -0.260 OA 
BRANCH  17  19
ATOM     19  CA  GLY A   2     -10.640  17.304  67.937  1.00  0.00    -0.384 C  
ATOM     20  C   GLY A   2     -10.389  18.018  66.610  1.00  0.00    -0.371 C  
ATOM     21  O   GLY A   2     -10.474  17.204  65.531  1.00  0.00    -0.593 OA 
ATOM     22  OXT GLY A   2     -10.094  19.201  66.518  1.00  0.00    -0.347 OA 
ENDBRANCH  17  19
ENDBRANCH  14  15
BRANCH  14  23
HETATM   23  C   UNK A   1     -12.034  13.440  67.283  1.00  0.00    -0.347 C  
HETATM   24  S   UNK A   1     -11.290  12.307  66.064  1.00  0.00    -0.364 SA 
HETATM   25  H   UNK A   1     -11.969  12.186  64.859  1.00  0.00     0.000 H  
ENDBRANCH  14  23
ENDBRANCH  12  14
ENDBRANCH   9  10
ENDBRANCH   8   9
ENDBRANCH   2   8
TORSDOF 7
ENDMDL
MODEL       36
REMARK 921   NORMALIZED FREE ENERGY PREDICTED BY IDOCK:   -5.45 KCAL/MOL
REMARK 922        TOTAL FREE ENERGY PREDICTED BY IDOCK:   -8.24 KCAL/MOL
REMARK 923 INTER-LIGAND FREE ENERGY PREDICTED BY IDOCK:   -7.57 KCAL/MOL
REMARK 924 INTRA-LIGAND FREE ENERGY PREDICTED BY IDOCK:   -0.67 KCAL/MOL
REMARK 927      BINDING AFFINITY PREDICTED BY RF-SCORE:    0.00 PKD
ROOT
HETATM    1  N   UNK A   1     -12.957   8.684  70.834  1.00  0.00    -0.482 NA 
HETATM    2  C   UNK A   1     -11.517   8.450  70.519  1.00  0.00    -0.179 C  
HETATM    3  H2  UNK A   1     -13.318   9.486  70.317  1.00  0.00     0.000 HD 
HETATM    4  H1  UNK A   1     -13.537   7.860  70.679  1.00  0.00     0.000 HD 
HETATM    5  O   UNK A   1     -12.021   6.668  72.033  1.00  0.00    -0.311 OA 
HETATM    6  C   UNK A   1     -11.010   7.249  71.338  1.00  0.00    -0.232 C  
HETATM    7  O   UNK A   1      -9.850   6.873  71.389  1.00  0.00    -0.178 OA 
ENDROOT
BRANCH   2   8
HETATM    8  C   UNK A   1     -10.646   9.688  70.752  1.00  0.00    -0.392 C  
BRANCH   8   9
HETATM    9  C   UNK A   1     -10.278  10.455  69.478  1.00  0.00    -0.258 C  
BRANCH   9  10
HETATM   10  C   UNK A   1     -11.370  11.441  69.133  1.00  0.00    -0.288 C  
HETATM   11  O   UNK A   1     -12.473  11.083  68.731  1.00  0.00    -0.468 OA 
HETATM   12  N   UNK A   1     -11.042  12.756  69.330  1.00  0.00    -0.450 N  
HETATM   13  H   UNK A   1     -10.107  12.989  69.668  1.00  0.00     0.000 HD 
BRANCH  12  14
HETATM   14  C   UNK A   1     -11.991  13.834  69.071  1.00  0.00    -0.360 C  
BRANCH  14  15
HETATM   15  C   UNK A   1     -11.631  14.467  67.713  1.00  0.00    -0.356 C  
ATOM     16  H   GLY A   2     -13.138  13.349  66.791  1.00  0.00     0.000 HD 
ATOM     17  N   GLY A   2     -12.360  13.992  66.636  1.00  0.00    -0.431 N  
HETATM   18  O   UNK A   1     -10.824  15.387  67.609  1.00  0.00    -0.289 OA 
BRANCH  17  19
ATOM     19  CA  GLY A   2     -12.019  14.412  65.269  1.00  0.00    -0.382 C  
ATOM     20  C   GLY A   2     -12.531  13.457  64.192  1.00  0.00    -0.245 C  
ATOM     21  O   GLY A   2     -13.201  12.390  64.688  1.00  0.00    -0.822 OA 
ATOM     22  OXT GLY A   2     -12.323  13.604  62.997  1.00  0.00    -0.672 OA 
ENDBRANCH  17  19
ENDBRANCH  14  15
BRANCH  14  23
HETATM   23  C   UNK A   1     -11.941  14.956  70.119  1.00  0.00    -0.317 C  
HETATM   24  S   UNK A   1     -13.387  15.075  71.222  1.00  0.00    -0.462 SA 
HETATM   25  H   UNK A   1     -13.342  16.090  72.170  1.00  0.00     0.000 H  
ENDBRANCH  14  23
ENDBRANCH  12  14
ENDBRANCH   9  10
ENDBRANCH   8   9
ENDBRANCH   2   8
TORSDOF 7
ENDMDL
MODEL       37
REMARK 921   NORMALIZED FREE ENERGY PREDICTED BY IDOCK:   -5.43 KCAL/MOL
REMARK 922        TOTAL FREE ENERGY PREDICTED BY IDOCK:   -8.22 KCAL/MOL
REMARK 923 INTER-LIGAND FREE ENERGY PREDICTED BY IDOCK:   -7.51 KCAL/MOL
REMARK 924 INTRA-LIGAND FREE ENERGY PREDICTED BY IDOCK:   -0.71 KCAL/MOL
REMARK 927      BINDING AFFINITY PREDICTED BY RF-SCORE:    0.00 PKD
ROOT
HETATM    1  N   UNK A   1     -12.381   7.973  72.823  1.00  0.00    -0.610 NA 
HETATM    2  C   UNK A   1     -11.504   8.663  71.831  1.00  0.00    -0.348 C  
HETATM    3  H2  UNK A   1     -13.358   8.010  72.534  1.00  0.00     0.000 HD 
HETATM    4  H1  UNK A   1     -12.091   7.013  73.009  1.00  0.00     0.000 HD 
HETATM    5  O   UNK A   1      -9.936   7.859  73.450  1.00  0.00    -0.314 OA 
HETATM    6  C   UNK A   1     -10.046   8.605  72.320  1.00  0.00    -0.292 C  
HETATM    7  O   UNK A   1      -9.104   9.173  71.791  1.00  0.00    -0.346 OA 
ENDROOT
BRANCH   2   8
HETATM    8  C   UNK A   1     -11.939  10.105  71.553  1.00  0.00    -0.404 C  
BRANCH   8   9
HETATM    9  C   UNK A   1     -12.396  10.364  70.114  1.00  0.00    -0.281 C  
BRANCH   9  10
HETATM   10  C   UNK A   1     -11.493  11.384  69.459  1.00  0.00    -0.312 C  
HETATM   11  O   UNK A   1     -10.399  11.086  68.988  1.00  0.00    -0.208 OA 
HETATM   12  N   UNK A   1     -12.003  12.655  69.407  1.00  0.00    -0.289 N  
HETATM   13  H   UNK A   1     -12.920  12.839  69.815  1.00  0.00     0.000 HD 
BRANCH  12  14
HETATM   14  C   UNK A   1     -11.271  13.753  68.785  1.00  0.00    -0.271 C  
BRANCH  14  15
HETATM   15  C   UNK A   1     -11.494  15.016  69.638  1.00  0.00    -0.294 C  
ATOM     16  H   GLY A   2     -11.354  13.868  71.378  1.00  0.00     0.000 HD 
ATOM     17  N   GLY A   2     -11.552  14.796  71.004  1.00  0.00    -0.292 N  
HETATM   18  O   UNK A   1     -11.526  16.143  69.150  1.00  0.00    -0.338 OA 
BRANCH  17  19
ATOM     19  CA  GLY A   2     -11.900  15.894  71.916  1.00  0.00    -0.506 C  
ATOM     20  C   GLY A   2     -12.948  15.513  72.959  1.00  0.00    -0.499 C  
ATOM     21  O   GLY A   2     -13.377  14.232  72.854  1.00  0.00    -0.537 OA 
ATOM     22  OXT GLY A   2     -13.400  16.290  73.787  1.00  0.00    -0.670 OA 
ENDBRANCH  17  19
ENDBRANCH  14  15
BRANCH  14  23
HETATM   23  C   UNK A   1     -11.752  14.079  67.362  1.00  0.00    -0.388 C  
HETATM   24  S   UNK A   1     -10.491  13.962  66.052  1.00  0.00    -0.305 SA 
HETATM   25  H   UNK A   1     -10.926  14.256  64.766  1.00  0.00     0.000 H  
ENDBRANCH  14  23
ENDBRANCH  12  14
ENDBRANCH   9  10
ENDBRANCH   8   9
ENDBRANCH   2   8
TORSDOF 7
ENDMDL
MODEL       38
REMARK 921   NORMALIZED FREE ENERGY PREDICTED BY IDOCK:   -5.41 KCAL/MOL
REMARK 922        TOTAL FREE ENERGY PREDICTED BY IDOCK:   -8.19 KCAL/MOL
REMARK 923 INTER-LIGAND FREE ENERGY PREDICTED BY IDOCK:   -7.31 KCAL/MOL
REMARK 924 INTRA-LIGAND FREE ENERGY PREDICTED BY IDOCK:   -0.88 KCAL/MOL
REMARK 927      BINDING AFFINITY PREDICTED BY RF-SCORE:    0.00 PKD
ROOT
HETATM    1  N   UNK A   1     -10.389   8.476  69.445  1.00  0.00    -0.213 NA 
HETATM    2  C   UNK A   1     -10.782   8.283  70.872  1.00  0.00    -0.218 C  
HETATM    3  H2  UNK A   1      -9.764   9.275  69.343  1.00  0.00     0.000 HD 
HETATM    4  H1  UNK A   1      -9.981   7.639  69.029  1.00  0.00     0.000 HD 
HETATM    5  O   UNK A   1     -11.886   6.468  69.773  1.00  0.00    -0.345 OA 
HETATM    6  C   UNK A   1     -11.742   7.085  70.974  1.00  0.00    -0.333 C  
HETATM    7  O   UNK A   1     -12.329   6.739  71.986  1.00  0.00    -0.322 OA 
ENDROOT
BRANCH   2   8
HETATM    8  C   UNK A   1     -11.395   9.541  71.497  1.00  0.00    -0.456 C  
BRANCH   8   9
HETATM    9  C   UNK A   1     -12.494  10.197  70.655  1.00  0.00    -0.372 C  
BRANCH   9  10
HETATM   10  C   UNK A   1     -12.030  11.546  70.158  1.00  0.00    -0.369 C  
HETATM   11  O   UNK A   1     -12.361  12.595  70.704  1.00  0.00    -0.359 OA 
HETATM   12  N   UNK A   1     -11.193  11.505  69.075  1.00  0.00    -0.240 N  
HETATM   13  H   UNK A   1     -10.954  10.600  68.667  1.00  0.00     0.000 HD 
BRANCH  12  14
HETATM   14  C   UNK A   1     -10.633  12.717  68.487  1.00  0.00    -0.252 C  
BRANCH  14  15
HETATM   15  C   UNK A   1     -11.368  12.984  67.160  1.00  0.00    -0.305 C  
ATOM     16  H   GLY A   2     -10.016  14.516  66.717  1.00  0.00     0.000 HD 
ATOM     17  N   GLY A   2     -10.870  14.043  66.419  1.00  0.00    -0.297 N  
HETATM   18  O   UNK A   1     -12.268  12.256  66.747  1.00  0.00    -0.558 OA 
BRANCH  17  19
ATOM     19  CA  GLY A   2     -11.567  14.488  65.204  1.00  0.00    -0.371 C  
ATOM     20  C   GLY A   2     -11.188  15.902  64.767  1.00  0.00    -0.355 C  
ATOM     21  O   GLY A   2     -10.282  16.497  65.580  1.00  0.00    -0.525 OA 
ATOM     22  OXT GLY A   2     -11.680  16.472  63.804  1.00  0.00    -1.086 OA 
ENDBRANCH  17  19
ENDBRANCH  14  15
BRANCH  14  23
HETATM   23  C   UNK A   1      -9.136  12.602  68.159  1.00  0.00    -0.204 C  
HETATM   24  S   UNK A   1      -8.606  11.022  67.420  1.00  0.00    -0.134 SA 
HETATM   25  H   UNK A   1      -7.253  10.918  67.123  1.00  0.00     0.000 H  
ENDBRANCH  14  23
ENDBRANCH  12  14
ENDBRANCH   9  10
ENDBRANCH   8   9
ENDBRANCH   2   8
TORSDOF 7
ENDMDL
MODEL       39
REMARK 921   NORMALIZED FREE ENERGY PREDICTED BY IDOCK:   -5.41 KCAL/MOL
REMARK 922        TOTAL FREE ENERGY PREDICTED BY IDOCK:   -8.19 KCAL/MOL
REMARK 923 INTER-LIGAND FREE ENERGY PREDICTED BY IDOCK:   -7.05 KCAL/MOL
REMARK 924 INTRA-LIGAND FREE ENERGY PREDICTED BY IDOCK:   -1.13 KCAL/MOL
REMARK 927      BINDING AFFINITY PREDICTED BY RF-SCORE:    0.00 PKD
ROOT
HETATM    1  N   UNK A   1     -11.692  16.466  63.830  1.00  0.00    -1.527 NA 
HETATM    2  C   UNK A   1     -10.952  15.539  64.737  1.00  0.00    -0.399 C  
HETATM    3  H2  UNK A   1     -11.278  17.398  63.845  1.00  0.00     0.000 HD 
HETATM    4  H1  UNK A   1     -11.764  16.114  62.876  1.00  0.00     0.000 HD 
HETATM    5  O   UNK A   1     -12.628  14.120  63.787  1.00  0.00    -0.804 OA 
HETATM    6  C   UNK A   1     -11.625  14.155  64.701  1.00  0.00    -0.406 C  
HETATM    7  O   UNK A   1     -11.328  13.211  65.415  1.00  0.00    -0.293 OA 
ENDROOT
BRANCH   2   8
HETATM    8  C   UNK A   1     -10.845  16.067  66.171  1.00  0.00    -0.179 C  
BRANCH   8   9
HETATM    9  C   UNK A   1      -9.460  15.904  66.806  1.00  0.00    -0.254 C  
BRANCH   9  10
HETATM   10  C   UNK A   1      -9.560  15.066  68.059  1.00  0.00    -0.208 C  
HETATM   11  O   UNK A   1      -8.737  15.142  68.967  1.00  0.00    -0.191 OA 
HETATM   12  N   UNK A   1     -10.652  14.240  68.114  1.00  0.00    -0.240 N  
HETATM   13  H   UNK A   1     -11.301  14.223  67.327  1.00  0.00     0.000 HD 
BRANCH  12  14
HETATM   14  C   UNK A   1     -10.912  13.383  69.266  1.00  0.00    -0.109 C  
BRANCH  14  15
HETATM   15  C   UNK A   1     -11.153  11.952  68.749  1.00  0.00    -0.245 C  
ATOM     16  H   GLY A   2      -9.104  11.560  68.874  1.00  0.00     0.000 HD 
ATOM     17  N   GLY A   2     -10.008  11.194  68.572  1.00  0.00    -0.193 N  
HETATM   18  O   UNK A   1     -12.281  11.490  68.593  1.00  0.00    -0.492 OA 
BRANCH  17  19
ATOM     19  CA  GLY A   2     -10.089   9.864  67.953  1.00  0.00    -0.173 C  
ATOM     20  C   GLY A   2      -9.457   9.798  66.564  1.00  0.00    -0.177 C  
ATOM     21  O   GLY A   2      -8.940  10.978  66.147  1.00  0.00    -0.179 OA 
ATOM     22  OXT GLY A   2      -9.451   8.795  65.866  1.00  0.00    -0.235 OA 
ENDBRANCH  17  19
ENDBRANCH  14  15
BRANCH  14  23
HETATM   23  C   UNK A   1     -12.162  13.792  70.061  1.00  0.00    -0.342 C  
HETATM   24  S   UNK A   1     -12.107  15.442  70.832  1.00  0.00    -0.405 SA 
HETATM   25  H   UNK A   1     -13.237  15.812  71.551  1.00  0.00     0.000 H  
ENDBRANCH  14  23
ENDBRANCH  12  14
ENDBRANCH   9  10
ENDBRANCH   8   9
ENDBRANCH   2   8
TORSDOF 7
ENDMDL
MODEL       40
REMARK 921   NORMALIZED FREE ENERGY PREDICTED BY IDOCK:   -5.34 KCAL/MOL
REMARK 922        TOTAL FREE ENERGY PREDICTED BY IDOCK:   -8.10 KCAL/MOL
REMARK 923 INTER-LIGAND FREE ENERGY PREDICTED BY IDOCK:   -7.52 KCAL/MOL
REMARK 924 INTRA-LIGAND FREE ENERGY PREDICTED BY IDOCK:   -0.58 KCAL/MOL
REMARK 927      BINDING AFFINITY PREDICTED BY RF-SCORE:    0.00 PKD
ROOT
HETATM    1  N   UNK A   1     -13.355   8.743  72.354  1.00  0.00    -0.544 NA 
HETATM    2  C   UNK A   1     -12.440   9.204  71.269  1.00  0.00    -0.300 C  
HETATM    3  H2  UNK A   1     -14.326   8.957  72.128  1.00  0.00     0.000 HD 
HETATM    4  H1  UNK A   1     -13.241   7.754  72.575  1.00  0.00     0.000 HD 
HETATM    5  O   UNK A   1     -10.938   8.182  72.826  1.00  0.00    -0.369 OA 
HETATM    6  C   UNK A   1     -10.987   8.884  71.665  1.00  0.00    -0.345 C  
HETATM    7  O   UNK A   1      -9.996   9.234  71.043  1.00  0.00    -0.270 OA 
ENDROOT
BRANCH   2   8
HETATM    8  C   UNK A   1     -12.610  10.690  70.937  1.00  0.00    -0.503 C  
BRANCH   8   9
HETATM    9  C   UNK A   1     -13.188  11.534  72.078  1.00  0.00    -0.443 C  
BRANCH   9  10
HETATM   10  C   UNK A   1     -13.276  12.983  71.658  1.00  0.00    -0.336 C  
HETATM   11  O   UNK A   1     -14.154  13.734  72.073  1.00  0.00    -0.469 OA 
HETATM   12  N   UNK A   1     -12.287  13.396  70.805  1.00  0.00    -0.365 N  
HETATM   13  H   UNK A   1     -11.584  12.724  70.497  1.00  0.00     0.000 HD 
BRANCH  12  14
HETATM   14  C   UNK A   1     -12.210  14.772  70.324  1.00  0.00    -0.338 C  
BRANCH  14  15
HETATM   15  C   UNK A   1     -11.694  14.739  68.873  1.00  0.00    -0.309 C  
ATOM     16  H   GLY A   2     -10.587  16.477  69.225  1.00  0.00     0.000 HD 
ATOM     17  N   GLY A   2     -10.880  15.802  68.518  1.00  0.00    -0.274 N  
HETATM   18  O   UNK A   1     -11.912  13.795  68.117  1.00  0.00    -0.362 OA 
BRANCH  17  19
ATOM     19  CA  GLY A   2     -10.437  15.962  67.126  1.00  0.00    -0.313 C  
ATOM     20  C   GLY A   2     -10.351  17.419  66.677  1.00  0.00    -0.306 C  
ATOM     21  O   GLY A   2     -10.705  18.305  67.638  1.00  0.00    -0.419 OA 
ATOM     22  OXT GLY A   2     -10.038  17.766  65.548  1.00  0.00    -0.548 OA 
ENDBRANCH  17  19
ENDBRANCH  14  15
BRANCH  14  23
HETATM   23  C   UNK A   1     -11.237  15.647  71.129  1.00  0.00    -0.355 C  
HETATM   24  S   UNK A   1     -11.912  16.388  72.651  1.00  0.00    -0.352 SA 
HETATM   25  H   UNK A   1     -11.032  17.180  73.379  1.00  0.00     0.000 H  
ENDBRANCH  14  23
ENDBRANCH  12  14
ENDBRANCH   9  10
ENDBRANCH   8   9
ENDBRANCH   2   8
TORSDOF 7
ENDMDL
MODEL       41
REMARK 921   NORMALIZED FREE ENERGY PREDICTED BY IDOCK:   -5.34 KCAL/MOL
REMARK 922        TOTAL FREE ENERGY PREDICTED BY IDOCK:   -8.10 KCAL/MOL
REMARK 923 INTER-LIGAND FREE ENERGY PREDICTED BY IDOCK:   -7.42 KCAL/MOL
REMARK 924 INTRA-LIGAND FREE ENERGY PREDICTED BY IDOCK:   -0.68 KCAL/MOL
REMARK 927      BINDING AFFINITY PREDICTED BY RF-SCORE:    0.00 PKD
ROOT
HETATM    1  N   UNK A   1     -13.352  11.293  72.139  1.00  0.00    -0.569 NA 
HETATM    2  C   UNK A   1     -12.895  10.247  71.176  1.00  0.00    -0.408 C  
HETATM    3  H2  UNK A   1     -13.208  12.227  71.758  1.00  0.00     0.000 HD 
HETATM    4  H1  UNK A   1     -14.319  11.164  72.436  1.00  0.00     0.000 HD 
HETATM    5  O   UNK A   1     -13.743   8.950  72.999  1.00  0.00    -0.264 OA 
HETATM    6  C   UNK A   1     -13.108   8.857  71.803  1.00  0.00    -0.374 C  
HETATM    7  O   UNK A   1     -12.734   7.803  71.315  1.00  0.00    -0.310 OA 
ENDROOT
BRANCH   2   8
HETATM    8  C   UNK A   1     -11.442  10.440  70.732  1.00  0.00    -0.422 C  
BRANCH   8   9
HETATM    9  C   UNK A   1     -11.259  10.628  69.223  1.00  0.00    -0.332 C  
BRANCH   9  10
HETATM   10  C   UNK A   1     -11.686  12.020  68.819  1.00  0.00    -0.321 C  
HETATM   11  O   UNK A   1     -12.158  12.266  67.712  1.00  0.00    -0.478 OA 
HETATM   12  N   UNK A   1     -11.532  12.974  69.789  1.00  0.00    -0.496 N  
HETATM   13  H   UNK A   1     -11.134  12.706  70.690  1.00  0.00     0.000 HD 
BRANCH  12  14
HETATM   14  C   UNK A   1     -11.920  14.364  69.572  1.00  0.00    -0.330 C  
BRANCH  14  15
HETATM   15  C   UNK A   1     -10.778  15.061  68.808  1.00  0.00    -0.241 C  
ATOM     16  H   GLY A   2     -12.126  15.642  67.320  1.00  0.00     0.000 HD 
ATOM     17  N   GLY A   2     -11.144  15.624  67.596  1.00  0.00    -0.323 N  
HETATM   18  O   UNK A   1      -9.651  15.188  69.280  1.00  0.00    -0.221 OA 
BRANCH  17  19
ATOM     19  CA  GLY A   2     -10.123  16.195  66.707  1.00  0.00    -0.271 C  
ATOM     20  C   GLY A   2     -10.023  17.717  66.792  1.00  0.00    -0.333 C  
ATOM     21  O   GLY A   2     -10.897  18.271  67.666  1.00  0.00    -0.396 OA 
ATOM     22  OXT GLY A   2      -9.262  18.388  66.110  1.00  0.00    -0.468 OA 
ENDBRANCH  17  19
ENDBRANCH  14  15
BRANCH  14  23
HETATM   23  C   UNK A   1     -12.136  15.149  70.875  1.00  0.00    -0.334 C  
HETATM   24  S   UNK A   1     -13.790  15.001  71.625  1.00  0.00    -0.529 SA 
HETATM   25  H   UNK A   1     -13.985  15.711  72.803  1.00  0.00     0.000 H  
ENDBRANCH  14  23
ENDBRANCH  12  14
ENDBRANCH   9  10
ENDBRANCH   8   9
ENDBRANCH   2   8
TORSDOF 7
ENDMDL
MODEL       42
REMARK 921   NORMALIZED FREE ENERGY PREDICTED BY IDOCK:   -5.34 KCAL/MOL
REMARK 922        TOTAL FREE ENERGY PREDICTED BY IDOCK:   -8.09 KCAL/MOL
REMARK 923 INTER-LIGAND FREE ENERGY PREDICTED BY IDOCK:   -6.99 KCAL/MOL
REMARK 924 INTRA-LIGAND FREE ENERGY PREDICTED BY IDOCK:   -1.10 KCAL/MOL
REMARK 927      BINDING AFFINITY PREDICTED BY RF-SCORE:    0.00 PKD
ROOT
HETATM    1  N   UNK A   1     -12.464  14.329  63.389  1.00  0.00    -1.101 NA 
HETATM    2  C   UNK A   1     -11.711  13.812  64.571  1.00  0.00    -0.407 C  
HETATM    3  H2  UNK A   1     -12.080  15.219  63.074  1.00  0.00     0.000 HD 
HETATM    4  H1  UNK A   1     -12.507  13.658  62.622  1.00  0.00     0.000 HD 
HETATM    5  O   UNK A   1     -13.323  12.088  64.178  1.00  0.00    -0.725 OA 
HETATM    6  C   UNK A   1     -12.338  12.482  65.026  1.00  0.00    -0.453 C  
HETATM    7  O   UNK A   1     -12.024  11.865  66.031  1.00  0.00    -0.511 OA 
ENDROOT
BRANCH   2   8
HETATM    8  C   UNK A   1     -11.646  14.819  65.723  1.00  0.00    -0.290 C  
BRANCH   8   9
HETATM    9  C   UNK A   1     -10.242  15.041  66.294  1.00  0.00    -0.306 C  
BRANCH   9  10
HETATM   10  C   UNK A   1     -10.218  14.689  67.763  1.00  0.00    -0.229 C  
HETATM   11  O   UNK A   1      -9.407  15.181  68.543  1.00  0.00    -0.180 OA 
HETATM   12  N   UNK A   1     -11.187  13.805  68.159  1.00  0.00    -0.259 N  
HETATM   13  H   UNK A   1     -11.834  13.433  67.463  1.00  0.00     0.000 HD 
BRANCH  12  14
HETATM   14  C   UNK A   1     -11.320  13.381  69.549  1.00  0.00    -0.183 C  
BRANCH  14  15
HETATM   15  C   UNK A   1     -11.608  11.867  69.558  1.00  0.00    -0.327 C  
ATOM     16  H   GLY A   2      -9.740  11.506  68.690  1.00  0.00     0.000 HD 
ATOM     17  N   GLY A   2     -10.620  11.082  68.987  1.00  0.00    -0.216 N  
HETATM   18  O   UNK A   1     -12.594  11.387  70.111  1.00  0.00    -0.200 OA 
BRANCH  17  19
ATOM     19  CA  GLY A   2     -10.834   9.639  68.806  1.00  0.00    -0.168 C  
ATOM     20  C   GLY A   2     -10.186   8.786  69.895  1.00  0.00    -0.200 C  
ATOM     21  O   GLY A   2      -9.524   9.509  70.829  1.00  0.00    -0.251 OA 
ATOM     22  OXT GLY A   2     -10.215   7.564  69.910  1.00  0.00    -0.201 OA 
ENDBRANCH  17  19
ENDBRANCH  14  15
BRANCH  14  23
HETATM   23  C   UNK A   1     -12.482  14.064  70.288  1.00  0.00    -0.338 C  
HETATM   24  S   UNK A   1     -12.060  15.593  71.185  1.00  0.00    -0.442 SA 
HETATM   25  H   UNK A   1     -13.111  16.212  71.852  1.00  0.00     0.000 H  
ENDBRANCH  14  23
ENDBRANCH  12  14
ENDBRANCH   9  10
ENDBRANCH   8   9
ENDBRANCH   2   8
TORSDOF 7
ENDMDL
MODEL       43
REMARK 921   NORMALIZED FREE ENERGY PREDICTED BY IDOCK:   -5.34 KCAL/MOL
REMARK 922        TOTAL FREE ENERGY PREDICTED BY IDOCK:   -8.09 KCAL/MOL
REMARK 923 INTER-LIGAND FREE ENERGY PREDICTED BY IDOCK:   -7.56 KCAL/MOL
REMARK 924 INTRA-LIGAND FREE ENERGY PREDICTED BY IDOCK:   -0.53 KCAL/MOL
REMARK 927      BINDING AFFINITY PREDICTED BY RF-SCORE:    0.00 PKD
ROOT
HETATM    1  N   UNK A   1     -13.728   9.372  72.571  1.00  0.00    -0.691 NA 
HETATM    2  C   UNK A   1     -12.738   9.473  71.458  1.00  0.00    -0.372 C  
HETATM    3  H2  UNK A   1     -14.554   9.937  72.377  1.00  0.00     0.000 HD 
HETATM    4  H1  UNK A   1     -13.987   8.409  72.785  1.00  0.00     0.000 HD 
HETATM    5  O   UNK A   1     -11.684   7.939  72.961  1.00  0.00    -0.305 OA 
HETATM    6  C   UNK A   1     -11.500   8.626  71.805  1.00  0.00    -0.324 C  
HETATM    7  O   UNK A   1     -10.469   8.589  71.152  1.00  0.00    -0.203 OA 
ENDROOT
BRANCH   2   8
HETATM    8  C   UNK A   1     -12.349  10.920  71.137  1.00  0.00    -0.479 C  
BRANCH   8   9
HETATM    9  C   UNK A   1     -12.043  11.182  69.659  1.00  0.00    -0.406 C  
BRANCH   9  10
HETATM   10  C   UNK A   1     -11.638  12.624  69.461  1.00  0.00    -0.281 C  
HETATM   11  O   UNK A   1     -12.262  13.556  69.962  1.00  0.00    -0.328 OA 
HETATM   12  N   UNK A   1     -10.508  12.807  68.709  1.00  0.00    -0.383 N  
HETATM   13  H   UNK A   1     -10.032  11.991  68.322  1.00  0.00     0.000 HD 
BRANCH  12  14
HETATM   14  C   UNK A   1      -9.964  14.135  68.445  1.00  0.00    -0.235 C  
BRANCH  14  15
HETATM   15  C   UNK A   1     -10.416  14.561  67.035  1.00  0.00    -0.268 C  
ATOM     16  H   GLY A   2     -10.322  12.571  66.402  1.00  0.00     0.000 HD 
ATOM     17  N   GLY A   2     -10.474  13.536  66.105  1.00  0.00    -0.291 N  
HETATM   18  O   UNK A   1     -10.784  15.705  66.779  1.00  0.00    -0.308 OA 
BRANCH  17  19
ATOM     19  CA  GLY A   2     -10.755  13.832  64.694  1.00  0.00    -0.414 C  
ATOM     20  C   GLY A   2     -12.182  13.487  64.270  1.00  0.00    -0.396 C  
ATOM     21  O   GLY A   2     -12.932  12.964  65.268  1.00  0.00    -0.703 OA 
ATOM     22  OXT GLY A   2     -12.605  13.623  63.132  1.00  0.00    -0.792 OA 
ENDBRANCH  17  19
ENDBRANCH  14  15
BRANCH  14  23
HETATM   23  C   UNK A   1      -8.428  14.180  68.459  1.00  0.00    -0.157 C  
HETATM   24  S   UNK A   1      -7.686  15.671  69.200  1.00  0.00    -0.225 SA 
HETATM   25  H   UNK A   1      -6.297  15.712  69.213  1.00  0.00     0.000 H  
ENDBRANCH  14  23
ENDBRANCH  12  14
ENDBRANCH   9  10
ENDBRANCH   8   9
ENDBRANCH   2   8
TORSDOF 7
ENDMDL
MODEL       44
REMARK 921   NORMALIZED FREE ENERGY PREDICTED BY IDOCK:   -5.33 KCAL/MOL
REMARK 922        TOTAL FREE ENERGY PREDICTED BY IDOCK:   -8.08 KCAL/MOL
REMARK 923 INTER-LIGAND FREE ENERGY PREDICTED BY IDOCK:   -6.88 KCAL/MOL
REMARK 924 INTRA-LIGAND FREE ENERGY PREDICTED BY IDOCK:   -1.21 KCAL/MOL
REMARK 927      BINDING AFFINITY PREDICTED BY RF-SCORE:    0.00 PKD
ROOT
HETATM    1  N   UNK A   1      -8.021  11.699  68.852  1.00  0.00    -0.323 NA 
HETATM    2  C   UNK A   1      -8.578  10.981  67.668  1.00  0.00    -0.125 C  
HETATM    3  H2  UNK A   1      -7.721  11.041  69.570  1.00  0.00     0.000 HD 
HETATM    4  H1  UNK A   1      -7.268  12.342  68.608  1.00  0.00     0.000 HD 
HETATM    5  O   UNK A   1      -8.724  13.275  67.007  1.00  0.00    -0.212 OA 
HETATM    6  C   UNK A   1      -9.041  12.012  66.623  1.00  0.00    -0.205 C  
HETATM    7  O   UNK A   1      -9.642  11.748  65.594  1.00  0.00    -0.231 OA 
ENDROOT
BRANCH   2   8
HETATM    8  C   UNK A   1      -9.710  10.015  68.035  1.00  0.00    -0.158 C  
BRANCH   8   9
HETATM    9  C   UNK A   1     -10.319  10.248  69.421  1.00  0.00    -0.256 C  
BRANCH   9  10
HETATM   10  C   UNK A   1     -11.456  11.239  69.328  1.00  0.00    -0.301 C  
HETATM   11  O   UNK A   1     -12.630  10.886  69.254  1.00  0.00    -0.356 OA 
HETATM   12  N   UNK A   1     -11.077  12.555  69.363  1.00  0.00    -0.452 N  
HETATM   13  H   UNK A   1     -10.084  12.784  69.427  1.00  0.00     0.000 HD 
BRANCH  12  14
HETATM   14  C   UNK A   1     -12.052  13.639  69.310  1.00  0.00    -0.314 C  
BRANCH  14  15
HETATM   15  C   UNK A   1     -11.813  14.430  68.010  1.00  0.00    -0.325 C  
ATOM     16  H   GLY A   2     -12.749  12.915  66.914  1.00  0.00     0.000 HD 
ATOM     17  N   GLY A   2     -12.232  13.793  66.853  1.00  0.00    -0.400 N  
HETATM   18  O   UNK A   1     -11.369  15.575  68.008  1.00  0.00    -0.331 OA 
BRANCH  17  19
ATOM     19  CA  GLY A   2     -11.936  14.378  65.538  1.00  0.00    -0.358 C  
ATOM     20  C   GLY A   2     -12.567  13.614  64.375  1.00  0.00    -0.166 C  
ATOM     21  O   GLY A   2     -13.281  12.530  64.761  1.00  0.00    -0.839 OA 
ATOM     22  OXT GLY A   2     -12.413  13.914  63.200  1.00  0.00    -0.766 OA 
ENDBRANCH  17  19
ENDBRANCH  14  15
BRANCH  14  23
HETATM   23  C   UNK A   1     -11.922  14.634  70.474  1.00  0.00    -0.310 C  
HETATM   24  S   UNK A   1     -13.489  15.209  71.204  1.00  0.00    -0.450 SA 
HETATM   25  H   UNK A   1     -13.372  16.109  72.256  1.00  0.00     0.000 H  
ENDBRANCH  14  23
ENDBRANCH  12  14
ENDBRANCH   9  10
ENDBRANCH   8   9
ENDBRANCH   2   8
TORSDOF 7
ENDMDL
MODEL       45
REMARK 921   NORMALIZED FREE ENERGY PREDICTED BY IDOCK:   -5.33 KCAL/MOL
REMARK 922        TOTAL FREE ENERGY PREDICTED BY IDOCK:   -8.08 KCAL/MOL
REMARK 923 INTER-LIGAND FREE ENERGY PREDICTED BY IDOCK:   -7.41 KCAL/MOL
REMARK 924 INTRA-LIGAND FREE ENERGY PREDICTED BY IDOCK:   -0.67 KCAL/MOL
REMARK 927      BINDING AFFINITY PREDICTED BY RF-SCORE:    0.00 PKD
ROOT
HETATM    1  N   UNK A   1     -12.137   6.831  70.138  1.00  0.00    -0.633 NA 
HETATM    2  C   UNK A   1     -10.795   6.777  70.789  1.00  0.00    -0.249 C  
HETATM    3  H2  UNK A   1     -12.071   7.217  69.197  1.00  0.00     0.000 HD 
HETATM    4  H1  UNK A   1     -12.611   5.928  70.130  1.00  0.00     0.000 HD 
HETATM    5  O   UNK A   1     -12.224   5.821  72.452  1.00  0.00    -0.207 OA 
HETATM    6  C   UNK A   1     -10.946   6.213  72.213  1.00  0.00    -0.260 C  
HETATM    7  O   UNK A   1     -10.053   6.147  73.042  1.00  0.00    -0.173 OA 
ENDROOT
BRANCH   2   8
HETATM    8  C   UNK A   1     -10.084   8.134  70.802  1.00  0.00    -0.211 C  
BRANCH   8   9
HETATM    9  C   UNK A   1     -10.776   9.206  71.650  1.00  0.00    -0.441 C  
BRANCH   9  10
HETATM   10  C   UNK A   1     -11.713  10.022  70.790  1.00  0.00    -0.350 C  
HETATM   11  O   UNK A   1     -12.928   9.851  70.798  1.00  0.00    -0.301 OA 
HETATM   12  N   UNK A   1     -11.103  10.983  70.027  1.00  0.00    -0.453 N  
HETATM   13  H   UNK A   1     -10.088  11.078  70.066  1.00  0.00     0.000 HD 
BRANCH  12  14
HETATM   14  C   UNK A   1     -11.866  11.876  69.161  1.00  0.00    -0.311 C  
BRANCH  14  15
HETATM   15  C   UNK A   1     -11.533  11.518  67.700  1.00  0.00    -0.285 C  
ATOM     16  H   GLY A   2     -11.940  13.485  67.122  1.00  0.00     0.000 HD 
ATOM     17  N   GLY A   2     -11.707  12.548  66.791  1.00  0.00    -0.386 N  
HETATM   18  O   UNK A   1     -11.061  10.430  67.380  1.00  0.00    -0.299 OA 
BRANCH  17  19
ATOM     19  CA  GLY A   2     -11.559  12.298  65.351  1.00  0.00    -0.363 C  
ATOM     20  C   GLY A   2     -12.423  13.208  64.481  1.00  0.00    -0.342 C  
ATOM     21  O   GLY A   2     -13.177  14.081  65.191  1.00  0.00    -0.768 OA 
ATOM     22  OXT GLY A   2     -12.473  13.138  63.262  1.00  0.00    -0.720 OA 
ENDBRANCH  17  19
ENDBRANCH  14  15
BRANCH  14  23
HETATM   23  C   UNK A   1     -11.515  13.360  69.352  1.00  0.00    -0.274 C  
HETATM   24  S   UNK A   1     -12.347  14.198  70.740  1.00  0.00    -0.389 SA 
HETATM   25  H   UNK A   1     -12.029  15.540  70.914  1.00  0.00     0.000 H  
ENDBRANCH  14  23
ENDBRANCH  12  14
ENDBRANCH   9  10
ENDBRANCH   8   9
ENDBRANCH   2   8
TORSDOF 7
ENDMDL
MODEL       46
REMARK 921   NORMALIZED FREE ENERGY PREDICTED BY IDOCK:   -5.31 KCAL/MOL
REMARK 922        TOTAL FREE ENERGY PREDICTED BY IDOCK:   -8.05 KCAL/MOL
REMARK 923 INTER-LIGAND FREE ENERGY PREDICTED BY IDOCK:   -7.31 KCAL/MOL
REMARK 924 INTRA-LIGAND FREE ENERGY PREDICTED BY IDOCK:   -0.74 KCAL/MOL
REMARK 927      BINDING AFFINITY PREDICTED BY RF-SCORE:    0.00 PKD
ROOT
HETATM    1  N   UNK A   1      -8.936  19.003  67.867  1.00  0.00    -0.293 NA 
HETATM    2  C   UNK A   1      -9.131  18.228  66.607  1.00  0.00    -0.288 C  
HETATM    3  H2  UNK A   1      -8.079  18.720  68.341  1.00  0.00     0.000 HD 
HETATM    4  H1  UNK A   1      -8.956  20.012  67.720  1.00  0.00     0.000 HD 
HETATM    5  O   UNK A   1     -11.012  19.706  66.611  1.00  0.00    -0.424 OA 
HETATM    6  C   UNK A   1     -10.446  18.669  65.940  1.00  0.00    -0.356 C  
HETATM    7  O   UNK A   1     -10.944  18.148  64.955  1.00  0.00    -0.726 OA 
ENDROOT
BRANCH   2   8
HETATM    8  C   UNK A   1      -9.102  16.712  66.828  1.00  0.00    -0.261 C  
BRANCH   8   9
HETATM    9  C   UNK A   1      -9.433  16.273  68.258  1.00  0.00    -0.214 C  
BRANCH   9  10
HETATM   10  C   UNK A   1     -10.774  15.577  68.289  1.00  0.00    -0.271 C  
HETATM   11  O   UNK A   1     -11.690  15.950  69.017  1.00  0.00    -0.385 OA 
HETATM   12  N   UNK A   1     -10.896  14.522  67.424  1.00  0.00    -0.285 N  
HETATM   13  H   UNK A   1     -10.098  14.262  66.843  1.00  0.00     0.000 HD 
BRANCH  12  14
HETATM   14  C   UNK A   1     -12.135  13.759  67.309  1.00  0.00    -0.357 C  
BRANCH  14  15
HETATM   15  C   UNK A   1     -11.862  12.332  67.823  1.00  0.00    -0.273 C  
ATOM     16  H   GLY A   2     -12.153  12.982  69.788  1.00  0.00     0.000 HD 
ATOM     17  N   GLY A   2     -11.876  12.195  69.201  1.00  0.00    -0.312 N  
HETATM   18  O   UNK A   1     -11.734  11.374  67.065  1.00  0.00    -0.535 OA 
BRANCH  17  19
ATOM     19  CA  GLY A   2     -11.494  10.918  69.821  1.00  0.00    -0.313 C  
ATOM     20  C   GLY A   2     -12.224  10.634  71.132  1.00  0.00    -0.374 C  
ATOM     21  O   GLY A   2     -13.090  11.611  71.494  1.00  0.00    -0.412 OA 
ATOM     22  OXT GLY A   2     -12.025   9.645  71.822  1.00  0.00    -0.381 OA 
ENDBRANCH  17  19
ENDBRANCH  14  15
BRANCH  14  23
HETATM   23  C   UNK A   1     -12.640  13.630  65.864  1.00  0.00    -0.425 C  
HETATM   24  S   UNK A   1     -11.699  14.557  64.609  1.00  0.00    -0.423 SA 
HETATM   25  H   UNK A   1     -12.157  14.440  63.302  1.00  0.00     0.000 H  
ENDBRANCH  14  23
ENDBRANCH  12  14
ENDBRANCH   9  10
ENDBRANCH   8   9
ENDBRANCH   2   8
TORSDOF 7
ENDMDL
MODEL       47
REMARK 921   NORMALIZED FREE ENERGY PREDICTED BY IDOCK:   -5.31 KCAL/MOL
REMARK 922        TOTAL FREE ENERGY PREDICTED BY IDOCK:   -8.05 KCAL/MOL
REMARK 923 INTER-LIGAND FREE ENERGY PREDICTED BY IDOCK:   -7.53 KCAL/MOL
REMARK 924 INTRA-LIGAND FREE ENERGY PREDICTED BY IDOCK:   -0.52 KCAL/MOL
REMARK 927      BINDING AFFINITY PREDICTED BY RF-SCORE:    0.00 PKD
ROOT
HETATM    1  N   UNK A   1     -11.247   7.607  73.177  1.00  0.00    -0.569 NA 
HETATM    2  C   UNK A   1     -12.089   7.503  71.949  1.00  0.00    -0.305 C  
HETATM    3  H2  UNK A   1     -11.753   8.076  73.927  1.00  0.00     0.000 HD 
HETATM    4  H1  UNK A   1     -10.886   6.706  73.488  1.00  0.00     0.000 HD 
HETATM    5  O   UNK A   1     -10.072   6.393  71.299  1.00  0.00    -0.185 OA 
HETATM    6  C   UNK A   1     -11.279   6.813  70.838  1.00  0.00    -0.292 C  
HETATM    7  O   UNK A   1     -11.645   6.678  69.681  1.00  0.00    -0.324 OA 
ENDROOT
BRANCH   2   8
HETATM    8  C   UNK A   1     -12.631   8.857  71.481  1.00  0.00    -0.385 C  
BRANCH   8   9
HETATM    9  C   UNK A   1     -11.568   9.949  71.329  1.00  0.00    -0.456 C  
BRANCH   9  10
HETATM   10  C   UNK A   1     -12.226  11.274  71.021  1.00  0.00    -0.311 C  
HETATM   11  O   UNK A   1     -13.183  11.696  71.664  1.00  0.00    -0.409 OA 
HETATM   12  N   UNK A   1     -11.653  11.976  69.993  1.00  0.00    -0.510 N  
HETATM   13  H   UNK A   1     -10.858  11.572  69.499  1.00  0.00     0.000 HD 
BRANCH  12  14
HETATM   14  C   UNK A   1     -12.150  13.286  69.586  1.00  0.00    -0.270 C  
BRANCH  14  15
HETATM   15  C   UNK A   1     -11.543  13.616  68.209  1.00  0.00    -0.339 C  
ATOM     16  H   GLY A   2     -12.542  11.981  67.374  1.00  0.00     0.000 HD 
ATOM     17  N   GLY A   2     -11.866  12.726  67.199  1.00  0.00    -0.372 N  
HETATM   18  O   UNK A   1     -10.897  14.641  68.002  1.00  0.00    -0.248 OA 
BRANCH  17  19
ATOM     19  CA  GLY A   2     -11.240  12.849  65.875  1.00  0.00    -0.293 C  
ATOM     20  C   GLY A   2     -12.153  13.478  64.824  1.00  0.00    -0.404 C  
ATOM     21  O   GLY A   2     -13.380  13.805  65.297  1.00  0.00    -0.710 OA 
ATOM     22  OXT GLY A   2     -11.837  13.637  63.655  1.00  0.00    -0.380 OA 
ENDBRANCH  17  19
ENDBRANCH  14  15
BRANCH  14  23
HETATM   23  C   UNK A   1     -11.742  14.418  70.541  1.00  0.00    -0.264 C  
HETATM   24  S   UNK A   1     -13.114  15.342  71.308  1.00  0.00    -0.499 SA 
HETATM   25  H   UNK A   1     -12.745  16.365  72.172  1.00  0.00     0.000 H  
ENDBRANCH  14  23
ENDBRANCH  12  14
ENDBRANCH   9  10
ENDBRANCH   8   9
ENDBRANCH   2   8
TORSDOF 7
ENDMDL
MODEL       48
REMARK 921   NORMALIZED FREE ENERGY PREDICTED BY IDOCK:   -5.30 KCAL/MOL
REMARK 922        TOTAL FREE ENERGY PREDICTED BY IDOCK:   -8.04 KCAL/MOL
REMARK 923 INTER-LIGAND FREE ENERGY PREDICTED BY IDOCK:   -7.17 KCAL/MOL
REMARK 924 INTRA-LIGAND FREE ENERGY PREDICTED BY IDOCK:   -0.86 KCAL/MOL
REMARK 927      BINDING AFFINITY PREDICTED BY RF-SCORE:    0.00 PKD
ROOT
HETATM    1  N   UNK A   1     -11.454   7.384  73.191  1.00  0.00    -0.604 NA 
HETATM    2  C   UNK A   1     -11.852   7.728  71.793  1.00  0.00    -0.290 C  
HETATM    3  H2  UNK A   1     -11.705   8.132  73.836  1.00  0.00     0.000 HD 
HETATM    4  H1  UNK A   1     -11.833   6.490  73.503  1.00  0.00     0.000 HD 
HETATM    5  O   UNK A   1     -10.917   5.539  71.551  1.00  0.00    -0.230 OA 
HETATM    6  C   UNK A   1     -11.431   6.584  70.853  1.00  0.00    -0.351 C  
HETATM    7  O   UNK A   1     -11.514   6.609  69.636  1.00  0.00    -0.338 OA 
ENDROOT
BRANCH   2   8
HETATM    8  C   UNK A   1     -11.282   9.070  71.324  1.00  0.00    -0.385 C  
BRANCH   8   9
HETATM    9  C   UNK A   1      -9.757   9.100  71.188  1.00  0.00    -0.360 C  
BRANCH   9  10
HETATM   10  C   UNK A   1      -9.367   9.708  69.861  1.00  0.00    -0.228 C  
HETATM   11  O   UNK A   1      -8.303  10.299  69.697  1.00  0.00    -0.169 OA 
HETATM   12  N   UNK A   1     -10.277   9.524  68.853  1.00  0.00    -0.192 N  
HETATM   13  H   UNK A   1     -11.143   9.022  69.052  1.00  0.00     0.000 HD 
BRANCH  12  14
HETATM   14  C   UNK A   1     -10.043  10.024  67.503  1.00  0.00    -0.198 C  
BRANCH  14  15
HETATM   15  C   UNK A   1     -11.138  11.060  67.184  1.00  0.00    -0.267 C  
ATOM     16  H   GLY A   2     -10.387  11.259  65.243  1.00  0.00     0.000 HD 
ATOM     17  N   GLY A   2     -11.067  11.614  65.917  1.00  0.00    -0.292 N  
HETATM   18  O   UNK A   1     -12.058  11.305  67.960  1.00  0.00    -0.638 OA 
BRANCH  17  19
ATOM     19  CA  GLY A   2     -11.966  12.713  65.538  1.00  0.00    -0.456 C  
ATOM     20  C   GLY A   2     -11.926  13.049  64.049  1.00  0.00    -0.456 C  
ATOM     21  O   GLY A   2     -11.065  12.279  63.342  1.00  0.00    -0.443 OA 
ATOM     22  OXT GLY A   2     -12.571  13.952  63.537  1.00  0.00    -0.842 OA 
ENDBRANCH  17  19
ENDBRANCH  14  15
BRANCH  14  23
HETATM   23  C   UNK A   1     -10.126   8.933  66.424  1.00  0.00    -0.263 C  
HETATM   24  S   UNK A   1      -8.629   8.705  65.410  1.00  0.00    -0.172 SA 
HETATM   25  H   UNK A   1      -8.704   7.718  64.435  1.00  0.00     0.000 H  
ENDBRANCH  14  23
ENDBRANCH  12  14
ENDBRANCH   9  10
ENDBRANCH   8   9
ENDBRANCH   2   8
TORSDOF 7
ENDMDL
MODEL       49
REMARK 921   NORMALIZED FREE ENERGY PREDICTED BY IDOCK:   -5.30 KCAL/MOL
REMARK 922        TOTAL FREE ENERGY PREDICTED BY IDOCK:   -8.03 KCAL/MOL
REMARK 923 INTER-LIGAND FREE ENERGY PREDICTED BY IDOCK:   -7.75 KCAL/MOL
REMARK 924 INTRA-LIGAND FREE ENERGY PREDICTED BY IDOCK:   -0.28 KCAL/MOL
REMARK 927      BINDING AFFINITY PREDICTED BY RF-SCORE:    0.00 PKD
ROOT
HETATM    1  N   UNK A   1     -12.008   7.486  70.416  1.00  0.00    -0.509 NA 
HETATM    2  C   UNK A   1     -12.258   8.403  71.567  1.00  0.00    -0.302 C  
HETATM    3  H2  UNK A   1     -11.029   7.513  70.134  1.00  0.00     0.000 HD 
HETATM    4  H1  UNK A   1     -12.309   6.529  70.597  1.00  0.00     0.000 HD 
HETATM    5  O   UNK A   1     -14.406   7.415  71.205  1.00  0.00    -0.421 OA 
HETATM    6  C   UNK A   1     -13.750   8.349  71.941  1.00  0.00    -0.394 C  
HETATM    7  O   UNK A   1     -14.294   9.064  72.767  1.00  0.00    -0.596 OA 
ENDROOT
BRANCH   2   8
HETATM    8  C   UNK A   1     -11.805   9.840  71.294  1.00  0.00    -0.481 C  
BRANCH   8   9
HETATM    9  C   UNK A   1     -12.365  10.448  70.004  1.00  0.00    -0.229 C  
BRANCH   9  10
HETATM   10  C   UNK A   1     -11.234  10.837  69.081  1.00  0.00    -0.262 C  
HETATM   11  O   UNK A   1     -10.065  10.871  69.455  1.00  0.00    -0.189 OA 
HETATM   12  N   UNK A   1     -11.611  11.119  67.795  1.00  0.00    -0.268 N  
HETATM   13  H   UNK A   1     -12.600  11.071  67.546  1.00  0.00     0.000 HD 
BRANCH  12  14
HETATM   14  C   UNK A   1     -10.639  11.485  66.770  1.00  0.00    -0.250 C  
BRANCH  14  15
HETATM   15  C   UNK A   1     -11.340  12.417  65.763  1.00  0.00    -0.352 C  
ATOM     16  H   GLY A   2      -9.523  13.378  65.384  1.00  0.00     0.000 HD 
ATOM     17  N   GLY A   2     -10.526  13.385  65.198  1.00  0.00    -0.330 N  
HETATM   18  O   UNK A   1     -12.509  12.256  65.419  1.00  0.00    -0.596 OA 
BRANCH  17  19
ATOM     19  CA  GLY A   2     -11.102  14.421  64.330  1.00  0.00    -0.189 C  
ATOM     20  C   GLY A   2     -10.887  15.841  64.851  1.00  0.00    -0.413 C  
ATOM     21  O   GLY A   2     -10.210  15.893  66.023  1.00  0.00    -0.292 OA 
ATOM     22  OXT GLY A   2     -11.318  16.842  64.297  1.00  0.00    -1.170 OA 
ENDBRANCH  17  19
ENDBRANCH  14  15
BRANCH  14  23
HETATM   23  C   UNK A   1     -10.107  10.282  65.976  1.00  0.00    -0.244 C  
HETATM   24  S   UNK A   1     -10.265   8.661  66.792  1.00  0.00    -0.267 SA 
HETATM   25  H   UNK A   1      -9.783   7.573  66.074  1.00  0.00     0.000 H  
ENDBRANCH  14  23
ENDBRANCH  12  14
ENDBRANCH   9  10
ENDBRANCH   8   9
ENDBRANCH   2   8
TORSDOF 7
ENDMDL
MODEL       50
REMARK 921   NORMALIZED FREE ENERGY PREDICTED BY IDOCK:   -5.30 KCAL/MOL
REMARK 922        TOTAL FREE ENERGY PREDICTED BY IDOCK:   -8.03 KCAL/MOL
REMARK 923 INTER-LIGAND FREE ENERGY PREDICTED BY IDOCK:   -7.39 KCAL/MOL
REMARK 924 INTRA-LIGAND FREE ENERGY PREDICTED BY IDOCK:   -0.65 KCAL/MOL
REMARK 927      BINDING AFFINITY PREDICTED BY RF-SCORE:    0.00 PKD
ROOT
HETATM    1  N   UNK A   1     -13.441   8.669  72.956  1.00  0.00    -0.866 NA 
HETATM    2  C   UNK A   1     -12.875   8.732  71.576  1.00  0.00    -0.325 C  
HETATM    3  H2  UNK A   1     -13.887   9.550  73.208  1.00  0.00     0.000 HD 
HETATM    4  H1  UNK A   1     -14.080   7.885  73.087  1.00  0.00     0.000 HD 
HETATM    5  O   UNK A   1     -12.377   6.490  72.246  1.00  0.00    -0.243 OA 
HETATM    6  C   UNK A   1     -12.191   7.393  71.249  1.00  0.00    -0.341 C  
HETATM    7  O   UNK A   1     -11.537   7.164  70.244  1.00  0.00    -0.277 OA 
ENDROOT
BRANCH   2   8
HETATM    8  C   UNK A   1     -11.914   9.909  71.380  1.00  0.00    -0.489 C  
BRANCH   8   9
HETATM    9  C   UNK A   1     -12.157  10.722  70.104  1.00  0.00    -0.427 C  
BRANCH   9  10
HETATM   10  C   UNK A   1     -10.927  10.690  69.227  1.00  0.00    -0.245 C  
HETATM   11  O   UNK A   1      -9.895  10.117  69.565  1.00  0.00    -0.215 OA 
HETATM   12  N   UNK A   1     -11.065  11.321  68.019  1.00  0.00    -0.243 N  
HETATM   13  H   UNK A   1     -11.950  11.777  67.796  1.00  0.00     0.000 HD 
BRANCH  12  14
HETATM   14  C   UNK A   1      -9.982  11.360  67.042  1.00  0.00    -0.201 C  
BRANCH  14  15
HETATM   15  C   UNK A   1      -9.889  12.796  66.494  1.00  0.00    -0.258 C  
ATOM     16  H   GLY A   2     -11.402  12.371  65.117  1.00  0.00     0.000 HD 
ATOM     17  N   GLY A   2     -10.721  13.067  65.421  1.00  0.00    -0.286 N  
HETATM   18  O   UNK A   1      -9.197  13.661  67.026  1.00  0.00    -0.232 OA 
BRANCH  17  19
ATOM     19  CA  GLY A   2     -10.628  14.354  64.718  1.00  0.00    -0.393 C  
ATOM     20  C   GLY A   2     -11.985  14.994  64.433  1.00  0.00    -0.353 C  
ATOM     21  O   GLY A   2     -13.034  14.258  64.872  1.00  0.00    -0.682 OA 
ATOM     22  OXT GLY A   2     -12.129  16.046  63.828  1.00  0.00    -0.882 OA 
ENDBRANCH  17  19
ENDBRANCH  14  15
BRANCH  14  23
HETATM   23  C   UNK A   1     -10.211  10.431  65.839  1.00  0.00    -0.234 C  
HETATM   24  S   UNK A   1      -8.718   9.961  64.906  1.00  0.00    -0.193 SA 
HETATM   25  H   UNK A   1      -8.926   9.121  63.818  1.00  0.00     0.000 H  
ENDBRANCH  14  23
ENDBRANCH  12  14
ENDBRANCH   9  10
ENDBRANCH   8   9
ENDBRANCH   2   8
TORSDOF 7
ENDMDL
MODEL       51
REMARK 921   NORMALIZED FREE ENERGY PREDICTED BY IDOCK:   -5.28 KCAL/MOL
REMARK 922        TOTAL FREE ENERGY PREDICTED BY IDOCK:   -8.00 KCAL/MOL
REMARK 923 INTER-LIGAND FREE ENERGY PREDICTED BY IDOCK:   -7.11 KCAL/MOL
REMARK 924 INTRA-LIGAND FREE ENERGY PREDICTED BY IDOCK:   -0.89 KCAL/MOL
REMARK 927      BINDING AFFINITY PREDICTED BY RF-SCORE:    0.00 PKD
ROOT
HETATM    1  N   UNK A   1     -10.606   9.986  70.803  1.00  0.00    -0.378 NA 
HETATM    2  C   UNK A   1     -11.738  10.074  69.834  1.00  0.00    -0.125 C  
HETATM    3  H2  UNK A   1     -10.860   9.415  71.609  1.00  0.00     0.000 HD 
HETATM    4  H1  UNK A   1      -9.743   9.651  70.375  1.00  0.00     0.000 HD 
HETATM    5  O   UNK A   1     -10.017  11.333  68.749  1.00  0.00    -0.205 OA 
HETATM    6  C   UNK A   1     -11.320  10.963  68.649  1.00  0.00    -0.295 C  
HETATM    7  O   UNK A   1     -12.058  11.322  67.745  1.00  0.00    -0.631 OA 
ENDROOT
BRANCH   2   8
HETATM    8  C   UNK A   1     -13.035  10.579  70.476  1.00  0.00    -0.289 C  
BRANCH   8   9
HETATM    9  C   UNK A   1     -12.872  11.108  71.904  1.00  0.00    -0.400 C  
BRANCH   9  10
HETATM   10  C   UNK A   1     -13.182  12.587  71.947  1.00  0.00    -0.392 C  
HETATM   11  O   UNK A   1     -14.117  13.042  72.598  1.00  0.00    -0.643 OA 
HETATM   12  N   UNK A   1     -12.322  13.376  71.229  1.00  0.00    -0.342 N  
HETATM   13  H   UNK A   1     -11.562  12.937  70.710  1.00  0.00     0.000 HD 
BRANCH  12  14
HETATM   14  C   UNK A   1     -12.464  14.828  71.187  1.00  0.00    -0.329 C  
BRANCH  14  15
HETATM   15  C   UNK A   1     -11.852  15.326  69.863  1.00  0.00    -0.335 C  
ATOM     16  H   GLY A   2     -10.796  16.800  70.904  1.00  0.00     0.000 HD 
ATOM     17  N   GLY A   2     -11.032  16.436  69.980  1.00  0.00    -0.357 N  
HETATM   18  O   UNK A   1     -12.006  14.729  68.801  1.00  0.00    -0.304 OA 
BRANCH  17  19
ATOM     19  CA  GLY A   2     -10.500  17.092  68.778  1.00  0.00    -0.351 C  
ATOM     20  C   GLY A   2      -9.029  16.778  68.512  1.00  0.00    -0.244 C  
ATOM     21  O   GLY A   2      -8.474  15.957  69.435  1.00  0.00    -0.255 OA 
ATOM     22  OXT GLY A   2      -8.388  17.252  67.585  1.00  0.00    -0.200 OA 
ENDBRANCH  17  19
ENDBRANCH  14  15
BRANCH  14  23
HETATM   23  C   UNK A   1     -11.723  15.547  72.325  1.00  0.00    -0.482 C  
HETATM   24  S   UNK A   1     -12.765  16.147  73.694  1.00  0.00    -0.558 SA 
HETATM   25  H   UNK A   1     -12.095  16.797  74.724  1.00  0.00     0.000 H  
ENDBRANCH  14  23
ENDBRANCH  12  14
ENDBRANCH   9  10
ENDBRANCH   8   9
ENDBRANCH   2   8
TORSDOF 7
ENDMDL
MODEL       52
REMARK 921   NORMALIZED FREE ENERGY PREDICTED BY IDOCK:   -5.26 KCAL/MOL
REMARK 922        TOTAL FREE ENERGY PREDICTED BY IDOCK:   -7.98 KCAL/MOL
REMARK 923 INTER-LIGAND FREE ENERGY PREDICTED BY IDOCK:   -7.25 KCAL/MOL
REMARK 924 INTRA-LIGAND FREE ENERGY PREDICTED BY IDOCK:   -0.73 KCAL/MOL
REMARK 927      BINDING AFFINITY PREDICTED BY RF-SCORE:    0.00 PKD
ROOT
HETATM    1  N   UNK A   1     -10.037  13.361  63.726  1.00  0.00    -0.533 NA 
HETATM    2  C   UNK A   1     -10.912  12.152  63.750  1.00  0.00    -0.431 C  
HETATM    3  H2  UNK A   1      -9.062  13.109  63.885  1.00  0.00     0.000 HD 
HETATM    4  H1  UNK A   1     -10.138  13.907  62.870  1.00  0.00     0.000 HD 
HETATM    5  O   UNK A   1     -12.460  13.911  63.271  1.00  0.00    -0.817 OA 
HETATM    6  C   UNK A   1     -12.373  12.582  63.532  1.00  0.00    -0.525 C  
HETATM    7  O   UNK A   1     -13.342  11.843  63.608  1.00  0.00    -0.620 OA 
ENDROOT
BRANCH   2   8
HETATM    8  C   UNK A   1     -10.760  11.332  65.036  1.00  0.00    -0.322 C  
BRANCH   8   9
HETATM    9  C   UNK A   1      -9.330  11.260  65.578  1.00  0.00    -0.243 C  
BRANCH   9  10
HETATM   10  C   UNK A   1      -9.171  12.202  66.749  1.00  0.00    -0.207 C  
HETATM   11  O   UNK A   1      -9.274  11.826  67.913  1.00  0.00    -0.168 OA 
HETATM   12  N   UNK A   1      -8.875  13.496  66.410  1.00  0.00    -0.449 N  
HETATM   13  H   UNK A   1      -8.801  13.746  65.424  1.00  0.00     0.000 HD 
BRANCH  12  14
HETATM   14  C   UNK A   1      -8.663  14.527  67.421  1.00  0.00    -0.199 C  
BRANCH  14  15
HETATM   15  C   UNK A   1      -9.999  15.266  67.632  1.00  0.00    -0.222 C  
ATOM     16  H   GLY A   2      -9.984  14.717  69.649  1.00  0.00     0.000 HD 
ATOM     17  N   GLY A   2     -10.525  15.167  68.910  1.00  0.00    -0.232 N  
HETATM   18  O   UNK A   1     -10.510  15.964  66.761  1.00  0.00    -0.301 OA 
BRANCH  17  19
ATOM     19  CA  GLY A   2     -11.860  15.707  69.204  1.00  0.00    -0.362 C  
ATOM     20  C   GLY A   2     -12.287  15.519  70.658  1.00  0.00    -0.416 C  
ATOM     21  O   GLY A   2     -11.363  14.883  71.417  1.00  0.00    -0.304 OA 
ATOM     22  OXT GLY A   2     -13.373  15.865  71.099  1.00  0.00    -0.516 OA 
ENDBRANCH  17  19
ENDBRANCH  14  15
BRANCH  14  23
HETATM   23  C   UNK A   1      -7.625  15.583  67.008  1.00  0.00    -0.193 C  
HETATM   24  S   UNK A   1      -7.391  16.963  68.175  1.00  0.00    -0.186 SA 
HETATM   25  H   UNK A   1      -6.452  17.917  67.801  1.00  0.00     0.000 H  
ENDBRANCH  14  23
ENDBRANCH  12  14
ENDBRANCH   9  10
ENDBRANCH   8   9
ENDBRANCH   2   8
TORSDOF 7
ENDMDL
MODEL       53
REMARK 921   NORMALIZED FREE ENERGY PREDICTED BY IDOCK:   -5.26 KCAL/MOL
REMARK 922        TOTAL FREE ENERGY PREDICTED BY IDOCK:   -7.98 KCAL/MOL
REMARK 923 INTER-LIGAND FREE ENERGY PREDICTED BY IDOCK:   -7.43 KCAL/MOL
REMARK 924 INTRA-LIGAND FREE ENERGY PREDICTED BY IDOCK:   -0.55 KCAL/MOL
REMARK 927      BINDING AFFINITY PREDICTED BY RF-SCORE:    0.00 PKD
ROOT
HETATM    1  N   UNK A   1     -12.770  11.687  71.306  1.00  0.00    -0.383 NA 
HETATM    2  C   UNK A   1     -12.189  11.088  70.068  1.00  0.00    -0.343 C  
HETATM    3  H2  UNK A   1     -13.206  12.586  71.107  1.00  0.00     0.000 HD 
HETATM    4  H1  UNK A   1     -13.422  11.062  71.781  1.00  0.00     0.000 HD 
HETATM    5  O   UNK A   1     -11.731   9.422  71.723  1.00  0.00    -0.371 OA 
HETATM    6  C   UNK A   1     -11.521   9.747  70.421  1.00  0.00    -0.280 C  
HETATM    7  O   UNK A   1     -10.861   9.067  69.652  1.00  0.00    -0.231 OA 
ENDROOT
BRANCH   2   8
HETATM    8  C   UNK A   1     -11.209  12.026  69.356  1.00  0.00    -0.263 C  
BRANCH   8   9
HETATM    9  C   UNK A   1     -11.872  13.167  68.580  1.00  0.00    -0.377 C  
BRANCH   9  10
HETATM   10  C   UNK A   1     -11.151  13.392  67.271  1.00  0.00    -0.282 C  
HETATM   11  O   UNK A   1     -10.152  12.751  66.954  1.00  0.00    -0.227 OA 
HETATM   12  N   UNK A   1     -11.714  14.340  66.458  1.00  0.00    -0.379 N  
HETATM   13  H   UNK A   1     -12.545  14.837  66.778  1.00  0.00     0.000 HD 
BRANCH  12  14
HETATM   14  C   UNK A   1     -11.157  14.659  65.148  1.00  0.00    -0.377 C  
BRANCH  14  15
HETATM   15  C   UNK A   1     -10.926  16.181  65.089  1.00  0.00    -0.316 C  
ATOM     16  H   GLY A   2      -9.872  16.093  66.892  1.00  0.00     0.000 HD 
ATOM     17  N   GLY A   2     -10.256  16.713  66.178  1.00  0.00    -0.335 N  
HETATM   18  O   UNK A   1     -11.230  16.856  64.108  1.00  0.00    -1.176 OA 
BRANCH  17  19
ATOM     19  CA  GLY A   2     -10.096  18.168  66.310  1.00  0.00    -0.371 C  
ATOM     20  C   GLY A   2      -8.637  18.621  66.342  1.00  0.00    -0.271 C  
ATOM     21  O   GLY A   2      -7.751  17.601  66.249  1.00  0.00    -0.266 OA 
ATOM     22  OXT GLY A   2      -8.288  19.783  66.481  1.00  0.00    -0.311 OA 
ENDBRANCH  17  19
ENDBRANCH  14  15
BRANCH  14  23
HETATM   23  C   UNK A   1     -12.093  14.300  63.983  1.00  0.00    -0.316 C  
HETATM   24  S   UNK A   1     -12.073  12.555  63.460  1.00  0.00    -0.553 SA 
HETATM   25  H   UNK A   1     -12.920  12.230  62.407  1.00  0.00     0.000 H  
ENDBRANCH  14  23
ENDBRANCH  12  14
ENDBRANCH   9  10
ENDBRANCH   8   9
ENDBRANCH   2   8
TORSDOF 7
ENDMDL
MODEL       54
REMARK 921   NORMALIZED FREE ENERGY PREDICTED BY IDOCK:   -5.25 KCAL/MOL
REMARK 922        TOTAL FREE ENERGY PREDICTED BY IDOCK:   -7.96 KCAL/MOL
REMARK 923 INTER-LIGAND FREE ENERGY PREDICTED BY IDOCK:   -7.28 KCAL/MOL
REMARK 924 INTRA-LIGAND FREE ENERGY PREDICTED BY IDOCK:   -0.69 KCAL/MOL
REMARK 927      BINDING AFFINITY PREDICTED BY RF-SCORE:    0.00 PKD
ROOT
HETATM    1  N   UNK A   1     -10.236  13.543  64.212  1.00  0.00    -0.747 NA 
HETATM    2  C   UNK A   1     -11.179  12.470  64.644  1.00  0.00    -0.312 C  
HETATM    3  H2  UNK A   1      -9.342  13.460  64.694  1.00  0.00     0.000 HD 
HETATM    4  H1  UNK A   1     -10.104  13.572  63.201  1.00  0.00     0.000 HD 
HETATM    5  O   UNK A   1     -12.450  13.655  63.001  1.00  0.00    -0.719 OA 
HETATM    6  C   UNK A   1     -12.520  12.650  63.911  1.00  0.00    -0.407 C  
HETATM    7  O   UNK A   1     -13.531  12.002  64.127  1.00  0.00    -0.672 OA 
ENDROOT
BRANCH   2   8
HETATM    8  C   UNK A   1     -11.378  12.427  66.163  1.00  0.00    -0.398 C  
BRANCH   8   9
HETATM    9  C   UNK A   1     -10.389  13.286  66.957  1.00  0.00    -0.246 C  
BRANCH   9  10
HETATM   10  C   UNK A   1     -11.099  14.484  67.544  1.00  0.00    -0.307 C  
HETATM   11  O   UNK A   1     -12.304  14.668  67.401  1.00  0.00    -0.193 OA 
HETATM   12  N   UNK A   1     -10.300  15.328  68.269  1.00  0.00    -0.231 N  
HETATM   13  H   UNK A   1      -9.304  15.120  68.353  1.00  0.00     0.000 HD 
BRANCH  12  14
HETATM   14  C   UNK A   1     -10.832  16.518  68.925  1.00  0.00    -0.336 C  
BRANCH  14  15
HETATM   15  C   UNK A   1      -9.805  17.654  68.754  1.00  0.00    -0.334 C  
ATOM     16  H   GLY A   2      -8.573  16.376  67.651  1.00  0.00     0.000 HD 
ATOM     17  N   GLY A   2      -8.650  17.300  68.077  1.00  0.00    -0.227 N  
HETATM   18  O   UNK A   1     -10.034  18.807  69.110  1.00  0.00    -0.359 OA 
BRANCH  17  19
ATOM     19  CA  GLY A   2      -7.535  18.251  67.969  1.00  0.00    -0.241 C  
ATOM     20  C   GLY A   2      -6.978  18.380  66.553  1.00  0.00    -0.216 C  
ATOM     21  O   GLY A   2      -7.606  17.591  65.649  1.00  0.00    -0.480 OA 
ATOM     22  OXT GLY A   2      -6.028  19.090  66.257  1.00  0.00    -0.160 OA 
ENDBRANCH  17  19
ENDBRANCH  14  15
BRANCH  14  23
HETATM   23  C   UNK A   1     -11.054  16.335  70.435  1.00  0.00    -0.311 C  
HETATM   24  S   UNK A   1     -12.691  15.700  70.924  1.00  0.00    -0.379 SA 
HETATM   25  H   UNK A   1     -12.892  15.534  72.289  1.00  0.00     0.000 H  
ENDBRANCH  14  23
ENDBRANCH  12  14
ENDBRANCH   9  10
ENDBRANCH   8   9
ENDBRANCH   2   8
TORSDOF 7
ENDMDL
MODEL       55
REMARK 921   NORMALIZED FREE ENERGY PREDICTED BY IDOCK:   -5.25 KCAL/MOL
REMARK 922        TOTAL FREE ENERGY PREDICTED BY IDOCK:   -7.96 KCAL/MOL
REMARK 923 INTER-LIGAND FREE ENERGY PREDICTED BY IDOCK:   -7.41 KCAL/MOL
REMARK 924 INTRA-LIGAND FREE ENERGY PREDICTED BY IDOCK:   -0.56 KCAL/MOL
REMARK 927      BINDING AFFINITY PREDICTED BY RF-SCORE:    0.00 PKD
ROOT
HETATM    1  N   UNK A   1     -12.466  14.588  63.670  1.00  0.00    -1.078 NA 
HETATM    2  C   UNK A   1     -11.675  14.015  64.799  1.00  0.00    -0.394 C  
HETATM    3  H2  UNK A   1     -12.109  15.505  63.403  1.00  0.00     0.000 HD 
HETATM    4  H1  UNK A   1     -12.513  13.966  62.863  1.00  0.00     0.000 HD 
HETATM    5  O   UNK A   1     -13.259  12.284  64.335  1.00  0.00    -0.806 OA 
HETATM    6  C   UNK A   1     -12.263  12.646  65.184  1.00  0.00    -0.481 C  
HETATM    7  O   UNK A   1     -11.912  11.974  66.140  1.00  0.00    -0.581 OA 
ENDROOT
BRANCH   2   8
HETATM    8  C   UNK A   1     -11.604  14.949  66.011  1.00  0.00    -0.226 C  
BRANCH   8   9
HETATM    9  C   UNK A   1     -10.216  15.056  66.650  1.00  0.00    -0.271 C  
BRANCH   9  10
HETATM   10  C   UNK A   1     -10.077  16.378  67.369  1.00  0.00    -0.262 C  
HETATM   11  O   UNK A   1     -10.970  16.838  68.075  1.00  0.00    -0.356 OA 
HETATM   12  N   UNK A   1      -8.871  17.005  67.195  1.00  0.00    -0.213 N  
HETATM   13  H   UNK A   1      -8.168  16.570  66.597  1.00  0.00     0.000 HD 
BRANCH  12  14
HETATM   14  C   UNK A   1      -8.564  18.277  67.841  1.00  0.00    -0.258 C  
BRANCH  14  15
HETATM   15  C   UNK A   1      -8.290  19.316  66.736  1.00  0.00    -0.296 C  
ATOM     16  H   GLY A   2      -6.240  19.186  67.119  1.00  0.00     0.000 HD 
ATOM     17  N   GLY A   2      -6.961  19.674  66.588  1.00  0.00    -0.200 N  
HETATM   18  O   UNK A   1      -9.172  19.725  65.985  1.00  0.00    -0.369 OA 
BRANCH  17  19
ATOM     19  CA  GLY A   2      -6.585  20.756  65.667  1.00  0.00    -0.166 C  
ATOM     20  C   GLY A   2      -6.131  20.260  64.296  1.00  0.00    -0.273 C  
ATOM     21  O   GLY A   2      -6.149  18.911  64.174  1.00  0.00    -0.444 OA 
ATOM     22  OXT GLY A   2      -5.743  20.995  63.400  1.00  0.00    -0.231 OA 
ENDBRANCH  17  19
ENDBRANCH  14  15
BRANCH  14  23
HETATM   23  C   UNK A   1      -7.312  18.223  68.730  1.00  0.00    -0.284 C  
HETATM   24  S   UNK A   1      -6.805  16.563  69.286  1.00  0.00    -0.217 SA 
HETATM   25  H   UNK A   1      -5.673  16.514  70.090  1.00  0.00     0.000 H  
ENDBRANCH  14  23
ENDBRANCH  12  14
ENDBRANCH   9  10
ENDBRANCH   8   9
ENDBRANCH   2   8
TORSDOF 7
ENDMDL
MODEL       56
REMARK 921   NORMALIZED FREE ENERGY PREDICTED BY IDOCK:   -5.24 KCAL/MOL
REMARK 922        TOTAL FREE ENERGY PREDICTED BY IDOCK:   -7.95 KCAL/MOL
REMARK 923 INTER-LIGAND FREE ENERGY PREDICTED BY IDOCK:   -7.22 KCAL/MOL
REMARK 924 INTRA-LIGAND FREE ENERGY PREDICTED BY IDOCK:   -0.73 KCAL/MOL
REMARK 927      BINDING AFFINITY PREDICTED BY RF-SCORE:    0.00 PKD
ROOT
HETATM    1  N   UNK A   1     -12.762  11.286  71.226  1.00  0.00    -0.415 NA 
HETATM    2  C   UNK A   1     -12.156  11.067  69.880  1.00  0.00    -0.361 C  
HETATM    3  H2  UNK A   1     -13.556  11.922  71.170  1.00  0.00     0.000 HD 
HETATM    4  H1  UNK A   1     -13.023  10.415  71.690  1.00  0.00     0.000 HD 
HETATM    5  O   UNK A   1     -10.827   9.663  71.288  1.00  0.00    -0.350 OA 
HETATM    6  C   UNK A   1     -10.949  10.123  70.016  1.00  0.00    -0.307 C  
HETATM    7  O   UNK A   1     -10.175   9.837  69.117  1.00  0.00    -0.180 OA 
ENDROOT
BRANCH   2   8
HETATM    8  C   UNK A   1     -11.763  12.374  69.184  1.00  0.00    -0.376 C  
BRANCH   8   9
HETATM    9  C   UNK A   1     -11.950  13.631  70.040  1.00  0.00    -0.413 C  
BRANCH   9  10
HETATM   10  C   UNK A   1     -11.701  14.867  69.207  1.00  0.00    -0.316 C  
HETATM   11  O   UNK A   1     -12.271  15.932  69.427  1.00  0.00    -0.284 OA 
HETATM   12  N   UNK A   1     -10.773  14.713  68.211  1.00  0.00    -0.235 N  
HETATM   13  H   UNK A   1     -10.333  13.802  68.080  1.00  0.00     0.000 HD 
BRANCH  12  14
HETATM   14  C   UNK A   1     -10.396  15.816  67.333  1.00  0.00    -0.282 C  
BRANCH  14  15
HETATM   15  C   UNK A   1     -10.635  15.367  65.879  1.00  0.00    -0.339 C  
ATOM     16  H   GLY A   2     -11.095  13.441  66.547  1.00  0.00     0.000 HD 
ATOM     17  N   GLY A   2     -10.945  14.026  65.724  1.00  0.00    -0.291 N  
HETATM   18  O   UNK A   1     -10.641  16.158  64.938  1.00  0.00    -0.622 OA 
BRANCH  17  19
ATOM     19  CA  GLY A   2     -11.059  13.443  64.380  1.00  0.00    -0.388 C  
ATOM     20  C   GLY A   2     -12.395  12.748  64.128  1.00  0.00    -0.407 C  
ATOM     21  O   GLY A   2     -13.235  12.786  65.189  1.00  0.00    -0.686 OA 
ATOM     22  OXT GLY A   2     -12.676  12.169  63.089  1.00  0.00    -0.621 OA 
ENDBRANCH  17  19
ENDBRANCH  14  15
BRANCH  14  23
HETATM   23  C   UNK A   1      -8.914  16.207  67.446  1.00  0.00    -0.191 C  
HETATM   24  S   UNK A   1      -7.923  15.228  68.621  1.00  0.00    -0.161 SA 
HETATM   25  H   UNK A   1      -6.584  15.582  68.724  1.00  0.00     0.000 H  
ENDBRANCH  14  23
ENDBRANCH  12  14
ENDBRANCH   9  10
ENDBRANCH   8   9
ENDBRANCH   2   8
TORSDOF 7
ENDMDL
MODEL       57
REMARK 921   NORMALIZED FREE ENERGY PREDICTED BY IDOCK:   -5.23 KCAL/MOL
REMARK 922        TOTAL FREE ENERGY PREDICTED BY IDOCK:   -7.93 KCAL/MOL
REMARK 923 INTER-LIGAND FREE ENERGY PREDICTED BY IDOCK:   -6.96 KCAL/MOL
REMARK 924 INTRA-LIGAND FREE ENERGY PREDICTED BY IDOCK:   -0.97 KCAL/MOL
REMARK 927      BINDING AFFINITY PREDICTED BY RF-SCORE:    0.00 PKD
ROOT
HETATM    1  N   UNK A   1      -8.764  20.648  66.942  1.00  0.00    -0.572 NA 
HETATM    2  C   UNK A   1      -8.758  19.307  66.286  1.00  0.00    -0.321 C  
HETATM    3  H2  UNK A   1      -7.817  20.942  67.180  1.00  0.00     0.000 HD 
HETATM    4  H1  UNK A   1      -9.237  21.359  66.386  1.00  0.00     0.000 HD 
HETATM    5  O   UNK A   1     -11.077  19.892  66.265  1.00  0.00    -0.227 OA 
HETATM    6  C   UNK A   1     -10.206  18.894  65.968  1.00  0.00    -0.387 C  
HETATM    7  O   UNK A   1     -10.547  17.806  65.533  1.00  0.00    -0.632 OA 
ENDROOT
BRANCH   2   8
HETATM    8  C   UNK A   1      -8.047  18.238  67.122  1.00  0.00    -0.232 C  
BRANCH   8   9
HETATM    9  C   UNK A   1      -7.387  17.125  66.303  1.00  0.00    -0.326 C  
BRANCH   9  10
HETATM   10  C   UNK A   1      -7.654  15.782  66.941  1.00  0.00    -0.200 C  
HETATM   11  O   UNK A   1      -6.757  14.977  67.176  1.00  0.00    -0.273 OA 
HETATM   12  N   UNK A   1      -8.965  15.548  67.263  1.00  0.00    -0.194 N  
HETATM   13  H   UNK A   1      -9.664  16.258  67.044  1.00  0.00     0.000 HD 
BRANCH  12  14
HETATM   14  C   UNK A   1      -9.390  14.311  67.910  1.00  0.00    -0.198 C  
BRANCH  14  15
HETATM   15  C   UNK A   1      -9.795  13.314  66.808  1.00  0.00    -0.264 C  
ATOM     16  H   GLY A   2     -11.720  14.128  66.777  1.00  0.00     0.000 HD 
ATOM     17  N   GLY A   2     -11.121  13.386  66.413  1.00  0.00    -0.296 N  
HETATM   18  O   UNK A   1      -8.983  12.575  66.258  1.00  0.00    -0.138 OA 
BRANCH  17  19
ATOM     19  CA  GLY A   2     -11.668  12.399  65.473  1.00  0.00    -0.407 C  
ATOM     20  C   GLY A   2     -12.328  13.025  64.246  1.00  0.00    -0.366 C  
ATOM     21  O   GLY A   2     -12.298  14.379  64.246  1.00  0.00    -0.602 OA 
ATOM     22  OXT GLY A   2     -12.874  12.381  63.363  1.00  0.00    -0.732 OA 
ENDBRANCH  17  19
ENDBRANCH  14  15
BRANCH  14  23
HETATM   23  C   UNK A   1     -10.610  14.490  68.827  1.00  0.00    -0.248 C  
HETATM   24  S   UNK A   1     -10.955  16.197  69.364  1.00  0.00    -0.350 SA 
HETATM   25  H   UNK A   1     -12.058  16.360  70.193  1.00  0.00     0.000 H  
ENDBRANCH  14  23
ENDBRANCH  12  14
ENDBRANCH   9  10
ENDBRANCH   8   9
ENDBRANCH   2   8
TORSDOF 7
ENDMDL
MODEL       58
REMARK 921   NORMALIZED FREE ENERGY PREDICTED BY IDOCK:   -5.21 KCAL/MOL
REMARK 922        TOTAL FREE ENERGY PREDICTED BY IDOCK:   -7.91 KCAL/MOL
REMARK 923 INTER-LIGAND FREE ENERGY PREDICTED BY IDOCK:   -7.29 KCAL/MOL
REMARK 924 INTRA-LIGAND FREE ENERGY PREDICTED BY IDOCK:   -0.62 KCAL/MOL
REMARK 927      BINDING AFFINITY PREDICTED BY RF-SCORE:    0.00 PKD
ROOT
HETATM    1  N   UNK A   1     -10.195  14.214  64.735  1.00  0.00    -0.579 NA 
HETATM    2  C   UNK A   1     -10.693  12.925  64.169  1.00  0.00    -0.415 C  
HETATM    3  H2  UNK A   1      -9.252  14.108  65.108  1.00  0.00     0.000 HD 
HETATM    4  H1  UNK A   1     -10.240  14.984  64.068  1.00  0.00     0.000 HD 
HETATM    5  O   UNK A   1     -12.504  14.425  63.734  1.00  0.00    -0.814 OA 
HETATM    6  C   UNK A   1     -12.125  13.125  63.643  1.00  0.00    -0.513 C  
HETATM    7  O   UNK A   1     -12.849  12.237  63.222  1.00  0.00    -0.719 OA 
ENDROOT
BRANCH   2   8
HETATM    8  C   UNK A   1     -10.626  11.768  65.172  1.00  0.00    -0.332 C  
BRANCH   8   9
HETATM    9  C   UNK A   1     -11.764  11.749  66.196  1.00  0.00    -0.106 C  
BRANCH   9  10
HETATM   10  C   UNK A   1     -11.206  11.889  67.594  1.00  0.00    -0.276 C  
HETATM   11  O   UNK A   1     -10.355  12.727  67.879  1.00  0.00    -0.215 OA 
HETATM   12  N   UNK A   1     -11.743  11.031  68.517  1.00  0.00    -0.332 N  
HETATM   13  H   UNK A   1     -12.449  10.358  68.217  1.00  0.00     0.000 HD 
BRANCH  12  14
HETATM   14  C   UNK A   1     -11.334  11.053  69.917  1.00  0.00    -0.287 C  
BRANCH  14  15
HETATM   15  C   UNK A   1     -10.880   9.632  70.301  1.00  0.00    -0.285 C  
ATOM     16  H   GLY A   2     -12.000   9.748  72.062  1.00  0.00     0.000 HD 
ATOM     17  N   GLY A   2     -11.334   9.186  71.531  1.00  0.00    -0.342 N  
HETATM   18  O   UNK A   1     -10.241   8.915  69.534  1.00  0.00    -0.193 OA 
BRANCH  17  19
ATOM     19  CA  GLY A   2     -10.859   7.906  72.075  1.00  0.00    -0.255 C  
ATOM     20  C   GLY A   2     -11.914   6.801  72.046  1.00  0.00    -0.317 C  
ATOM     21  O   GLY A   2     -13.101   7.199  71.530  1.00  0.00    -0.381 OA 
ATOM     22  OXT GLY A   2     -11.733   5.675  72.483  1.00  0.00    -0.297 OA 
ENDBRANCH  17  19
ENDBRANCH  14  15
BRANCH  14  23
HETATM   23  C   UNK A   1     -12.469  11.439  70.879  1.00  0.00    -0.379 C  
HETATM   24  S   UNK A   1     -12.706  13.226  71.148  1.00  0.00    -0.253 SA 
HETATM   25  H   UNK A   1     -13.732  13.575  72.018  1.00  0.00     0.000 H  
ENDBRANCH  14  23
ENDBRANCH  12  14
ENDBRANCH   9  10
ENDBRANCH   8   9
ENDBRANCH   2   8
TORSDOF 7
ENDMDL
MODEL       59
REMARK 921   NORMALIZED FREE ENERGY PREDICTED BY IDOCK:   -5.19 KCAL/MOL
REMARK 922        TOTAL FREE ENERGY PREDICTED BY IDOCK:   -7.87 KCAL/MOL
REMARK 923 INTER-LIGAND FREE ENERGY PREDICTED BY IDOCK:   -6.85 KCAL/MOL
REMARK 924 INTRA-LIGAND FREE ENERGY PREDICTED BY IDOCK:   -1.02 KCAL/MOL
REMARK 927      BINDING AFFINITY PREDICTED BY RF-SCORE:    0.00 PKD
ROOT
HETATM    1  N   UNK A   1     -10.232  13.917  64.267  1.00  0.00    -0.703 NA 
HETATM    2  C   UNK A   1     -10.781  12.561  63.972  1.00  0.00    -0.415 C  
HETATM    3  H2  UNK A   1      -9.273  13.856  64.608  1.00  0.00     0.000 HD 
HETATM    4  H1  UNK A   1     -10.296  14.554  63.473  1.00  0.00     0.000 HD 
HETATM    5  O   UNK A   1     -12.585  14.006  63.354  1.00  0.00    -0.845 OA 
HETATM    6  C   UNK A   1     -12.235  12.701  63.486  1.00  0.00    -0.547 C  
HETATM    7  O   UNK A   1     -12.996  11.772  63.270  1.00  0.00    -0.633 OA 
ENDROOT
BRANCH   2   8
HETATM    8  C   UNK A   1     -10.685  11.606  65.166  1.00  0.00    -0.351 C  
BRANCH   8   9
HETATM    9  C   UNK A   1     -11.373  12.108  66.439  1.00  0.00    -0.411 C  
BRANCH   9  10
HETATM   10  C   UNK A   1     -10.355  12.293  67.540  1.00  0.00    -0.203 C  
HETATM   11  O   UNK A   1     -10.447  11.718  68.621  1.00  0.00    -0.215 OA 
HETATM   12  N   UNK A   1      -9.313  13.125  67.227  1.00  0.00    -0.216 N  
HETATM   13  H   UNK A   1      -9.293  13.571  66.310  1.00  0.00     0.000 HD 
BRANCH  12  14
HETATM   14  C   UNK A   1      -8.230  13.390  68.168  1.00  0.00    -0.160 C  
BRANCH  14  15
HETATM   15  C   UNK A   1      -8.263  14.890  68.518  1.00  0.00    -0.153 C  
ATOM     16  H   GLY A   2      -9.335  15.278  66.767  1.00  0.00     0.000 HD 
ATOM     17  N   GLY A   2      -8.868  15.698  67.571  1.00  0.00    -0.177 N  
HETATM   18  O   UNK A   1      -7.865  15.323  69.597  1.00  0.00    -0.220 OA 
BRANCH  17  19
ATOM     19  CA  GLY A   2      -8.841  17.160  67.719  1.00  0.00    -0.225 C  
ATOM     20  C   GLY A   2     -10.185  17.757  68.132  1.00  0.00    -0.382 C  
ATOM     21  O   GLY A   2     -11.165  16.834  68.282  1.00  0.00    -0.333 OA 
ATOM     22  OXT GLY A   2     -10.383  18.954  68.274  1.00  0.00    -0.369 OA 
ENDBRANCH  17  19
ENDBRANCH  14  15
BRANCH  14  23
HETATM   23  C   UNK A   1      -6.836  13.091  67.595  1.00  0.00    -0.154 C  
HETATM   24  S   UNK A   1      -6.572  11.390  66.998  1.00  0.00    -0.136 SA 
HETATM   25  H   UNK A   1      -5.312  11.119  66.479  1.00  0.00     0.000 H  
ENDBRANCH  14  23
ENDBRANCH  12  14
ENDBRANCH   9  10
ENDBRANCH   8   9
ENDBRANCH   2   8
TORSDOF 7
ENDMDL
MODEL       60
REMARK 921   NORMALIZED FREE ENERGY PREDICTED BY IDOCK:   -5.17 KCAL/MOL
REMARK 922        TOTAL FREE ENERGY PREDICTED BY IDOCK:   -7.84 KCAL/MOL
REMARK 923 INTER-LIGAND FREE ENERGY PREDICTED BY IDOCK:   -7.24 KCAL/MOL
REMARK 924 INTRA-LIGAND FREE ENERGY PREDICTED BY IDOCK:   -0.61 KCAL/MOL
REMARK 927      BINDING AFFINITY PREDICTED BY RF-SCORE:    0.00 PKD
ROOT
HETATM    1  N   UNK A   1     -11.386  13.878  70.336  1.00  0.00    -0.495 NA 
HETATM    2  C   UNK A   1     -12.632  13.163  70.741  1.00  0.00    -0.260 C  
HETATM    3  H2  UNK A   1     -10.940  13.414  69.546  1.00  0.00     0.000 HD 
HETATM    4  H1  UNK A   1     -11.542  14.866  70.138  1.00  0.00     0.000 HD 
HETATM    5  O   UNK A   1     -12.577  15.020  72.249  1.00  0.00    -0.313 OA 
HETATM    6  C   UNK A   1     -13.257  13.883  71.950  1.00  0.00    -0.397 C  
HETATM    7  O   UNK A   1     -14.219  13.484  72.585  1.00  0.00    -0.751 OA 
ENDROOT
BRANCH   2   8
HETATM    8  C   UNK A   1     -12.398  11.679  71.040  1.00  0.00    -0.405 C  
BRANCH   8   9
HETATM    9  C   UNK A   1     -12.591  10.751  69.837  1.00  0.00    -0.199 C  
BRANCH   9  10
HETATM   10  C   UNK A   1     -11.252  10.404  69.229  1.00  0.00    -0.248 C  
HETATM   11  O   UNK A   1     -10.204  10.483  69.864  1.00  0.00    -0.197 OA 
HETATM   12  N   UNK A   1     -11.303   9.970  67.931  1.00  0.00    -0.490 N  
HETATM   13  H   UNK A   1     -12.207   9.925  67.458  1.00  0.00     0.000 HD 
BRANCH  12  14
HETATM   14  C   UNK A   1     -10.103   9.570  67.204  1.00  0.00    -0.229 C  
BRANCH  14  15
HETATM   15  C   UNK A   1     -10.148  10.229  65.813  1.00  0.00    -0.255 C  
ATOM     16  H   GLY A   2     -11.031  11.931  66.646  1.00  0.00     0.000 HD 
ATOM     17  N   GLY A   2     -10.749  11.477  65.776  1.00  0.00    -0.273 N  
HETATM   18  O   UNK A   1      -9.611   9.727  64.829  1.00  0.00    -0.293 OA 
BRANCH  17  19
ATOM     19  CA  GLY A   2     -10.980  12.149  64.491  1.00  0.00    -0.314 C  
ATOM     20  C   GLY A   2     -12.173  13.102  64.507  1.00  0.00    -0.406 C  
ATOM     21  O   GLY A   2     -12.810  13.154  65.701  1.00  0.00    -0.444 OA 
ATOM     22  OXT GLY A   2     -12.556  13.731  63.531  1.00  0.00    -0.814 OA 
ENDBRANCH  17  19
ENDBRANCH  14  15
BRANCH  14  23
HETATM   23  C   UNK A   1     -10.001   8.053  66.982  1.00  0.00    -0.254 C  
HETATM   24  S   UNK A   1     -10.343   7.013  68.439  1.00  0.00    -0.202 SA 
HETATM   25  H   UNK A   1     -10.252   5.641  68.238  1.00  0.00     0.000 H  
ENDBRANCH  14  23
ENDBRANCH  12  14
ENDBRANCH   9  10
ENDBRANCH   8   9
ENDBRANCH   2   8
TORSDOF 7
ENDMDL
MODEL       61
REMARK 921   NORMALIZED FREE ENERGY PREDICTED BY IDOCK:   -5.16 KCAL/MOL
REMARK 922        TOTAL FREE ENERGY PREDICTED BY IDOCK:   -7.84 KCAL/MOL
REMARK 923 INTER-LIGAND FREE ENERGY PREDICTED BY IDOCK:   -7.16 KCAL/MOL
REMARK 924 INTRA-LIGAND FREE ENERGY PREDICTED BY IDOCK:   -0.68 KCAL/MOL
REMARK 927      BINDING AFFINITY PREDICTED BY RF-SCORE:    0.00 PKD
ROOT
HETATM    1  N   UNK A   1     -10.038  13.046  64.428  1.00  0.00    -0.610 NA 
HETATM    2  C   UNK A   1     -11.084  12.014  64.693  1.00  0.00    -0.322 C  
HETATM    3  H2  UNK A   1      -9.152  12.786  64.858  1.00  0.00     0.000 HD 
HETATM    4  H1  UNK A   1      -9.918  13.242  63.434  1.00  0.00     0.000 HD 
HETATM    5  O   UNK A   1     -12.244  13.600  63.328  1.00  0.00    -0.637 OA 
HETATM    6  C   UNK A   1     -12.408  12.459  64.047  1.00  0.00    -0.488 C  
HETATM    7  O   UNK A   1     -13.480  11.891  64.178  1.00  0.00    -0.591 OA 
ENDROOT
BRANCH   2   8
HETATM    8  C   UNK A   1     -11.266  11.721  66.186  1.00  0.00    -0.363 C  
BRANCH   8   9
HETATM    9  C   UNK A   1     -11.929  12.851  66.980  1.00  0.00    -0.390 C  
BRANCH   9  10
HETATM   10  C   UNK A   1     -11.580  12.728  68.445  1.00  0.00    -0.325 C  
HETATM   11  O   UNK A   1     -10.966  13.603  69.049  1.00  0.00    -0.252 OA 
HETATM   12  N   UNK A   1     -12.028  11.583  69.049  1.00  0.00    -0.333 N  
HETATM   13  H   UNK A   1     -12.534  10.894  68.493  1.00  0.00     0.000 HD 
BRANCH  12  14
HETATM   14  C   UNK A   1     -11.799  11.321  70.467  1.00  0.00    -0.324 C  
BRANCH  14  15
HETATM   15  C   UNK A   1     -11.445   9.829  70.622  1.00  0.00    -0.324 C  
ATOM     16  H   GLY A   2     -10.523   9.851  68.746  1.00  0.00     0.000 HD 
ATOM     17  N   GLY A   2     -10.809   9.263  69.530  1.00  0.00    -0.223 N  
HETATM   18  O   UNK A   1     -11.630   9.215  71.670  1.00  0.00    -0.330 OA 
BRANCH  17  19
ATOM     19  CA  GLY A   2     -10.544   7.818  69.496  1.00  0.00    -0.221 C  
ATOM     20  C   GLY A   2     -10.528   7.234  68.085  1.00  0.00    -0.198 C  
ATOM     21  O   GLY A   2     -10.769   8.149  67.116  1.00  0.00    -0.316 OA 
ATOM     22  OXT GLY A   2     -10.362   6.048  67.841  1.00  0.00    -0.162 OA 
ENDBRANCH  17  19
ENDBRANCH  14  15
BRANCH  14  23
HETATM   23  C   UNK A   1     -13.034  11.585  71.343  1.00  0.00    -0.348 C  
HETATM   24  S   UNK A   1     -13.284  13.314  71.860  1.00  0.00    -0.405 SA 
HETATM   25  H   UNK A   1     -14.400  13.553  72.652  1.00  0.00     0.000 H  
ENDBRANCH  14  23
ENDBRANCH  12  14
ENDBRANCH   9  10
ENDBRANCH   8   9
ENDBRANCH   2   8
TORSDOF 7
ENDMDL
MODEL       62
REMARK 921   NORMALIZED FREE ENERGY PREDICTED BY IDOCK:   -5.15 KCAL/MOL
REMARK 922        TOTAL FREE ENERGY PREDICTED BY IDOCK:   -7.82 KCAL/MOL
REMARK 923 INTER-LIGAND FREE ENERGY PREDICTED BY IDOCK:   -7.03 KCAL/MOL
REMARK 924 INTRA-LIGAND FREE ENERGY PREDICTED BY IDOCK:   -0.79 KCAL/MOL
REMARK 927      BINDING AFFINITY PREDICTED BY RF-SCORE:    0.00 PKD
ROOT
HETATM    1  N   UNK A   1      -7.584  19.072  68.656  1.00  0.00    -0.325 NA 
HETATM    2  C   UNK A   1      -8.162  19.755  67.461  1.00  0.00    -0.312 C  
HETATM    3  H2  UNK A   1      -6.601  18.846  68.507  1.00  0.00     0.000 HD 
HETATM    4  H1  UNK A   1      -7.709  19.605  69.517  1.00  0.00     0.000 HD 
HETATM    5  O   UNK A   1     -10.003  19.720  68.988  1.00  0.00    -0.434 OA 
HETATM    6  C   UNK A   1      -9.649  20.054  67.720  1.00  0.00    -0.384 C  
HETATM    7  O   UNK A   1     -10.429  20.505  66.897  1.00  0.00    -0.200 OA 
ENDROOT
BRANCH   2   8
HETATM    8  C   UNK A   1      -7.973  18.956  66.168  1.00  0.00    -0.256 C  
BRANCH   8   9
HETATM    9  C   UNK A   1      -7.985  17.435  66.354  1.00  0.00    -0.325 C  
BRANCH   9  10
HETATM   10  C   UNK A   1      -9.408  16.929  66.394  1.00  0.00    -0.276 C  
HETATM   11  O   UNK A   1     -10.224  17.193  65.515  1.00  0.00    -0.592 OA 
HETATM   12  N   UNK A   1      -9.706  16.132  67.468  1.00  0.00    -0.231 N  
HETATM   13  H   UNK A   1      -8.984  15.948  68.165  1.00  0.00     0.000 HD 
BRANCH  12  14
HETATM   14  C   UNK A   1     -11.028  15.540  67.644  1.00  0.00    -0.315 C  
BRANCH  14  15
HETATM   15  C   UNK A   1     -11.437  15.722  69.118  1.00  0.00    -0.380 C  
ATOM     16  H   GLY A   2     -12.460  13.900  69.060  1.00  0.00     0.000 HD 
ATOM     17  N   GLY A   2     -12.255  14.725  69.624  1.00  0.00    -0.295 N  
HETATM   18  O   UNK A   1     -10.997  16.632  69.816  1.00  0.00    -0.330 OA 
BRANCH  17  19
ATOM     19  CA  GLY A   2     -12.828  14.852  70.971  1.00  0.00    -0.362 C  
ATOM     20  C   GLY A   2     -13.097  13.510  71.649  1.00  0.00    -0.374 C  
ATOM     21  O   GLY A   2     -12.765  12.441  70.887  1.00  0.00    -0.287 OA 
ATOM     22  OXT GLY A   2     -13.603  13.395  72.756  1.00  0.00    -0.656 OA 
ENDBRANCH  17  19
ENDBRANCH  14  15
BRANCH  14  23
HETATM   23  C   UNK A   1     -11.065  14.032  67.348  1.00  0.00    -0.303 C  
HETATM   24  S   UNK A   1     -11.795  13.556  65.748  1.00  0.00    -0.396 SA 
HETATM   25  H   UNK A   1     -11.828  12.193  65.480  1.00  0.00     0.000 H  
ENDBRANCH  14  23
ENDBRANCH  12  14
ENDBRANCH   9  10
ENDBRANCH   8   9
ENDBRANCH   2   8
TORSDOF 7
ENDMDL
MODEL       63
REMARK 921   NORMALIZED FREE ENERGY PREDICTED BY IDOCK:   -5.15 KCAL/MOL
REMARK 922        TOTAL FREE ENERGY PREDICTED BY IDOCK:   -7.82 KCAL/MOL
REMARK 923 INTER-LIGAND FREE ENERGY PREDICTED BY IDOCK:   -6.98 KCAL/MOL
REMARK 924 INTRA-LIGAND FREE ENERGY PREDICTED BY IDOCK:   -0.84 KCAL/MOL
REMARK 927      BINDING AFFINITY PREDICTED BY RF-SCORE:    0.00 PKD
ROOT
HETATM    1  N   UNK A   1      -7.285  18.670  68.525  1.00  0.00    -0.282 NA 
HETATM    2  C   UNK A   1      -7.972  19.159  67.293  1.00  0.00    -0.255 C  
HETATM    3  H2  UNK A   1      -6.303  18.470  68.340  1.00  0.00     0.000 HD 
HETATM    4  H1  UNK A   1      -7.385  19.308  69.314  1.00  0.00     0.000 HD 
HETATM    5  O   UNK A   1      -9.710  19.249  68.934  1.00  0.00    -0.409 OA 
HETATM    6  C   UNK A   1      -9.454  19.424  67.612  1.00  0.00    -0.313 C  
HETATM    7  O   UNK A   1     -10.307  19.725  66.793  1.00  0.00    -0.419 OA 
ENDROOT
BRANCH   2   8
HETATM    8  C   UNK A   1      -7.823  18.201  66.107  1.00  0.00    -0.239 C  
BRANCH   8   9
HETATM    9  C   UNK A   1      -7.928  16.717  66.472  1.00  0.00    -0.334 C  
BRANCH   9  10
HETATM   10  C   UNK A   1      -9.173  16.120  65.859  1.00  0.00    -0.261 C  
HETATM   11  O   UNK A   1      -9.974  16.791  65.215  1.00  0.00    -0.546 OA 
HETATM   12  N   UNK A   1      -9.321  14.772  66.052  1.00  0.00    -0.475 N  
HETATM   13  H   UNK A   1      -8.619  14.269  66.596  1.00  0.00     0.000 HD 
BRANCH  12  14
HETATM   14  C   UNK A   1     -10.454  14.034  65.504  1.00  0.00    -0.327 C  
BRANCH  14  15
HETATM   15  C   UNK A   1     -11.565  14.008  66.571  1.00  0.00    -0.374 C  
ATOM     16  H   GLY A   2     -10.126  14.205  68.075  1.00  0.00     0.000 HD 
ATOM     17  N   GLY A   2     -11.118  14.058  67.881  1.00  0.00    -0.249 N  
HETATM   18  O   UNK A   1     -12.758  14.034  66.280  1.00  0.00    -0.414 OA 
BRANCH  17  19
ATOM     19  CA  GLY A   2     -12.065  13.899  68.992  1.00  0.00    -0.329 C  
ATOM     20  C   GLY A   2     -12.219  15.155  69.848  1.00  0.00    -0.314 C  
ATOM     21  O   GLY A   2     -11.449  16.190  69.434  1.00  0.00    -0.328 OA 
ATOM     22  OXT GLY A   2     -12.929  15.221  70.840  1.00  0.00    -0.410 OA 
ENDBRANCH  17  19
ENDBRANCH  14  15
BRANCH  14  23
HETATM   23  C   UNK A   1     -10.123  12.573  65.160  1.00  0.00    -0.246 C  
HETATM   24  S   UNK A   1     -10.578  12.031  63.481  1.00  0.00    -0.453 SA 
HETATM   25  H   UNK A   1     -10.279  10.710  63.171  1.00  0.00     0.000 H  
ENDBRANCH  14  23
ENDBRANCH  12  14
ENDBRANCH   9  10
ENDBRANCH   8   9
ENDBRANCH   2   8
TORSDOF 7
ENDMDL
MODEL       64
REMARK 921   NORMALIZED FREE ENERGY PREDICTED BY IDOCK:   -5.11 KCAL/MOL
REMARK 922        TOTAL FREE ENERGY PREDICTED BY IDOCK:   -7.77 KCAL/MOL
REMARK 923 INTER-LIGAND FREE ENERGY PREDICTED BY IDOCK:   -7.12 KCAL/MOL
REMARK 924 INTRA-LIGAND FREE ENERGY PREDICTED BY IDOCK:   -0.64 KCAL/MOL
REMARK 927      BINDING AFFINITY PREDICTED BY RF-SCORE:    0.00 PKD
ROOT
HETATM    1  N   UNK A   1     -11.712   8.251  70.497  1.00  0.00    -0.464 NA 
HETATM    2  C   UNK A   1     -11.626   9.646  71.023  1.00  0.00    -0.359 C  
HETATM    3  H2  UNK A   1     -10.821   7.956  70.099  1.00  0.00     0.000 HD 
HETATM    4  H1  UNK A   1     -12.039   7.584  71.195  1.00  0.00     0.000 HD 
HETATM    5  O   UNK A   1     -13.872   9.019  71.558  1.00  0.00    -0.380 OA 
HETATM    6  C   UNK A   1     -12.996  10.057  71.590  1.00  0.00    -0.449 C  
HETATM    7  O   UNK A   1     -13.285  11.173  71.992  1.00  0.00    -0.493 OA 
ENDROOT
BRANCH   2   8
HETATM    8  C   UNK A   1     -11.135  10.649  69.975  1.00  0.00    -0.359 C  
BRANCH   8   9
HETATM    9  C   UNK A   1     -10.739  10.024  68.634  1.00  0.00    -0.256 C  
BRANCH   9  10
HETATM   10  C   UNK A   1     -10.456  11.109  67.620  1.00  0.00    -0.196 C  
HETATM   11  O   UNK A   1      -9.371  11.210  67.053  1.00  0.00    -0.167 OA 
HETATM   12  N   UNK A   1     -11.509  11.947  67.364  1.00  0.00    -0.323 N  
HETATM   13  H   UNK A   1     -12.386  11.809  67.867  1.00  0.00     0.000 HD 
BRANCH  12  14
HETATM   14  C   UNK A   1     -11.411  13.030  66.392  1.00  0.00    -0.341 C  
BRANCH  14  15
HETATM   15  C   UNK A   1     -11.547  14.363  67.152  1.00  0.00    -0.386 C  
ATOM     16  H   GLY A   2     -11.975  13.319  68.911  1.00  0.00     0.000 HD 
ATOM     17  N   GLY A   2     -11.912  14.243  68.482  1.00  0.00    -0.338 N  
HETATM   18  O   UNK A   1     -11.263  15.444  66.641  1.00  0.00    -0.284 OA 
BRANCH  17  19
ATOM     19  CA  GLY A   2     -12.210  15.441  69.279  1.00  0.00    -0.188 C  
ATOM     20  C   GLY A   2     -12.213  15.187  70.785  1.00  0.00    -0.340 C  
ATOM     21  O   GLY A   2     -11.948  13.901  71.119  1.00  0.00    -0.297 OA 
ATOM     22  OXT GLY A   2     -12.473  16.041  71.619  1.00  0.00    -0.461 OA 
ENDBRANCH  17  19
ENDBRANCH  14  15
BRANCH  14  23
HETATM   23  C   UNK A   1     -12.523  13.001  65.331  1.00  0.00    -0.476 C  
HETATM   24  S   UNK A   1     -12.017  12.458  63.667  1.00  0.00    -0.566 SA 
HETATM   25  H   UNK A   1     -13.023  12.431  62.708  1.00  0.00     0.000 H  
ENDBRANCH  14  23
ENDBRANCH  12  14
ENDBRANCH   9  10
ENDBRANCH   8   9
ENDBRANCH   2   8
TORSDOF 7
ENDMDL
MODEL       65
REMARK 921   NORMALIZED FREE ENERGY PREDICTED BY IDOCK:   -5.11 KCAL/MOL
REMARK 922        TOTAL FREE ENERGY PREDICTED BY IDOCK:   -7.76 KCAL/MOL
REMARK 923 INTER-LIGAND FREE ENERGY PREDICTED BY IDOCK:   -7.23 KCAL/MOL
REMARK 924 INTRA-LIGAND FREE ENERGY PREDICTED BY IDOCK:   -0.54 KCAL/MOL
REMARK 927      BINDING AFFINITY PREDICTED BY RF-SCORE:    0.00 PKD
ROOT
HETATM    1  N   UNK A   1     -11.659   7.065  69.511  1.00  0.00    -0.559 NA 
HETATM    2  C   UNK A   1     -11.046   7.727  70.700  1.00  0.00    -0.256 C  
HETATM    3  H2  UNK A   1     -11.005   7.042  68.729  1.00  0.00     0.000 HD 
HETATM    4  H1  UNK A   1     -12.015   6.131  69.716  1.00  0.00     0.000 HD 
HETATM    5  O   UNK A   1     -13.207   7.093  71.506  1.00  0.00    -0.383 OA 
HETATM    6  C   UNK A   1     -12.075   7.760  71.845  1.00  0.00    -0.304 C  
HETATM    7  O   UNK A   1     -11.920   8.333  72.912  1.00  0.00    -0.316 OA 
ENDROOT
BRANCH   2   8
HETATM    8  C   UNK A   1     -10.511   9.129  70.393  1.00  0.00    -0.268 C  
BRANCH   8   9
HETATM    9  C   UNK A   1     -11.596  10.184  70.156  1.00  0.00    -0.350 C  
BRANCH   9  10
HETATM   10  C   UNK A   1     -11.047  11.312  69.313  1.00  0.00    -0.255 C  
HETATM   11  O   UNK A   1     -10.347  11.110  68.324  1.00  0.00    -0.168 OA 
HETATM   12  N   UNK A   1     -11.414  12.567  69.720  1.00  0.00    -0.492 N  
HETATM   13  H   UNK A   1     -11.999  12.668  70.549  1.00  0.00     0.000 HD 
BRANCH  12  14
HETATM   14  C   UNK A   1     -10.991  13.764  69.000  1.00  0.00    -0.243 C  
BRANCH  14  15
HETATM   15  C   UNK A   1     -11.040  14.950  69.982  1.00  0.00    -0.232 C  
ATOM     16  H   GLY A   2     -11.884  13.712  71.439  1.00  0.00     0.000 HD 
ATOM     17  N   GLY A   2     -11.618  14.670  71.209  1.00  0.00    -0.263 N  
HETATM   18  O   UNK A   1     -10.522  16.035  69.730  1.00  0.00    -0.275 OA 
BRANCH  17  19
ATOM     19  CA  GLY A   2     -11.852  15.747  72.180  1.00  0.00    -0.496 C  
ATOM     20  C   GLY A   2     -12.690  15.315  73.381  1.00  0.00    -0.537 C  
ATOM     21  O   GLY A   2     -13.075  14.017  73.335  1.00  0.00    -0.500 OA 
ATOM     22  OXT GLY A   2     -13.027  16.068  74.283  1.00  0.00    -0.613 OA 
ENDBRANCH  17  19
ENDBRANCH  14  15
BRANCH  14  23
HETATM   23  C   UNK A   1     -11.906  14.120  67.817  1.00  0.00    -0.379 C  
HETATM   24  S   UNK A   1     -11.072  14.368  66.216  1.00  0.00    -0.338 SA 
HETATM   25  H   UNK A   1     -11.899  14.690  65.147  1.00  0.00     0.000 H  
ENDBRANCH  14  23
ENDBRANCH  12  14
ENDBRANCH   9  10
ENDBRANCH   8   9
ENDBRANCH   2   8
TORSDOF 7
ENDMDL
MODEL       66
REMARK 921   NORMALIZED FREE ENERGY PREDICTED BY IDOCK:   -5.11 KCAL/MOL
REMARK 922        TOTAL FREE ENERGY PREDICTED BY IDOCK:   -7.76 KCAL/MOL
REMARK 923 INTER-LIGAND FREE ENERGY PREDICTED BY IDOCK:   -7.03 KCAL/MOL
REMARK 924 INTRA-LIGAND FREE ENERGY PREDICTED BY IDOCK:   -0.73 KCAL/MOL
REMARK 927      BINDING AFFINITY PREDICTED BY RF-SCORE:    0.00 PKD
ROOT
HETATM    1  N   UNK A   1      -9.448  11.280  69.228  1.00  0.00    -0.402 NA 
HETATM    2  C   UNK A   1     -10.575  10.803  68.373  1.00  0.00    -0.197 C  
HETATM    3  H2  UNK A   1      -9.305  10.658  70.023  1.00  0.00     0.000 HD 
HETATM    4  H1  UNK A   1      -8.581  11.410  68.706  1.00  0.00     0.000 HD 
HETATM    5  O   UNK A   1      -9.809  12.744  67.202  1.00  0.00    -0.210 OA 
HETATM    6  C   UNK A   1     -10.769  11.784  67.202  1.00  0.00    -0.241 C  
HETATM    7  O   UNK A   1     -11.679  11.736  66.390  1.00  0.00    -0.511 OA 
ENDROOT
BRANCH   2   8
HETATM    8  C   UNK A   1     -11.877  10.609  69.156  1.00  0.00    -0.287 C  
BRANCH   8   9
HETATM    9  C   UNK A   1     -11.801  11.025  70.628  1.00  0.00    -0.434 C  
BRANCH   9  10
HETATM   10  C   UNK A   1     -12.287  12.446  70.791  1.00  0.00    -0.286 C  
HETATM   11  O   UNK A   1     -13.145  12.756  71.613  1.00  0.00    -0.401 OA 
HETATM   12  N   UNK A   1     -11.678  13.361  69.973  1.00  0.00    -0.471 N  
HETATM   13  H   UNK A   1     -10.970  13.040  69.311  1.00  0.00     0.000 HD 
BRANCH  12  14
HETATM   14  C   UNK A   1     -12.012  14.780  70.021  1.00  0.00    -0.316 C  
BRANCH  14  15
HETATM   15  C   UNK A   1     -11.685  15.392  68.646  1.00  0.00    -0.354 C  
ATOM     16  H   GLY A   2     -10.381  16.748  69.557  1.00  0.00     0.000 HD 
ATOM     17  N   GLY A   2     -10.823  16.476  68.678  1.00  0.00    -0.329 N  
HETATM   18  O   UNK A   1     -12.085  14.899  67.594  1.00  0.00    -0.253 OA 
BRANCH  17  19
ATOM     19  CA  GLY A   2     -10.542  17.234  67.451  1.00  0.00    -0.303 C  
ATOM     20  C   GLY A   2     -10.141  18.685  67.710  1.00  0.00    -0.371 C  
ATOM     21  O   GLY A   2     -10.121  19.017  69.023  1.00  0.00    -0.403 OA 
ATOM     22  OXT GLY A   2      -9.902  19.493  66.825  1.00  0.00    -0.332 OA 
ENDBRANCH  17  19
ENDBRANCH  14  15
BRANCH  14  23
HETATM   23  C   UNK A   1     -11.201  15.563  71.067  1.00  0.00    -0.373 C  
HETATM   24  S   UNK A   1     -12.107  16.043  72.574  1.00  0.00    -0.563 SA 
HETATM   25  H   UNK A   1     -11.374  16.751  73.519  1.00  0.00     0.000 H  
ENDBRANCH  14  23
ENDBRANCH  12  14
ENDBRANCH   9  10
ENDBRANCH   8   9
ENDBRANCH   2   8
TORSDOF 7
ENDMDL
MODEL       67
REMARK 921   NORMALIZED FREE ENERGY PREDICTED BY IDOCK:   -5.10 KCAL/MOL
REMARK 922        TOTAL FREE ENERGY PREDICTED BY IDOCK:   -7.75 KCAL/MOL
REMARK 923 INTER-LIGAND FREE ENERGY PREDICTED BY IDOCK:   -6.91 KCAL/MOL
REMARK 924 INTRA-LIGAND FREE ENERGY PREDICTED BY IDOCK:   -0.84 KCAL/MOL
REMARK 927      BINDING AFFINITY PREDICTED BY RF-SCORE:    0.00 PKD
ROOT
HETATM    1  N   UNK A   1     -11.823   7.661  70.423  1.00  0.00    -0.490 NA 
HETATM    2  C   UNK A   1     -12.141   8.563  71.569  1.00  0.00    -0.304 C  
HETATM    3  H2  UNK A   1     -10.842   7.743  70.155  1.00  0.00     0.000 HD 
HETATM    4  H1  UNK A   1     -12.071   6.688  70.603  1.00  0.00     0.000 HD 
HETATM    5  O   UNK A   1     -14.224   7.454  71.179  1.00  0.00    -0.360 OA 
HETATM    6  C   UNK A   1     -13.632   8.424  71.922  1.00  0.00    -0.379 C  
HETATM    7  O   UNK A   1     -14.228   9.108  72.739  1.00  0.00    -0.552 OA 
ENDROOT
BRANCH   2   8
HETATM    8  C   UNK A   1     -11.768  10.024  71.299  1.00  0.00    -0.452 C  
BRANCH   8   9
HETATM    9  C   UNK A   1     -12.530  10.670  70.138  1.00  0.00    -0.342 C  
BRANCH   9  10
HETATM   10  C   UNK A   1     -11.620  10.818  68.940  1.00  0.00    -0.291 C  
HETATM   11  O   UNK A   1     -10.742  10.001  68.678  1.00  0.00    -0.209 OA 
HETATM   12  N   UNK A   1     -11.871  11.915  68.159  1.00  0.00    -0.313 N  
HETATM   13  H   UNK A   1     -12.616  12.557  68.429  1.00  0.00     0.000 HD 
BRANCH  12  14
HETATM   14  C   UNK A   1     -11.101  12.192  66.950  1.00  0.00    -0.297 C  
BRANCH  14  15
HETATM   15  C   UNK A   1     -10.358  13.525  67.156  1.00  0.00    -0.250 C  
ATOM     16  H   GLY A   2     -12.164  14.562  66.979  1.00  0.00     0.000 HD 
ATOM     17  N   GLY A   2     -11.152  14.657  67.070  1.00  0.00    -0.324 N  
HETATM   18  O   UNK A   1      -9.169  13.576  67.464  1.00  0.00    -0.201 OA 
BRANCH  17  19
ATOM     19  CA  GLY A   2     -10.542  15.993  67.108  1.00  0.00    -0.305 C  
ATOM     20  C   GLY A   2     -10.722  16.708  68.446  1.00  0.00    -0.353 C  
ATOM     21  O   GLY A   2     -11.417  15.986  69.357  1.00  0.00    -0.333 OA 
ATOM     22  OXT GLY A   2     -10.322  17.840  68.672  1.00  0.00    -0.363 OA 
ENDBRANCH  17  19
ENDBRANCH  14  15
BRANCH  14  23
HETATM   23  C   UNK A   1     -11.973  12.351  65.695  1.00  0.00    -0.386 C  
HETATM   24  S   UNK A   1     -11.077  12.402  64.109  1.00  0.00    -0.410 SA 
HETATM   25  H   UNK A   1     -11.865  12.545  62.973  1.00  0.00     0.000 H  
ENDBRANCH  14  23
ENDBRANCH  12  14
ENDBRANCH   9  10
ENDBRANCH   8   9
ENDBRANCH   2   8
TORSDOF 7
ENDMDL
MODEL       68
REMARK 921   NORMALIZED FREE ENERGY PREDICTED BY IDOCK:   -5.09 KCAL/MOL
REMARK 922        TOTAL FREE ENERGY PREDICTED BY IDOCK:   -7.74 KCAL/MOL
REMARK 923 INTER-LIGAND FREE ENERGY PREDICTED BY IDOCK:   -7.14 KCAL/MOL
REMARK 924 INTRA-LIGAND FREE ENERGY PREDICTED BY IDOCK:   -0.60 KCAL/MOL
REMARK 927      BINDING AFFINITY PREDICTED BY RF-SCORE:    0.00 PKD
ROOT
HETATM    1  N   UNK A   1     -12.951  13.741  65.291  1.00  0.00    -0.754 NA 
HETATM    2  C   UNK A   1     -11.589  13.462  64.747  1.00  0.00    -0.339 C  
HETATM    3  H2  UNK A   1     -12.908  14.412  66.058  1.00  0.00     0.000 HD 
HETATM    4  H1  UNK A   1     -13.610  14.047  64.575  1.00  0.00     0.000 HD 
HETATM    5  O   UNK A   1     -12.999  12.133  63.344  1.00  0.00    -0.776 OA 
HETATM    6  C   UNK A   1     -11.701  12.428  63.613  1.00  0.00    -0.514 C  
HETATM    7  O   UNK A   1     -10.756  11.908  63.040  1.00  0.00    -0.288 OA 
ENDROOT
BRANCH   2   8
HETATM    8  C   UNK A   1     -10.601  13.002  65.823  1.00  0.00    -0.291 C  
BRANCH   8   9
HETATM    9  C   UNK A   1     -11.250  12.336  67.040  1.00  0.00    -0.367 C  
BRANCH   9  10
HETATM   10  C   UNK A   1     -10.804  13.027  68.308  1.00  0.00    -0.246 C  
HETATM   11  O   UNK A   1     -11.003  12.548  69.421  1.00  0.00    -0.133 OA 
HETATM   12  N   UNK A   1     -10.137  14.208  68.117  1.00  0.00    -0.232 N  
HETATM   13  H   UNK A   1     -10.002  14.553  67.166  1.00  0.00     0.000 HD 
BRANCH  12  14
HETATM   14  C   UNK A   1      -9.616  14.988  69.235  1.00  0.00    -0.180 C  
BRANCH  14  15
HETATM   15  C   UNK A   1     -10.794  15.749  69.873  1.00  0.00    -0.327 C  
ATOM     16  H   GLY A   2     -10.271  14.989  71.748  1.00  0.00     0.000 HD 
ATOM     17  N   GLY A   2     -10.961  15.535  71.231  1.00  0.00    -0.277 N  
HETATM   18  O   UNK A   1     -11.475  16.554  69.243  1.00  0.00    -0.221 OA 
BRANCH  17  19
ATOM     19  CA  GLY A   2     -12.128  16.090  71.929  1.00  0.00    -0.514 C  
ATOM     20  C   GLY A   2     -13.316  15.131  71.990  1.00  0.00    -0.398 C  
ATOM     21  O   GLY A   2     -13.085  13.943  71.383  1.00  0.00    -0.331 OA 
ATOM     22  OXT GLY A   2     -14.393  15.413  72.494  1.00  0.00    -0.493 OA 
ENDBRANCH  17  19
ENDBRANCH  14  15
BRANCH  14  23
HETATM   23  C   UNK A   1      -8.576  16.038  68.814  1.00  0.00    -0.223 C  
HETATM   24  S   UNK A   1      -7.941  15.887  67.112  1.00  0.00    -0.232 SA 
HETATM   25  H   UNK A   1      -7.000  16.836  66.732  1.00  0.00     0.000 H  
ENDBRANCH  14  23
ENDBRANCH  12  14
ENDBRANCH   9  10
ENDBRANCH   8   9
ENDBRANCH   2   8
TORSDOF 7
ENDMDL
MODEL       69
REMARK 921   NORMALIZED FREE ENERGY PREDICTED BY IDOCK:   -5.08 KCAL/MOL
REMARK 922        TOTAL FREE ENERGY PREDICTED BY IDOCK:   -7.73 KCAL/MOL
REMARK 923 INTER-LIGAND FREE ENERGY PREDICTED BY IDOCK:   -7.01 KCAL/MOL
REMARK 924 INTRA-LIGAND FREE ENERGY PREDICTED BY IDOCK:   -0.72 KCAL/MOL
REMARK 927      BINDING AFFINITY PREDICTED BY RF-SCORE:    0.00 PKD
ROOT
HETATM    1  N   UNK A   1     -12.265  13.090  71.202  1.00  0.00    -0.368 NA 
HETATM    2  C   UNK A   1     -12.306  14.475  71.757  1.00  0.00    -0.334 C  
HETATM    3  H2  UNK A   1     -11.382  12.916  70.722  1.00  0.00     0.000 HD 
HETATM    4  H1  UNK A   1     -12.444  12.374  71.906  1.00  0.00     0.000 HD 
HETATM    5  O   UNK A   1     -14.402  13.562  72.463  1.00  0.00    -0.713 OA 
HETATM    6  C   UNK A   1     -13.662  14.700  72.449  1.00  0.00    -0.471 C  
HETATM    7  O   UNK A   1     -14.051  15.764  72.904  1.00  0.00    -0.542 OA 
ENDROOT
BRANCH   2   8
HETATM    8  C   UNK A   1     -12.037  15.550  70.699  1.00  0.00    -0.430 C  
BRANCH   8   9
HETATM    9  C   UNK A   1     -12.517  15.188  69.290  1.00  0.00    -0.014 C  
BRANCH   9  10
HETATM   10  C   UNK A   1     -11.331  14.943  68.386  1.00  0.00    -0.303 C  
HETATM   11  O   UNK A   1     -10.394  14.222  68.715  1.00  0.00    -0.237 OA 
HETATM   12  N   UNK A   1     -11.400  15.561  67.166  1.00  0.00    -0.207 N  
HETATM   13  H   UNK A   1     -12.207  16.147  66.951  1.00  0.00     0.000 HD 
BRANCH  12  14
HETATM   14  C   UNK A   1     -10.350  15.406  66.164  1.00  0.00    -0.313 C  
BRANCH  14  15
HETATM   15  C   UNK A   1      -9.619  16.756  66.030  1.00  0.00    -0.234 C  
ATOM     16  H   GLY A   2     -11.295  17.742  66.795  1.00  0.00     0.000 HD 
ATOM     17  N   GLY A   2     -10.369  17.865  66.384  1.00  0.00    -0.374 N  
HETATM   18  O   UNK A   1      -8.432  16.834  65.721  1.00  0.00    -0.472 OA 
BRANCH  17  19
ATOM     19  CA  GLY A   2      -9.837  19.217  66.170  1.00  0.00    -0.367 C  
ATOM     20  C   GLY A   2      -9.128  19.795  67.394  1.00  0.00    -0.330 C  
ATOM     21  O   GLY A   2      -9.121  18.960  68.461  1.00  0.00    -0.330 OA 
ATOM     22  OXT GLY A   2      -8.647  20.917  67.435  1.00  0.00    -0.244 OA 
ENDBRANCH  17  19
ENDBRANCH  14  15
BRANCH  14  23
HETATM   23  C   UNK A   1     -10.885  15.043  64.770  1.00  0.00    -0.355 C  
HETATM   24  S   UNK A   1     -11.570  13.364  64.596  1.00  0.00    -0.373 SA 
HETATM   25  H   UNK A   1     -12.054  13.035  63.336  1.00  0.00     0.000 H  
ENDBRANCH  14  23
ENDBRANCH  12  14
ENDBRANCH   9  10
ENDBRANCH   8   9
ENDBRANCH   2   8
TORSDOF 7
ENDMDL
MODEL       70
REMARK 921   NORMALIZED FREE ENERGY PREDICTED BY IDOCK:   -5.08 KCAL/MOL
REMARK 922        TOTAL FREE ENERGY PREDICTED BY IDOCK:   -7.72 KCAL/MOL
REMARK 923 INTER-LIGAND FREE ENERGY PREDICTED BY IDOCK:   -7.20 KCAL/MOL
REMARK 924 INTRA-LIGAND FREE ENERGY PREDICTED BY IDOCK:   -0.53 KCAL/MOL
REMARK 927      BINDING AFFINITY PREDICTED BY RF-SCORE:    0.00 PKD
ROOT
HETATM    1  N   UNK A   1     -10.568  15.971  66.205  1.00  0.00    -0.313 NA 
HETATM    2  C   UNK A   1     -11.185  14.760  65.587  1.00  0.00    -0.343 C  
HETATM    3  H2  UNK A   1     -10.092  15.734  67.075  1.00  0.00     0.000 HD 
HETATM    4  H1  UNK A   1      -9.941  16.465  65.569  1.00  0.00     0.000 HD 
HETATM    5  O   UNK A   1     -11.706  16.480  64.008  1.00  0.00    -1.111 OA 
HETATM    6  C   UNK A   1     -11.912  15.169  64.293  1.00  0.00    -0.262 C  
HETATM    7  O   UNK A   1     -12.609  14.430  63.615  1.00  0.00    -0.817 OA 
ENDROOT
BRANCH   2   8
HETATM    8  C   UNK A   1     -12.127  14.018  66.541  1.00  0.00    -0.488 C  
BRANCH   8   9
HETATM    9  C   UNK A   1     -11.481  13.584  67.861  1.00  0.00    -0.353 C  
BRANCH   9  10
HETATM   10  C   UNK A   1     -10.779  12.258  67.682  1.00  0.00    -0.220 C  
HETATM   11  O   UNK A   1     -10.898  11.585  66.662  1.00  0.00    -0.264 OA 
HETATM   12  N   UNK A   1      -9.980  11.884  68.730  1.00  0.00    -0.381 N  
HETATM   13  H   UNK A   1      -9.921  12.489  69.550  1.00  0.00     0.000 HD 
BRANCH  12  14
HETATM   14  C   UNK A   1      -9.210  10.644  68.707  1.00  0.00    -0.180 C  
BRANCH  14  15
HETATM   15  C   UNK A   1      -9.637   9.799  69.922  1.00  0.00    -0.235 C  
ATOM     16  H   GLY A   2     -11.611   9.806  69.236  1.00  0.00     0.000 HD 
ATOM     17  N   GLY A   2     -10.993   9.532  70.001  1.00  0.00    -0.242 N  
HETATM   18  O   UNK A   1      -8.824   9.320  70.710  1.00  0.00    -0.222 OA 
BRANCH  17  19
ATOM     19  CA  GLY A   2     -11.547   8.856  71.183  1.00  0.00    -0.300 C  
ATOM     20  C   GLY A   2     -12.846   9.479  71.689  1.00  0.00    -0.393 C  
ATOM     21  O   GLY A   2     -13.254  10.547  70.964  1.00  0.00    -0.363 OA 
ATOM     22  OXT GLY A   2     -13.448   9.089  72.679  1.00  0.00    -0.463 OA 
ENDBRANCH  17  19
ENDBRANCH  14  15
BRANCH  14  23
HETATM   23  C   UNK A   1      -7.694  10.865  68.821  1.00  0.00    -0.129 C  
HETATM   24  S   UNK A   1      -6.842  11.332  67.279  1.00  0.00    -0.118 SA 
HETATM   25  H   UNK A   1      -5.471  11.532  67.382  1.00  0.00     0.000 H  
ENDBRANCH  14  23
ENDBRANCH  12  14
ENDBRANCH   9  10
ENDBRANCH   8   9
ENDBRANCH   2   8
TORSDOF 7
ENDMDL
MODEL       71
REMARK 921   NORMALIZED FREE ENERGY PREDICTED BY IDOCK:   -5.06 KCAL/MOL
REMARK 922        TOTAL FREE ENERGY PREDICTED BY IDOCK:   -7.69 KCAL/MOL
REMARK 923 INTER-LIGAND FREE ENERGY PREDICTED BY IDOCK:   -7.18 KCAL/MOL
REMARK 924 INTRA-LIGAND FREE ENERGY PREDICTED BY IDOCK:   -0.51 KCAL/MOL
REMARK 927      BINDING AFFINITY PREDICTED BY RF-SCORE:    0.00 PKD
ROOT
HETATM    1  N   UNK A   1     -12.783   9.012  70.644  1.00  0.00    -0.433 NA 
HETATM    2  C   UNK A   1     -11.292   9.020  70.568  1.00  0.00    -0.243 C  
HETATM    3  H2  UNK A   1     -13.195   9.301  69.757  1.00  0.00     0.000 HD 
HETATM    4  H1  UNK A   1     -13.160   8.114  70.946  1.00  0.00     0.000 HD 
HETATM    5  O   UNK A   1     -11.702   8.240  72.793  1.00  0.00    -0.397 OA 
HETATM    6  C   UNK A   1     -10.715   8.603  71.933  1.00  0.00    -0.344 C  
HETATM    7  O   UNK A   1      -9.531   8.618  72.230  1.00  0.00    -0.283 OA 
ENDROOT
BRANCH   2   8
HETATM    8  C   UNK A   1     -10.725  10.369  70.115  1.00  0.00    -0.292 C  
BRANCH   8   9
HETATM    9  C   UNK A   1     -11.773  11.352  69.583  1.00  0.00    -0.415 C  
BRANCH   9  10
HETATM   10  C   UNK A   1     -11.444  11.741  68.161  1.00  0.00    -0.316 C  
HETATM   11  O   UNK A   1     -11.317  10.910  67.266  1.00  0.00    -0.415 OA 
HETATM   12  N   UNK A   1     -11.328  13.089  67.945  1.00  0.00    -0.270 N  
HETATM   13  H   UNK A   1     -11.446  13.729  68.731  1.00  0.00     0.000 HD 
BRANCH  12  14
HETATM   14  C   UNK A   1     -11.039  13.635  66.623  1.00  0.00    -0.306 C  
BRANCH  14  15
HETATM   15  C   UNK A   1     -10.205  14.916  66.810  1.00  0.00    -0.259 C  
ATOM     16  H   GLY A   2     -11.937  15.973  67.315  1.00  0.00     0.000 HD 
ATOM     17  N   GLY A   2     -10.936  16.049  67.128  1.00  0.00    -0.244 N  
HETATM   18  O   UNK A   1      -8.977  14.914  66.772  1.00  0.00    -0.239 OA 
BRANCH  17  19
ATOM     19  CA  GLY A   2     -10.277  17.360  67.195  1.00  0.00    -0.323 C  
ATOM     20  C   GLY A   2     -10.368  18.157  65.895  1.00  0.00    -0.277 C  
ATOM     21  O   GLY A   2     -11.034  17.510  64.909  1.00  0.00    -0.887 OA 
ATOM     22  OXT GLY A   2      -9.855  19.254  65.731  1.00  0.00    -0.430 OA 
ENDBRANCH  17  19
ENDBRANCH  14  15
BRANCH  14  23
HETATM   23  C   UNK A   1     -12.300  14.029  65.837  1.00  0.00    -0.486 C  
HETATM   24  S   UNK A   1     -12.279  13.635  64.058  1.00  0.00    -0.321 SA 
HETATM   25  H   UNK A   1     -13.419  13.991  63.347  1.00  0.00     0.000 H  
ENDBRANCH  14  23
ENDBRANCH  12  14
ENDBRANCH   9  10
ENDBRANCH   8   9
ENDBRANCH   2   8
TORSDOF 7
ENDMDL
MODEL       72
REMARK 921   NORMALIZED FREE ENERGY PREDICTED BY IDOCK:   -5.03 KCAL/MOL
REMARK 922        TOTAL FREE ENERGY PREDICTED BY IDOCK:   -7.65 KCAL/MOL
REMARK 923 INTER-LIGAND FREE ENERGY PREDICTED BY IDOCK:   -7.06 KCAL/MOL
REMARK 924 INTRA-LIGAND FREE ENERGY PREDICTED BY IDOCK:   -0.59 KCAL/MOL
REMARK 927      BINDING AFFINITY PREDICTED BY RF-SCORE:    0.00 PKD
ROOT
HETATM    1  N   UNK A   1     -10.519  18.085  65.799  1.00  0.00    -0.601 NA 
HETATM    2  C   UNK A   1     -10.724  18.154  67.277  1.00  0.00    -0.315 C  
HETATM    3  H2  UNK A   1     -10.850  17.196  65.426  1.00  0.00     0.000 HD 
HETATM    4  H1  UNK A   1     -10.943  18.869  65.303  1.00  0.00     0.000 HD 
HETATM    5  O   UNK A   1      -9.781  20.295  66.776  1.00  0.00    -0.411 OA 
HETATM    6  C   UNK A   1     -10.189  19.499  67.798  1.00  0.00    -0.429 C  
HETATM    7  O   UNK A   1     -10.108  19.815  68.975  1.00  0.00    -0.448 OA 
ENDROOT
BRANCH   2   8
HETATM    8  C   UNK A   1     -10.087  16.977  68.022  1.00  0.00    -0.305 C  
BRANCH   8   9
HETATM    9  C   UNK A   1     -11.015  16.282  69.023  1.00  0.00    -0.325 C  
BRANCH   9  10
HETATM   10  C   UNK A   1     -11.404  14.916  68.507  1.00  0.00    -0.298 C  
HETATM   11  O   UNK A   1     -11.889  14.750  67.391  1.00  0.00    -0.377 OA 
HETATM   12  N   UNK A   1     -11.148  13.881  69.367  1.00  0.00    -0.382 N  
HETATM   13  H   UNK A   1     -10.742  14.084  70.281  1.00  0.00     0.000 HD 
BRANCH  12  14
HETATM   14  C   UNK A   1     -11.439  12.495  69.013  1.00  0.00    -0.304 C  
BRANCH  14  15
HETATM   15  C   UNK A   1     -11.937  11.776  70.281  1.00  0.00    -0.343 C  
ATOM     16  H   GLY A   2     -10.868  10.066  69.734  1.00  0.00     0.000 HD 
ATOM     17  N   GLY A   2     -11.531  10.458  70.403  1.00  0.00    -0.315 N  
HETATM   18  O   UNK A   1     -12.569  12.355  71.162  1.00  0.00    -0.364 OA 
BRANCH  17  19
ATOM     19  CA  GLY A   2     -12.051   9.621  71.493  1.00  0.00    -0.401 C  
ATOM     20  C   GLY A   2     -11.003   8.691  72.102  1.00  0.00    -0.364 C  
ATOM     21  O   GLY A   2      -9.782   8.797  71.524  1.00  0.00    -0.236 OA 
ATOM     22  OXT GLY A   2     -11.239   7.890  72.994  1.00  0.00    -0.411 OA 
ENDBRANCH  17  19
ENDBRANCH  14  15
BRANCH  14  23
HETATM   23  C   UNK A   1     -10.210  11.723  68.510  1.00  0.00    -0.210 C  
HETATM   24  S   UNK A   1     -10.129  11.447  66.710  1.00  0.00    -0.223 SA 
HETATM   25  H   UNK A   1      -9.018  10.748  66.255  1.00  0.00     0.000 H  
ENDBRANCH  14  23
ENDBRANCH  12  14
ENDBRANCH   9  10
ENDBRANCH   8   9
ENDBRANCH   2   8
TORSDOF 7
ENDMDL
MODEL       73
REMARK 921   NORMALIZED FREE ENERGY PREDICTED BY IDOCK:   -4.98 KCAL/MOL
REMARK 922        TOTAL FREE ENERGY PREDICTED BY IDOCK:   -7.58 KCAL/MOL
REMARK 923 INTER-LIGAND FREE ENERGY PREDICTED BY IDOCK:   -6.99 KCAL/MOL
REMARK 924 INTRA-LIGAND FREE ENERGY PREDICTED BY IDOCK:   -0.59 KCAL/MOL
REMARK 927      BINDING AFFINITY PREDICTED BY RF-SCORE:    0.00 PKD
ROOT
HETATM    1  N   UNK A   1     -13.872   8.930  73.007  1.00  0.00    -1.107 NA 
HETATM    2  C   UNK A   1     -13.391   8.964  71.594  1.00  0.00    -0.365 C  
HETATM    3  H2  UNK A   1     -14.772   9.402  73.097  1.00  0.00     0.000 HD 
HETATM    4  H1  UNK A   1     -13.917   7.985  73.388  1.00  0.00     0.000 HD 
HETATM    5  O   UNK A   1     -11.678   7.717  72.704  1.00  0.00    -0.322 OA 
HETATM    6  C   UNK A   1     -12.023   8.264  71.510  1.00  0.00    -0.296 C  
HETATM    7  O   UNK A   1     -11.314   8.222  70.517  1.00  0.00    -0.267 OA 
ENDROOT
BRANCH   2   8
HETATM    8  C   UNK A   1     -13.324  10.383  71.021  1.00  0.00    -0.251 C  
BRANCH   8   9
HETATM    9  C   UNK A   1     -13.080  11.479  72.064  1.00  0.00    -0.430 C  
BRANCH   9  10
HETATM   10  C   UNK A   1     -13.075  12.836  71.398  1.00  0.00    -0.227 C  
HETATM   11  O   UNK A   1     -13.820  13.744  71.756  1.00  0.00    -0.370 OA 
HETATM   12  N   UNK A   1     -12.158  12.980  70.391  1.00  0.00    -0.468 N  
HETATM   13  H   UNK A   1     -11.565  12.187  70.142  1.00  0.00     0.000 HD 
BRANCH  12  14
HETATM   14  C   UNK A   1     -12.004  14.235  69.663  1.00  0.00    -0.336 C  
BRANCH  14  15
HETATM   15  C   UNK A   1     -11.614  13.898  68.212  1.00  0.00    -0.337 C  
ATOM     16  H   GLY A   2     -10.190  12.536  68.909  1.00  0.00     0.000 HD 
ATOM     17  N   GLY A   2     -10.571  12.996  68.082  1.00  0.00    -0.238 N  
HETATM   18  O   UNK A   1     -12.240  14.326  67.245  1.00  0.00    -0.393 OA 
BRANCH  17  19
ATOM     19  CA  GLY A   2     -10.012  12.698  66.756  1.00  0.00    -0.234 C  
ATOM     20  C   GLY A   2     -10.609  11.450  66.108  1.00  0.00    -0.265 C  
ATOM     21  O   GLY A   2     -11.543  10.836  66.873  1.00  0.00    -0.255 OA 
ATOM     22  OXT GLY A   2     -10.255  11.010  65.024  1.00  0.00    -0.264 OA 
ENDBRANCH  17  19
ENDBRANCH  14  15
BRANCH  14  23
HETATM   23  C   UNK A   1     -10.897  15.138  70.230  1.00  0.00    -0.231 C  
HETATM   24  S   UNK A   1     -10.398  16.538  69.175  1.00  0.00    -0.331 SA 
HETATM   25  H   UNK A   1      -9.397  17.354  69.688  1.00  0.00     0.000 H  
ENDBRANCH  14  23
ENDBRANCH  12  14
ENDBRANCH   9  10
ENDBRANCH   8   9
ENDBRANCH   2   8
TORSDOF 7
ENDMDL
MODEL       74
REMARK 921   NORMALIZED FREE ENERGY PREDICTED BY IDOCK:   -4.96 KCAL/MOL
REMARK 922        TOTAL FREE ENERGY PREDICTED BY IDOCK:   -7.56 KCAL/MOL
REMARK 923 INTER-LIGAND FREE ENERGY PREDICTED BY IDOCK:   -7.04 KCAL/MOL
REMARK 924 INTRA-LIGAND FREE ENERGY PREDICTED BY IDOCK:   -0.52 KCAL/MOL
REMARK 927      BINDING AFFINITY PREDICTED BY RF-SCORE:    0.00 PKD
ROOT
HETATM    1  N   UNK A   1     -13.328   9.706  72.364  1.00  0.00    -0.594 NA 
HETATM    2  C   UNK A   1     -12.617   9.492  71.069  1.00  0.00    -0.253 C  
HETATM    3  H2  UNK A   1     -13.834  10.591  72.360  1.00  0.00     0.000 HD 
HETATM    4  H1  UNK A   1     -13.946   8.933  72.610  1.00  0.00     0.000 HD 
HETATM    5  O   UNK A   1     -12.108   7.496  72.285  1.00  0.00    -0.287 OA 
HETATM    6  C   UNK A   1     -11.849   8.160  71.129  1.00  0.00    -0.279 C  
HETATM    7  O   UNK A   1     -11.080   7.753  70.273  1.00  0.00    -0.257 OA 
ENDROOT
BRANCH   2   8
HETATM    8  C   UNK A   1     -11.688  10.653  70.700  1.00  0.00    -0.454 C  
BRANCH   8   9
HETATM    9  C   UNK A   1     -12.346  11.751  69.860  1.00  0.00    -0.200 C  
BRANCH   9  10
HETATM   10  C   UNK A   1     -11.824  11.702  68.442  1.00  0.00    -0.278 C  
HETATM   11  O   UNK A   1     -11.454  10.657  67.916  1.00  0.00    -0.432 OA 
HETATM   12  N   UNK A   1     -11.826  12.905  67.786  1.00  0.00    -0.354 N  
HETATM   13  H   UNK A   1     -12.148  13.738  68.278  1.00  0.00     0.000 HD 
BRANCH  12  14
HETATM   14  C   UNK A   1     -11.379  13.027  66.402  1.00  0.00    -0.317 C  
BRANCH  14  15
HETATM   15  C   UNK A   1     -10.765  14.429  66.225  1.00  0.00    -0.307 C  
ATOM     16  H   GLY A   2     -11.226  14.885  68.212  1.00  0.00     0.000 HD 
ATOM     17  N   GLY A   2     -10.861  15.254  67.333  1.00  0.00    -0.298 N  
HETATM   18  O   UNK A   1     -10.155  14.756  65.210  1.00  0.00    -0.364 OA 
BRANCH  17  19
ATOM     19  CA  GLY A   2     -10.440  16.659  67.247  1.00  0.00    -0.313 C  
ATOM     20  C   GLY A   2     -10.395  17.366  68.601  1.00  0.00    -0.364 C  
ATOM     21  O   GLY A   2     -10.757  16.574  69.639  1.00  0.00    -0.322 OA 
ATOM     22  OXT GLY A   2     -10.105  18.544  68.745  1.00  0.00    -0.379 OA 
ENDBRANCH  17  19
ENDBRANCH  14  15
BRANCH  14  23
HETATM   23  C   UNK A   1     -12.519  12.901  65.379  1.00  0.00    -0.454 C  
HETATM   24  S   UNK A   1     -12.065  12.170  63.773  1.00  0.00    -0.535 SA 
HETATM   25  H   UNK A   1     -13.096  12.056  62.848  1.00  0.00     0.000 H  
ENDBRANCH  14  23
ENDBRANCH  12  14
ENDBRANCH   9  10
ENDBRANCH   8   9
ENDBRANCH   2   8
TORSDOF 7
ENDMDL
MODEL       75
REMARK 921   NORMALIZED FREE ENERGY PREDICTED BY IDOCK:   -4.95 KCAL/MOL
REMARK 922        TOTAL FREE ENERGY PREDICTED BY IDOCK:   -7.54 KCAL/MOL
REMARK 923 INTER-LIGAND FREE ENERGY PREDICTED BY IDOCK:   -6.99 KCAL/MOL
REMARK 924 INTRA-LIGAND FREE ENERGY PREDICTED BY IDOCK:   -0.56 KCAL/MOL
REMARK 927      BINDING AFFINITY PREDICTED BY RF-SCORE:    0.00 PKD
ROOT
HETATM    1  N   UNK A   1     -11.396  11.433  63.343  1.00  0.00    -0.801 NA 
HETATM    2  C   UNK A   1     -11.965  11.908  64.639  1.00  0.00    -0.170 C  
HETATM    3  H2  UNK A   1     -10.923  10.537  63.459  1.00  0.00     0.000 HD 
HETATM    4  H1  UNK A   1     -12.091  11.385  62.598  1.00  0.00     0.000 HD 
HETATM    5  O   UNK A   1     -12.641  13.618  63.109  1.00  0.00    -0.792 OA 
HETATM    6  C   UNK A   1     -12.646  13.271  64.422  1.00  0.00    -0.214 C  
HETATM    7  O   UNK A   1     -13.109  13.974  65.305  1.00  0.00    -0.782 OA 
ENDROOT
BRANCH   2   8
HETATM    8  C   UNK A   1     -10.922  11.981  65.758  1.00  0.00    -0.351 C  
BRANCH   8   9
HETATM    9  C   UNK A   1     -11.460  11.643  67.152  1.00  0.00    -0.344 C  
BRANCH   9  10
HETATM   10  C   UNK A   1     -10.759  10.420  67.695  1.00  0.00    -0.286 C  
HETATM   11  O   UNK A   1     -10.631   9.390  67.038  1.00  0.00    -0.251 OA 
HETATM   12  N   UNK A   1     -10.255  10.560  68.962  1.00  0.00    -0.205 N  
HETATM   13  H   UNK A   1     -10.393  11.442  69.456  1.00  0.00     0.000 HD 
BRANCH  12  14
HETATM   14  C   UNK A   1      -9.526   9.483  69.624  1.00  0.00    -0.199 C  
BRANCH  14  15
HETATM   15  C   UNK A   1     -10.342   9.045  70.855  1.00  0.00    -0.256 C  
ATOM     16  H   GLY A   2     -11.912   8.454  69.607  1.00  0.00     0.000 HD 
ATOM     17  N   GLY A   2     -11.616   8.579  70.576  1.00  0.00    -0.194 N  
HETATM   18  O   UNK A   1      -9.866   9.026  71.988  1.00  0.00    -0.311 OA 
BRANCH  17  19
ATOM     19  CA  GLY A   2     -12.544   8.262  71.671  1.00  0.00    -0.327 C  
ATOM     20  C   GLY A   2     -13.547   9.377  71.962  1.00  0.00    -0.433 C  
ATOM     21  O   GLY A   2     -13.399  10.462  71.164  1.00  0.00    -0.344 OA 
ATOM     22  OXT GLY A   2     -14.380   9.328  72.855  1.00  0.00    -0.461 OA 
ENDBRANCH  17  19
ENDBRANCH  14  15
BRANCH  14  23
HETATM   23  C   UNK A   1      -8.138   9.906  70.130  1.00  0.00    -0.146 C  
HETATM   24  S   UNK A   1      -7.188  10.995  69.020  1.00  0.00    -0.120 SA 
HETATM   25  H   UNK A   1      -5.933  11.377  69.477  1.00  0.00     0.000 H  
ENDBRANCH  14  23
ENDBRANCH  12  14
ENDBRANCH   9  10
ENDBRANCH   8   9
ENDBRANCH   2   8
TORSDOF 7
ENDMDL
MODEL       76
REMARK 921   NORMALIZED FREE ENERGY PREDICTED BY IDOCK:   -4.95 KCAL/MOL
REMARK 922        TOTAL FREE ENERGY PREDICTED BY IDOCK:   -7.53 KCAL/MOL
REMARK 923 INTER-LIGAND FREE ENERGY PREDICTED BY IDOCK:   -6.62 KCAL/MOL
REMARK 924 INTRA-LIGAND FREE ENERGY PREDICTED BY IDOCK:   -0.92 KCAL/MOL
REMARK 927      BINDING AFFINITY PREDICTED BY RF-SCORE:    0.00 PKD
ROOT
HETATM    1  N   UNK A   1     -10.377  14.370  69.398  1.00  0.00    -0.424 NA 
HETATM    2  C   UNK A   1     -10.387  14.068  67.936  1.00  0.00    -0.239 C  
HETATM    3  H2  UNK A   1     -10.115  13.546  69.938  1.00  0.00     0.000 HD 
HETATM    4  H1  UNK A   1      -9.783  15.165  69.634  1.00  0.00     0.000 HD 
HETATM    5  O   UNK A   1     -10.953  16.392  67.997  1.00  0.00    -0.345 OA 
HETATM    6  C   UNK A   1     -10.810  15.330  67.163  1.00  0.00    -0.322 C  
HETATM    7  O   UNK A   1     -11.023  15.380  65.962  1.00  0.00    -0.325 OA 
ENDROOT
BRANCH   2   8
HETATM    8  C   UNK A   1     -11.279  12.874  67.580  1.00  0.00    -0.329 C  
BRANCH   8   9
HETATM    9  C   UNK A   1     -10.515  11.605  67.191  1.00  0.00    -0.252 C  
BRANCH   9  10
HETATM   10  C   UNK A   1     -10.894  10.469  68.113  1.00  0.00    -0.253 C  
HETATM   11  O   UNK A   1     -10.846   9.294  67.760  1.00  0.00    -0.237 OA 
HETATM   12  N   UNK A   1     -11.264  10.851  69.375  1.00  0.00    -0.250 N  
HETATM   13  H   UNK A   1     -11.282  11.844  69.608  1.00  0.00     0.000 HD 
BRANCH  12  14
HETATM   14  C   UNK A   1     -11.635   9.877  70.397  1.00  0.00    -0.282 C  
BRANCH  14  15
HETATM   15  C   UNK A   1     -12.625  10.555  71.362  1.00  0.00    -0.434 C  
ATOM     16  H   GLY A   2     -12.157  12.417  70.536  1.00  0.00     0.000 HD 
ATOM     17  N   GLY A   2     -12.676  11.936  71.272  1.00  0.00    -0.356 N  
HETATM   18  O   UNK A   1     -13.377   9.914  72.091  1.00  0.00    -0.438 OA 
BRANCH  17  19
ATOM     19  CA  GLY A   2     -13.475  12.711  72.231  1.00  0.00    -0.438 C  
ATOM     20  C   GLY A   2     -12.939  14.121  72.473  1.00  0.00    -0.408 C  
ATOM     21  O   GLY A   2     -11.819  14.405  71.765  1.00  0.00    -0.242 OA 
ATOM     22  OXT GLY A   2     -13.436  14.913  73.260  1.00  0.00    -0.536 OA 
ENDBRANCH  17  19
ENDBRANCH  14  15
BRANCH  14  23
HETATM   23  C   UNK A   1     -10.444   9.392  71.238  1.00  0.00    -0.315 C  
HETATM   24  S   UNK A   1     -10.406   7.607  71.605  1.00  0.00    -0.190 SA 
HETATM   25  H   UNK A   1      -9.329   7.169  72.366  1.00  0.00     0.000 H  
ENDBRANCH  14  23
ENDBRANCH  12  14
ENDBRANCH   9  10
ENDBRANCH   8   9
ENDBRANCH   2   8
TORSDOF 7
ENDMDL
MODEL       77
REMARK 921   NORMALIZED FREE ENERGY PREDICTED BY IDOCK:   -4.93 KCAL/MOL
REMARK 922        TOTAL FREE ENERGY PREDICTED BY IDOCK:   -7.51 KCAL/MOL
REMARK 923 INTER-LIGAND FREE ENERGY PREDICTED BY IDOCK:   -6.25 KCAL/MOL
REMARK 924 INTRA-LIGAND FREE ENERGY PREDICTED BY IDOCK:   -1.27 KCAL/MOL
REMARK 927      BINDING AFFINITY PREDICTED BY RF-SCORE:    0.00 PKD
ROOT
HETATM    1  N   UNK A   1     -11.688  11.737  70.520  1.00  0.00    -0.493 NA 
HETATM    2  C   UNK A   1     -11.742  10.570  69.590  1.00  0.00    -0.256 C  
HETATM    3  H2  UNK A   1     -12.078  12.571  70.082  1.00  0.00     0.000 HD 
HETATM    4  H1  UNK A   1     -12.137  11.551  71.416  1.00  0.00     0.000 HD 
HETATM    5  O   UNK A   1     -10.794   9.620  71.571  1.00  0.00    -0.329 OA 
HETATM    6  C   UNK A   1     -11.120   9.344  70.282  1.00  0.00    -0.257 C  
HETATM    7  O   UNK A   1     -10.913   8.266  69.748  1.00  0.00    -0.224 OA 
ENDROOT
BRANCH   2   8
HETATM    8  C   UNK A   1     -11.066  10.850  68.244  1.00  0.00    -0.324 C  
BRANCH   8   9
HETATM    9  C   UNK A   1      -9.579  11.204  68.340  1.00  0.00    -0.192 C  
BRANCH   9  10
HETATM   10  C   UNK A   1      -9.334  12.575  67.755  1.00  0.00    -0.198 C  
HETATM   11  O   UNK A   1      -8.332  12.836  67.094  1.00  0.00    -0.183 OA 
HETATM   12  N   UNK A   1     -10.325  13.489  67.994  1.00  0.00    -0.235 N  
HETATM   13  H   UNK A   1     -11.135  13.210  68.549  1.00  0.00     0.000 HD 
BRANCH  12  14
HETATM   14  C   UNK A   1     -10.257  14.852  67.477  1.00  0.00    -0.233 C  
BRANCH  14  15
HETATM   15  C   UNK A   1     -10.850  15.794  68.542  1.00  0.00    -0.290 C  
ATOM     16  H   GLY A   2     -10.510  14.347  70.012  1.00  0.00     0.000 HD 
ATOM     17  N   GLY A   2     -10.924  15.260  69.818  1.00  0.00    -0.266 N  
HETATM   18  O   UNK A   1     -11.148  16.960  68.297  1.00  0.00    -0.349 OA 
BRANCH  17  19
ATOM     19  CA  GLY A   2     -11.595  16.003  70.893  1.00  0.00    -0.418 C  
ATOM     20  C   GLY A   2     -12.881  15.339  71.383  1.00  0.00    -0.415 C  
ATOM     21  O   GLY A   2     -13.177  14.187  70.735  1.00  0.00    -0.290 OA 
ATOM     22  OXT GLY A   2     -13.606  15.813  72.244  1.00  0.00    -0.477 OA 
ENDBRANCH  17  19
ENDBRANCH  14  15
BRANCH  14  23
HETATM   23  C   UNK A   1     -11.072  15.058  66.190  1.00  0.00    -0.329 C  
HETATM   24  S   UNK A   1     -12.300  13.765  65.814  1.00  0.00    -0.491 SA 
HETATM   25  H   UNK A   1     -13.037  13.952  64.651  1.00  0.00     0.000 H  
ENDBRANCH  14  23
ENDBRANCH  12  14
ENDBRANCH   9  10
ENDBRANCH   8   9
ENDBRANCH   2   8
TORSDOF 7
ENDMDL
MODEL       78
REMARK 921   NORMALIZED FREE ENERGY PREDICTED BY IDOCK:   -4.93 KCAL/MOL
REMARK 922        TOTAL FREE ENERGY PREDICTED BY IDOCK:   -7.51 KCAL/MOL
REMARK 923 INTER-LIGAND FREE ENERGY PREDICTED BY IDOCK:   -6.88 KCAL/MOL
REMARK 924 INTRA-LIGAND FREE ENERGY PREDICTED BY IDOCK:   -0.62 KCAL/MOL
REMARK 927      BINDING AFFINITY PREDICTED BY RF-SCORE:    0.00 PKD
ROOT
HETATM    1  N   UNK A   1     -10.713  18.624  67.201  1.00  0.00    -0.413 NA 
HETATM    2  C   UNK A   1      -9.539  18.263  68.049  1.00  0.00    -0.304 C  
HETATM    3  H2  UNK A   1     -11.450  17.924  67.281  1.00  0.00     0.000 HD 
HETATM    4  H1  UNK A   1     -11.073  19.557  67.398  1.00  0.00     0.000 HD 
HETATM    5  O   UNK A   1      -8.876  20.355  67.097  1.00  0.00    -0.348 OA 
HETATM    6  C   UNK A   1      -8.445  19.331  67.878  1.00  0.00    -0.308 C  
HETATM    7  O   UNK A   1      -7.321  19.267  68.350  1.00  0.00    -0.279 OA 
ENDROOT
BRANCH   2   8
HETATM    8  C   UNK A   1      -8.998  16.860  67.753  1.00  0.00    -0.225 C  
BRANCH   8   9
HETATM    9  C   UNK A   1      -8.660  16.608  66.280  1.00  0.00    -0.359 C  
BRANCH   9  10
HETATM   10  C   UNK A   1      -9.790  15.861  65.610  1.00  0.00    -0.302 C  
HETATM   11  O   UNK A   1     -10.707  16.439  65.034  1.00  0.00    -0.638 OA 
HETATM   12  N   UNK A   1      -9.693  14.496  65.670  1.00  0.00    -0.509 N  
HETATM   13  H   UNK A   1      -8.905  14.076  66.162  1.00  0.00     0.000 HD 
BRANCH  12  14
HETATM   14  C   UNK A   1     -10.687  13.626  65.050  1.00  0.00    -0.367 C  
BRANCH  14  15
HETATM   15  C   UNK A   1     -11.299  12.742  66.154  1.00  0.00    -0.328 C  
ATOM     16  H   GLY A   2      -9.863  13.434  67.506  1.00  0.00     0.000 HD 
ATOM     17  N   GLY A   2     -10.633  12.779  67.368  1.00  0.00    -0.228 N  
HETATM   18  O   UNK A   1     -12.349  12.125  65.996  1.00  0.00    -0.550 OA 
BRANCH  17  19
ATOM     19  CA  GLY A   2     -11.032  11.878  68.457  1.00  0.00    -0.235 C  
ATOM     20  C   GLY A   2     -11.855  12.563  69.546  1.00  0.00    -0.310 C  
ATOM     21  O   GLY A   2     -12.066  13.882  69.317  1.00  0.00    -0.336 OA 
ATOM     22  OXT GLY A   2     -12.254  12.000  70.555  1.00  0.00    -0.364 OA 
ENDBRANCH  17  19
ENDBRANCH  14  15
BRANCH  14  23
HETATM   23  C   UNK A   1     -10.096  12.681  63.992  1.00  0.00    -0.254 C  
HETATM   24  S   UNK A   1      -9.471  11.086  64.614  1.00  0.00    -0.228 SA 
HETATM   25  H   UNK A   1      -8.937  10.232  63.657  1.00  0.00     0.000 H  
ENDBRANCH  14  23
ENDBRANCH  12  14
ENDBRANCH   9  10
ENDBRANCH   8   9
ENDBRANCH   2   8
TORSDOF 7
ENDMDL
MODEL       79
REMARK 921   NORMALIZED FREE ENERGY PREDICTED BY IDOCK:   -4.92 KCAL/MOL
REMARK 922        TOTAL FREE ENERGY PREDICTED BY IDOCK:   -7.50 KCAL/MOL
REMARK 923 INTER-LIGAND FREE ENERGY PREDICTED BY IDOCK:   -6.96 KCAL/MOL
REMARK 924 INTRA-LIGAND FREE ENERGY PREDICTED BY IDOCK:   -0.53 KCAL/MOL
REMARK 927      BINDING AFFINITY PREDICTED BY RF-SCORE:    0.00 PKD
ROOT
HETATM    1  N   UNK A   1     -11.744   7.951  70.457  1.00  0.00    -0.458 NA 
HETATM    2  C   UNK A   1     -12.247   8.755  71.610  1.00  0.00    -0.339 C  
HETATM    3  H2  UNK A   1     -10.798   8.232  70.201  1.00  0.00     0.000 HD 
HETATM    4  H1  UNK A   1     -11.794   6.946  70.622  1.00  0.00     0.000 HD 
HETATM    5  O   UNK A   1     -14.061   7.256  71.184  1.00  0.00    -0.335 OA 
HETATM    6  C   UNK A   1     -13.683   8.315  71.945  1.00  0.00    -0.369 C  
HETATM    7  O   UNK A   1     -14.411   8.854  72.763  1.00  0.00    -0.600 OA 
ENDROOT
BRANCH   2   8
HETATM    8  C   UNK A   1     -12.172  10.265  71.361  1.00  0.00    -0.481 C  
BRANCH   8   9
HETATM    9  C   UNK A   1     -11.814  10.655  69.924  1.00  0.00    -0.392 C  
BRANCH   9  10
HETATM   10  C   UNK A   1     -11.978  12.145  69.736  1.00  0.00    -0.302 C  
HETATM   11  O   UNK A   1     -12.398  12.877  70.628  1.00  0.00    -0.358 OA 
HETATM   12  N   UNK A   1     -11.595  12.616  68.507  1.00  0.00    -0.301 N  
HETATM   13  H   UNK A   1     -11.253  11.957  67.808  1.00  0.00     0.000 HD 
BRANCH  12  14
HETATM   14  C   UNK A   1     -11.664  14.034  68.171  1.00  0.00    -0.352 C  
BRANCH  14  15
HETATM   15  C   UNK A   1     -11.595  14.162  66.637  1.00  0.00    -0.384 C  
ATOM     16  H   GLY A   2     -12.249  12.186  66.442  1.00  0.00     0.000 HD 
ATOM     17  N   GLY A   2     -11.906  13.005  65.940  1.00  0.00    -0.394 N  
HETATM   18  O   UNK A   1     -11.372  15.231  66.074  1.00  0.00    -0.286 OA 
BRANCH  17  19
ATOM     19  CA  GLY A   2     -11.742  12.955  64.480  1.00  0.00    -0.365 C  
ATOM     20  C   GLY A   2     -10.610  12.037  64.024  1.00  0.00    -0.377 C  
ATOM     21  O   GLY A   2      -9.953  11.438  65.046  1.00  0.00    -0.242 OA 
ATOM     22  OXT GLY A   2     -10.287  11.883  62.856  1.00  0.00    -0.247 OA 
ENDBRANCH  17  19
ENDBRANCH  14  15
BRANCH  14  23
HETATM   23  C   UNK A   1     -10.498  14.855  68.744  1.00  0.00    -0.242 C  
HETATM   24  S   UNK A   1      -8.832  14.173  68.458  1.00  0.00    -0.140 SA 
HETATM   25  H   UNK A   1      -7.778  14.915  68.976  1.00  0.00     0.000 H  
ENDBRANCH  14  23
ENDBRANCH  12  14
ENDBRANCH   9  10
ENDBRANCH   8   9
ENDBRANCH   2   8
TORSDOF 7
ENDMDL
MODEL       80
REMARK 921   NORMALIZED FREE ENERGY PREDICTED BY IDOCK:   -4.91 KCAL/MOL
REMARK 922        TOTAL FREE ENERGY PREDICTED BY IDOCK:   -7.48 KCAL/MOL
REMARK 923 INTER-LIGAND FREE ENERGY PREDICTED BY IDOCK:   -6.67 KCAL/MOL
REMARK 924 INTRA-LIGAND FREE ENERGY PREDICTED BY IDOCK:   -0.82 KCAL/MOL
REMARK 927      BINDING AFFINITY PREDICTED BY RF-SCORE:    0.00 PKD
ROOT
HETATM    1  N   UNK A   1     -10.465  15.575  68.112  1.00  0.00    -0.254 NA 
HETATM    2  C   UNK A   1      -9.778  16.050  66.874  1.00  0.00    -0.235 C  
HETATM    3  H2  UNK A   1     -10.249  14.596  68.296  1.00  0.00     0.000 HD 
HETATM    4  H1  UNK A   1     -10.261  16.154  68.926  1.00  0.00     0.000 HD 
HETATM    5  O   UNK A   1     -10.909  18.016  67.635  1.00  0.00    -0.390 OA 
HETATM    6  C   UNK A   1     -10.153  17.521  66.621  1.00  0.00    -0.328 C  
HETATM    7  O   UNK A   1      -9.845  18.165  65.631  1.00  0.00    -0.478 OA 
ENDROOT
BRANCH   2   8
HETATM    8  C   UNK A   1     -10.086  15.181  65.651  1.00  0.00    -0.392 C  
BRANCH   8   9
HETATM    9  C   UNK A   1     -11.578  14.946  65.397  1.00  0.00    -0.280 C  
BRANCH   9  10
HETATM   10  C   UNK A   1     -11.963  13.547  65.819  1.00  0.00    -0.403 C  
HETATM   11  O   UNK A   1     -12.864  12.920  65.269  1.00  0.00    -0.668 OA 
HETATM   12  N   UNK A   1     -11.210  13.026  66.839  1.00  0.00    -0.284 N  
HETATM   13  H   UNK A   1     -10.474  13.597  67.254  1.00  0.00     0.000 HD 
BRANCH  12  14
HETATM   14  C   UNK A   1     -11.433  11.677  67.348  1.00  0.00    -0.285 C  
BRANCH  14  15
HETATM   15  C   UNK A   1     -11.872  11.793  68.821  1.00  0.00    -0.320 C  
ATOM     16  H   GLY A   2     -11.979   9.709  68.954  1.00  0.00     0.000 HD 
ATOM     17  N   GLY A   2     -12.158  10.588  69.441  1.00  0.00    -0.175 N  
HETATM   18  O   UNK A   1     -11.877  12.863  69.424  1.00  0.00    -0.303 OA 
BRANCH  17  19
ATOM     19  CA  GLY A   2     -12.720  10.570  70.799  1.00  0.00    -0.381 C  
ATOM     20  C   GLY A   2     -12.605   9.213  71.489  1.00  0.00    -0.343 C  
ATOM     21  O   GLY A   2     -12.012   8.264  70.725  1.00  0.00    -0.236 OA 
ATOM     22  OXT GLY A   2     -13.042   8.977  72.606  1.00  0.00    -0.426 OA 
ENDBRANCH  17  19
ENDBRANCH  14  15
BRANCH  14  23
HETATM   23  C   UNK A   1     -10.173  10.798  67.320  1.00  0.00    -0.205 C  
HETATM   24  S   UNK A   1      -9.879   9.882  65.773  1.00  0.00    -0.283 SA 
HETATM   25  H   UNK A   1      -8.740   9.088  65.747  1.00  0.00     0.000 H  
ENDBRANCH  14  23
ENDBRANCH  12  14
ENDBRANCH   9  10
ENDBRANCH   8   9
ENDBRANCH   2   8
TORSDOF 7
ENDMDL
MODEL       81
REMARK 921   NORMALIZED FREE ENERGY PREDICTED BY IDOCK:   -4.88 KCAL/MOL
REMARK 922        TOTAL FREE ENERGY PREDICTED BY IDOCK:   -7.45 KCAL/MOL
REMARK 923 INTER-LIGAND FREE ENERGY PREDICTED BY IDOCK:   -6.73 KCAL/MOL
REMARK 924 INTRA-LIGAND FREE ENERGY PREDICTED BY IDOCK:   -0.72 KCAL/MOL
REMARK 927      BINDING AFFINITY PREDICTED BY RF-SCORE:    0.00 PKD
ROOT
HETATM    1  N   UNK A   1     -11.346  12.403  69.570  1.00  0.00    -0.448 NA 
HETATM    2  C   UNK A   1     -11.915  11.098  70.019  1.00  0.00    -0.367 C  
HETATM    3  H2  UNK A   1     -10.781  12.285  68.729  1.00  0.00     0.000 HD 
HETATM    4  H1  UNK A   1     -12.058  13.120  69.433  1.00  0.00     0.000 HD 
HETATM    5  O   UNK A   1     -12.813  12.640  71.613  1.00  0.00    -0.340 OA 
HETATM    6  C   UNK A   1     -12.737  11.320  71.301  1.00  0.00    -0.405 C  
HETATM    7  O   UNK A   1     -13.237  10.436  71.977  1.00  0.00    -0.456 OA 
ENDROOT
BRANCH   2   8
HETATM    8  C   UNK A   1     -10.845  10.021  70.225  1.00  0.00    -0.370 C  
BRANCH   8   9
HETATM    9  C   UNK A   1     -10.655   9.078  69.033  1.00  0.00    -0.209 C  
BRANCH   9  10
HETATM   10  C   UNK A   1      -9.751   9.719  68.005  1.00  0.00    -0.145 C  
HETATM   11  O   UNK A   1      -8.641  10.159  68.291  1.00  0.00    -0.113 OA 
HETATM   12  N   UNK A   1     -10.254   9.742  66.731  1.00  0.00    -0.232 N  
HETATM   13  H   UNK A   1     -11.183   9.358  66.557  1.00  0.00     0.000 HD 
BRANCH  12  14
HETATM   14  C   UNK A   1      -9.498  10.301  65.615  1.00  0.00    -0.221 C  
BRANCH  14  15
HETATM   15  C   UNK A   1     -10.473  11.112  64.740  1.00  0.00    -0.323 C  
ATOM     16  H   GLY A   2     -11.065  12.211  66.417  1.00  0.00     0.000 HD 
ATOM     17  N   GLY A   2     -11.240  12.039  65.426  1.00  0.00    -0.325 N  
HETATM   18  O   UNK A   1     -10.501  11.008  63.516  1.00  0.00    -0.361 OA 
BRANCH  17  19
ATOM     19  CA  GLY A   2     -12.304  12.777  64.732  1.00  0.00    -0.478 C  
ATOM     20  C   GLY A   2     -11.922  14.214  64.382  1.00  0.00    -0.457 C  
ATOM     21  O   GLY A   2     -10.673  14.556  64.780  1.00  0.00    -0.413 OA 
ATOM     22  OXT GLY A   2     -12.677  15.006  63.836  1.00  0.00    -0.775 OA 
ENDBRANCH  17  19
ENDBRANCH  14  15
BRANCH  14  23
HETATM   23  C   UNK A   1      -8.864   9.231  64.711  1.00  0.00    -0.185 C  
HETATM   24  S   UNK A   1      -7.067   9.382  64.446  1.00  0.00    -0.106 SA 
HETATM   25  H   UNK A   1      -6.494   8.415  63.629  1.00  0.00     0.000 H  
ENDBRANCH  14  23
ENDBRANCH  12  14
ENDBRANCH   9  10
ENDBRANCH   8   9
ENDBRANCH   2   8
TORSDOF 7
ENDMDL
MODEL       82
REMARK 921   NORMALIZED FREE ENERGY PREDICTED BY IDOCK:   -4.85 KCAL/MOL
REMARK 922        TOTAL FREE ENERGY PREDICTED BY IDOCK:   -7.40 KCAL/MOL
REMARK 923 INTER-LIGAND FREE ENERGY PREDICTED BY IDOCK:   -6.61 KCAL/MOL
REMARK 924 INTRA-LIGAND FREE ENERGY PREDICTED BY IDOCK:   -0.79 KCAL/MOL
REMARK 927      BINDING AFFINITY PREDICTED BY RF-SCORE:    0.00 PKD
ROOT
HETATM    1  N   UNK A   1     -12.748   8.493  70.884  1.00  0.00    -0.489 NA 
HETATM    2  C   UNK A   1     -11.517   7.707  70.576  1.00  0.00    -0.218 C  
HETATM    3  H2  UNK A   1     -13.237   8.755  70.029  1.00  0.00     0.000 HD 
HETATM    4  H1  UNK A   1     -13.374   8.014  71.530  1.00  0.00     0.000 HD 
HETATM    5  O   UNK A   1     -11.525   7.757  72.968  1.00  0.00    -0.372 OA 
HETATM    6  C   UNK A   1     -10.799   7.357  71.892  1.00  0.00    -0.229 C  
HETATM    7  O   UNK A   1      -9.708   6.817  71.975  1.00  0.00    -0.155 OA 
ENDROOT
BRANCH   2   8
HETATM    8  C   UNK A   1     -10.576   8.428  69.606  1.00  0.00    -0.219 C  
BRANCH   8   9
HETATM    9  C   UNK A   1      -9.965   9.721  70.155  1.00  0.00    -0.315 C  
BRANCH   9  10
HETATM   10  C   UNK A   1     -10.600  10.918  69.487  1.00  0.00    -0.175 C  
HETATM   11  O   UNK A   1     -11.815  11.093  69.471  1.00  0.00    -0.295 OA 
HETATM   12  N   UNK A   1      -9.715  11.802  68.929  1.00  0.00    -0.410 N  
HETATM   13  H   UNK A   1      -8.716  11.601  68.976  1.00  0.00     0.000 HD 
BRANCH  12  14
HETATM   14  C   UNK A   1     -10.161  13.024  68.268  1.00  0.00    -0.239 C  
BRANCH  14  15
HETATM   15  C   UNK A   1     -10.198  12.757  66.751  1.00  0.00    -0.239 C  
ATOM     16  H   GLY A   2     -10.721  14.752  66.410  1.00  0.00     0.000 HD 
ATOM     17  N   GLY A   2     -10.583  13.839  65.976  1.00  0.00    -0.286 N  
HETATM   18  O   UNK A   1      -9.826  11.694  66.260  1.00  0.00    -0.207 OA 
BRANCH  17  19
ATOM     19  CA  GLY A   2     -10.793  13.676  64.531  1.00  0.00    -0.406 C  
ATOM     20  C   GLY A   2     -12.259  13.772  64.113  1.00  0.00    -0.396 C  
ATOM     21  O   GLY A   2     -13.106  13.983  65.149  1.00  0.00    -0.776 OA 
ATOM     22  OXT GLY A   2     -12.651  13.629  62.964  1.00  0.00    -0.729 OA 
ENDBRANCH  17  19
ENDBRANCH  14  15
BRANCH  14  23
HETATM   23  C   UNK A   1      -9.219  14.218  68.492  1.00  0.00    -0.197 C  
HETATM   24  S   UNK A   1     -10.008  15.749  69.088  1.00  0.00    -0.258 SA 
HETATM   25  H   UNK A   1      -9.157  16.828  69.291  1.00  0.00     0.000 H  
ENDBRANCH  14  23
ENDBRANCH  12  14
ENDBRANCH   9  10
ENDBRANCH   8   9
ENDBRANCH   2   8
TORSDOF 7
ENDMDL
MODEL       83
REMARK 921   NORMALIZED FREE ENERGY PREDICTED BY IDOCK:   -4.83 KCAL/MOL
REMARK 922        TOTAL FREE ENERGY PREDICTED BY IDOCK:   -7.38 KCAL/MOL
REMARK 923 INTER-LIGAND FREE ENERGY PREDICTED BY IDOCK:   -6.71 KCAL/MOL
REMARK 924 INTRA-LIGAND FREE ENERGY PREDICTED BY IDOCK:   -0.66 KCAL/MOL
REMARK 927      BINDING AFFINITY PREDICTED BY RF-SCORE:    0.00 PKD
ROOT
HETATM    1  N   UNK A   1      -7.907  10.369  70.242  1.00  0.00    -0.420 NA 
HETATM    2  C   UNK A   1      -8.577  10.489  68.913  1.00  0.00    -0.153 C  
HETATM    3  H2  UNK A   1      -8.239  11.089  70.884  1.00  0.00     0.000 HD 
HETATM    4  H1  UNK A   1      -8.003   9.441  70.653  1.00  0.00     0.000 HD 
HETATM    5  O   UNK A   1      -7.176   8.572  68.625  1.00  0.00    -0.077 OA 
HETATM    6  C   UNK A   1      -8.029   9.403  67.972  1.00  0.00    -0.092 C  
HETATM    7  O   UNK A   1      -8.292   9.304  66.784  1.00  0.00    -0.120 OA 
ENDROOT
BRANCH   2   8
HETATM    8  C   UNK A   1      -8.431  11.884  68.296  1.00  0.00    -0.161 C  
BRANCH   8   9
HETATM    9  C   UNK A   1      -9.758  12.591  68.005  1.00  0.00    -0.215 C  
BRANCH   9  10
HETATM   10  C   UNK A   1      -9.860  12.916  66.532  1.00  0.00    -0.254 C  
HETATM   11  O   UNK A   1      -9.302  12.241  65.672  1.00  0.00    -0.137 OA 
HETATM   12  N   UNK A   1     -10.645  13.999  66.234  1.00  0.00    -0.279 N  
HETATM   13  H   UNK A   1     -11.084  14.518  66.995  1.00  0.00     0.000 HD 
BRANCH  12  14
HETATM   14  C   UNK A   1     -10.870  14.431  64.859  1.00  0.00    -0.416 C  
BRANCH  14  15
HETATM   15  C   UNK A   1     -10.933  15.970  64.849  1.00  0.00    -0.384 C  
ATOM     16  H   GLY A   2      -9.704  16.032  66.539  1.00  0.00     0.000 HD 
ATOM     17  N   GLY A   2     -10.267  16.589  65.894  1.00  0.00    -0.350 N  
HETATM   18  O   UNK A   1     -11.455  16.602  63.935  1.00  0.00    -1.186 OA 
BRANCH  17  19
ATOM     19  CA  GLY A   2     -10.367  18.043  66.078  1.00  0.00    -0.331 C  
ATOM     20  C   GLY A   2     -10.608  18.459  67.528  1.00  0.00    -0.416 C  
ATOM     21  O   GLY A   2     -10.694  17.415  68.385  1.00  0.00    -0.358 OA 
ATOM     22  OXT GLY A   2     -10.757  19.618  67.888  1.00  0.00    -0.408 OA 
ENDBRANCH  17  19
ENDBRANCH  14  15
BRANCH  14  23
HETATM   23  C   UNK A   1     -12.195  13.922  64.269  1.00  0.00    -0.408 C  
HETATM   24  S   UNK A   1     -12.157  12.239  63.570  1.00  0.00    -0.551 SA 
HETATM   25  H   UNK A   1     -13.354  11.779  63.037  1.00  0.00     0.000 H  
ENDBRANCH  14  23
ENDBRANCH  12  14
ENDBRANCH   9  10
ENDBRANCH   8   9
ENDBRANCH   2   8
TORSDOF 7
ENDMDL
MODEL       84
REMARK 921   NORMALIZED FREE ENERGY PREDICTED BY IDOCK:   -4.83 KCAL/MOL
REMARK 922        TOTAL FREE ENERGY PREDICTED BY IDOCK:   -7.37 KCAL/MOL
REMARK 923 INTER-LIGAND FREE ENERGY PREDICTED BY IDOCK:   -6.85 KCAL/MOL
REMARK 924 INTRA-LIGAND FREE ENERGY PREDICTED BY IDOCK:   -0.53 KCAL/MOL
REMARK 927      BINDING AFFINITY PREDICTED BY RF-SCORE:    0.00 PKD
ROOT
HETATM    1  N   UNK A   1     -12.443  14.124  63.209  1.00  0.00    -1.098 NA 
HETATM    2  C   UNK A   1     -11.940  14.187  64.613  1.00  0.00    -0.445 C  
HETATM    3  H2  UNK A   1     -12.849  13.210  63.007  1.00  0.00     0.000 HD 
HETATM    4  H1  UNK A   1     -13.100  14.872  62.989  1.00  0.00     0.000 HD 
HETATM    5  O   UNK A   1     -11.484  16.387  63.792  1.00  0.00    -1.002 OA 
HETATM    6  C   UNK A   1     -11.315  15.571  64.864  1.00  0.00    -0.335 C  
HETATM    7  O   UNK A   1     -10.717  15.899  65.876  1.00  0.00    -0.323 OA 
ENDROOT
BRANCH   2   8
HETATM    8  C   UNK A   1     -10.952  13.063  64.943  1.00  0.00    -0.329 C  
BRANCH   8   9
HETATM    9  C   UNK A   1     -11.511  11.977  65.868  1.00  0.00    -0.392 C  
BRANCH   9  10
HETATM   10  C   UNK A   1     -10.396  11.071  66.336  1.00  0.00    -0.250 C  
HETATM   11  O   UNK A   1      -9.582  10.578  65.560  1.00  0.00    -0.199 OA 
HETATM   12  N   UNK A   1     -10.348  10.868  67.690  1.00  0.00    -0.189 N  
HETATM   13  H   UNK A   1     -11.053  11.308  68.282  1.00  0.00     0.000 HD 
BRANCH  12  14
HETATM   14  C   UNK A   1      -9.317  10.041  68.308  1.00  0.00    -0.132 C  
BRANCH  14  15
HETATM   15  C   UNK A   1     -10.006   9.097  69.313  1.00  0.00    -0.187 C  
ATOM     16  H   GLY A   2      -9.960  10.603  70.762  1.00  0.00     0.000 HD 
ATOM     17  N   GLY A   2     -10.186   9.624  70.581  1.00  0.00    -0.288 N  
HETATM   18  O   UNK A   1     -10.444   7.996  68.988  1.00  0.00    -0.218 OA 
BRANCH  17  19
ATOM     19  CA  GLY A   2     -10.703   8.780  71.666  1.00  0.00    -0.327 C  
ATOM     20  C   GLY A   2      -9.622   8.299  72.632  1.00  0.00    -0.282 C  
ATOM     21  O   GLY A   2      -8.378   8.730  72.313  1.00  0.00    -0.367 OA 
ATOM     22  OXT GLY A   2      -9.836   7.558  73.580  1.00  0.00    -0.295 OA 
ENDBRANCH  17  19
ENDBRANCH  14  15
BRANCH  14  23
HETATM   23  C   UNK A   1      -8.274  10.851  69.093  1.00  0.00    -0.084 C  
HETATM   24  S   UNK A   1      -7.311  12.055  68.122  1.00  0.00    -0.103 SA 
HETATM   25  H   UNK A   1      -6.367  12.788  68.831  1.00  0.00     0.000 H  
ENDBRANCH  14  23
ENDBRANCH  12  14
ENDBRANCH   9  10
ENDBRANCH   8   9
ENDBRANCH   2   8
TORSDOF 7
ENDMDL
MODEL       85
REMARK 921   NORMALIZED FREE ENERGY PREDICTED BY IDOCK:   -4.82 KCAL/MOL
REMARK 922        TOTAL FREE ENERGY PREDICTED BY IDOCK:   -7.36 KCAL/MOL
REMARK 923 INTER-LIGAND FREE ENERGY PREDICTED BY IDOCK:   -6.76 KCAL/MOL
REMARK 924 INTRA-LIGAND FREE ENERGY PREDICTED BY IDOCK:   -0.60 KCAL/MOL
REMARK 927      BINDING AFFINITY PREDICTED BY RF-SCORE:    0.00 PKD
ROOT
HETATM    1  N   UNK A   1      -8.559   9.705  70.888  1.00  0.00    -0.363 NA 
HETATM    2  C   UNK A   1      -9.965   9.244  71.083  1.00  0.00    -0.286 C  
HETATM    3  H2  UNK A   1      -8.432  10.651  71.245  1.00  0.00     0.000 HD 
HETATM    4  H1  UNK A   1      -7.872   9.067  71.291  1.00  0.00     0.000 HD 
HETATM    5  O   UNK A   1      -8.921   7.338  70.082  1.00  0.00    -0.147 OA 
HETATM    6  C   UNK A   1     -10.116   7.824  70.508  1.00  0.00    -0.192 C  
HETATM    7  O   UNK A   1     -11.168   7.213  70.413  1.00  0.00    -0.270 OA 
ENDROOT
BRANCH   2   8
HETATM    8  C   UNK A   1     -10.996  10.201  70.477  1.00  0.00    -0.380 C  
BRANCH   8   9
HETATM    9  C   UNK A   1     -12.213  10.471  71.367  1.00  0.00    -0.429 C  
BRANCH   9  10
HETATM   10  C   UNK A   1     -12.627  11.920  71.253  1.00  0.00    -0.277 C  
HETATM   11  O   UNK A   1     -13.475  12.419  71.987  1.00  0.00    -0.489 OA 
HETATM   12  N   UNK A   1     -11.965  12.634  70.290  1.00  0.00    -0.502 N  
HETATM   13  H   UNK A   1     -11.269  12.161  69.712  1.00  0.00     0.000 HD 
BRANCH  12  14
HETATM   14  C   UNK A   1     -12.226  14.052  70.067  1.00  0.00    -0.352 C  
BRANCH  14  15
HETATM   15  C   UNK A   1     -11.926  14.363  68.588  1.00  0.00    -0.297 C  
ATOM     16  H   GLY A   2     -10.498  15.773  69.172  1.00  0.00     0.000 HD 
ATOM     17  N   GLY A   2     -10.997  15.369  68.379  1.00  0.00    -0.270 N  
HETATM   18  O   UNK A   1     -12.406  13.706  67.667  1.00  0.00    -0.257 OA 
BRANCH  17  19
ATOM     19  CA  GLY A   2     -10.728  15.856  67.019  1.00  0.00    -0.292 C  
ATOM     20  C   GLY A   2     -10.452  17.357  66.951  1.00  0.00    -0.279 C  
ATOM     21  O   GLY A   2     -10.512  17.974  68.155  1.00  0.00    -0.376 OA 
ATOM     22  OXT GLY A   2     -10.241  17.964  65.912  1.00  0.00    -0.530 OA 
ENDBRANCH  17  19
ENDBRANCH  14  15
BRANCH  14  23
HETATM   23  C   UNK A   1     -11.335  14.977  70.911  1.00  0.00    -0.265 C  
HETATM   24  S   UNK A   1     -12.107  15.667  72.412  1.00  0.00    -0.512 SA 
HETATM   25  H   UNK A   1     -11.302  16.503  73.175  1.00  0.00     0.000 H  
ENDBRANCH  14  23
ENDBRANCH  12  14
ENDBRANCH   9  10
ENDBRANCH   8   9
ENDBRANCH   2   8
TORSDOF 7
ENDMDL
MODEL       86
REMARK 921   NORMALIZED FREE ENERGY PREDICTED BY IDOCK:   -4.82 KCAL/MOL
REMARK 922        TOTAL FREE ENERGY PREDICTED BY IDOCK:   -7.36 KCAL/MOL
REMARK 923 INTER-LIGAND FREE ENERGY PREDICTED BY IDOCK:   -6.73 KCAL/MOL
REMARK 924 INTRA-LIGAND FREE ENERGY PREDICTED BY IDOCK:   -0.63 KCAL/MOL
REMARK 927      BINDING AFFINITY PREDICTED BY RF-SCORE:    0.00 PKD
ROOT
HETATM    1  N   UNK A   1      -9.615   9.296  65.286  1.00  0.00    -0.455 NA 
HETATM    2  C   UNK A   1     -10.115  10.470  64.511  1.00  0.00    -0.332 C  
HETATM    3  H2  UNK A   1     -10.238   9.079  66.062  1.00  0.00     0.000 HD 
HETATM    4  H1  UNK A   1      -9.458   8.474  64.703  1.00  0.00     0.000 HD 
HETATM    5  O   UNK A   1      -8.147   9.844  63.304  1.00  0.00    -0.137 OA 
HETATM    6  C   UNK A   1      -9.132  10.776  63.367  1.00  0.00    -0.235 C  
HETATM    7  O   UNK A   1      -9.198  11.741  62.623  1.00  0.00    -0.303 OA 
ENDROOT
BRANCH   2   8
HETATM    8  C   UNK A   1     -10.350  11.705  65.386  1.00  0.00    -0.313 C  
BRANCH   8   9
HETATM    9  C   UNK A   1     -11.409  11.519  66.477  1.00  0.00    -0.263 C  
BRANCH   9  10
HETATM   10  C   UNK A   1     -11.857  12.864  66.999  1.00  0.00    -0.374 C  
HETATM   11  O   UNK A   1     -12.362  13.715  66.272  1.00  0.00    -0.432 OA 
HETATM   12  N   UNK A   1     -11.683  13.046  68.346  1.00  0.00    -0.331 N  
HETATM   13  H   UNK A   1     -11.259  12.300  68.897  1.00  0.00     0.000 HD 
BRANCH  12  14
HETATM   14  C   UNK A   1     -12.087  14.278  69.015  1.00  0.00    -0.285 C  
BRANCH  14  15
HETATM   15  C   UNK A   1     -10.911  15.270  68.934  1.00  0.00    -0.261 C  
ATOM     16  H   GLY A   2     -12.055  16.530  67.721  1.00  0.00     0.000 HD 
ATOM     17  N   GLY A   2     -11.132  16.374  68.128  1.00  0.00    -0.346 N  
HETATM   18  O   UNK A   1      -9.891  15.138  69.606  1.00  0.00    -0.219 OA 
BRANCH  17  19
ATOM     19  CA  GLY A   2     -10.043  17.322  67.855  1.00  0.00    -0.317 C  
ATOM     20  C   GLY A   2      -9.756  17.511  66.367  1.00  0.00    -0.288 C  
ATOM     21  O   GLY A   2     -10.553  16.767  65.563  1.00  0.00    -0.496 OA 
ATOM     22  OXT GLY A   2      -8.867  18.227  65.930  1.00  0.00    -0.501 OA 
ENDBRANCH  17  19
ENDBRANCH  14  15
BRANCH  14  23
HETATM   23  C   UNK A   1     -12.413  14.086  70.504  1.00  0.00    -0.359 C  
HETATM   24  S   UNK A   1     -13.182  15.512  71.339  1.00  0.00    -0.481 SA 
HETATM   25  H   UNK A   1     -13.477  15.337  72.685  1.00  0.00     0.000 H  
ENDBRANCH  14  23
ENDBRANCH  12  14
ENDBRANCH   9  10
ENDBRANCH   8   9
ENDBRANCH   2   8
TORSDOF 7
ENDMDL
MODEL       87
REMARK 921   NORMALIZED FREE ENERGY PREDICTED BY IDOCK:   -4.82 KCAL/MOL
REMARK 922        TOTAL FREE ENERGY PREDICTED BY IDOCK:   -7.36 KCAL/MOL
REMARK 923 INTER-LIGAND FREE ENERGY PREDICTED BY IDOCK:   -6.48 KCAL/MOL
REMARK 924 INTRA-LIGAND FREE ENERGY PREDICTED BY IDOCK:   -0.88 KCAL/MOL
REMARK 927      BINDING AFFINITY PREDICTED BY RF-SCORE:    0.00 PKD
ROOT
HETATM    1  N   UNK A   1      -7.675   9.582  63.866  1.00  0.00    -0.117 NA 
HETATM    2  C   UNK A   1      -9.048   9.740  64.430  1.00  0.00    -0.248 C  
HETATM    3  H2  UNK A   1      -7.126   8.926  64.420  1.00  0.00     0.000 HD 
HETATM    4  H1  UNK A   1      -7.679   9.313  62.882  1.00  0.00     0.000 HD 
HETATM    5  O   UNK A   1      -9.110  11.145  62.495  1.00  0.00    -0.330 OA 
HETATM    6  C   UNK A   1      -9.830  10.755  63.577  1.00  0.00    -0.347 C  
HETATM    7  O   UNK A   1     -10.942  11.185  63.841  1.00  0.00    -0.374 OA 
ENDROOT
BRANCH   2   8
HETATM    8  C   UNK A   1      -9.042  10.144  65.908  1.00  0.00    -0.190 C  
BRANCH   8   9
HETATM    9  C   UNK A   1      -8.166  11.358  66.231  1.00  0.00    -0.088 C  
BRANCH   9  10
HETATM   10  C   UNK A   1      -8.962  12.378  67.011  1.00  0.00    -0.209 C  
HETATM   11  O   UNK A   1      -8.465  13.049  67.912  1.00  0.00    -0.161 OA 
HETATM   12  N   UNK A   1     -10.267  12.516  66.616  1.00  0.00    -0.227 N  
HETATM   13  H   UNK A   1     -10.620  11.930  65.859  1.00  0.00     0.000 HD 
BRANCH  12  14
HETATM   14  C   UNK A   1     -11.165  13.477  67.248  1.00  0.00    -0.298 C  
BRANCH  14  15
HETATM   15  C   UNK A   1     -11.816  12.790  68.463  1.00  0.00    -0.306 C  
ATOM     16  H   GLY A   2     -11.849  14.615  69.480  1.00  0.00     0.000 HD 
ATOM     17  N   GLY A   2     -12.029  13.614  69.556  1.00  0.00    -0.330 N  
HETATM   18  O   UNK A   1     -12.201  11.623  68.432  1.00  0.00    -0.498 OA 
BRANCH  17  19
ATOM     19  CA  GLY A   2     -12.513  13.051  70.824  1.00  0.00    -0.302 C  
ATOM     20  C   GLY A   2     -13.345  14.031  71.648  1.00  0.00    -0.367 C  
ATOM     21  O   GLY A   2     -13.484  15.247  71.068  1.00  0.00    -0.465 OA 
ATOM     22  OXT GLY A   2     -13.810  13.772  72.748  1.00  0.00    -0.716 OA 
ENDBRANCH  17  19
ENDBRANCH  14  15
BRANCH  14  23
HETATM   23  C   UNK A   1     -12.305  13.942  66.328  1.00  0.00    -0.449 C  
HETATM   24  S   UNK A   1     -11.810  14.466  64.655  1.00  0.00    -0.455 SA 
HETATM   25  H   UNK A   1     -12.841  14.887  63.823  1.00  0.00     0.000 H  
ENDBRANCH  14  23
ENDBRANCH  12  14
ENDBRANCH   9  10
ENDBRANCH   8   9
ENDBRANCH   2   8
TORSDOF 7
ENDMDL
MODEL       88
REMARK 921   NORMALIZED FREE ENERGY PREDICTED BY IDOCK:   -4.81 KCAL/MOL
REMARK 922        TOTAL FREE ENERGY PREDICTED BY IDOCK:   -7.34 KCAL/MOL
REMARK 923 INTER-LIGAND FREE ENERGY PREDICTED BY IDOCK:   -6.09 KCAL/MOL
REMARK 924 INTRA-LIGAND FREE ENERGY PREDICTED BY IDOCK:   -1.25 KCAL/MOL
REMARK 927      BINDING AFFINITY PREDICTED BY RF-SCORE:    0.00 PKD
ROOT
HETATM    1  N   UNK A   1      -9.885  13.101  65.501  1.00  0.00    -0.466 NA 
HETATM    2  C   UNK A   1     -10.555  13.100  64.166  1.00  0.00    -0.361 C  
HETATM    3  H2  UNK A   1      -9.047  12.521  65.489  1.00  0.00     0.000 HD 
HETATM    4  H1  UNK A   1      -9.675  14.040  65.838  1.00  0.00     0.000 HD 
HETATM    5  O   UNK A   1     -11.936  14.575  65.446  1.00  0.00    -0.362 OA 
HETATM    6  C   UNK A   1     -11.825  13.965  64.238  1.00  0.00    -0.412 C  
HETATM    7  O   UNK A   1     -12.651  14.076  63.346  1.00  0.00    -0.845 OA 
ENDROOT
BRANCH   2   8
HETATM    8  C   UNK A   1     -10.871  11.689  63.660  1.00  0.00    -0.503 C  
BRANCH   8   9
HETATM    9  C   UNK A   1      -9.846  11.123  62.672  1.00  0.00    -0.166 C  
BRANCH   9  10
HETATM   10  C   UNK A   1      -9.217   9.872  63.239  1.00  0.00    -0.238 C  
HETATM   11  O   UNK A   1      -8.856   8.939  62.527  1.00  0.00    -0.202 OA 
HETATM   12  N   UNK A   1      -9.056   9.873  64.599  1.00  0.00    -0.224 N  
HETATM   13  H   UNK A   1      -9.375  10.680  65.136  1.00  0.00     0.000 HD 
BRANCH  12  14
HETATM   14  C   UNK A   1      -8.440   8.753  65.303  1.00  0.00    -0.174 C  
BRANCH  14  15
HETATM   15  C   UNK A   1      -9.086   8.656  66.698  1.00  0.00    -0.165 C  
ATOM     16  H   GLY A   2     -10.365  10.238  66.218  1.00  0.00     0.000 HD 
ATOM     17  N   GLY A   2     -10.058   9.607  66.959  1.00  0.00    -0.200 N  
HETATM   18  O   UNK A   1      -8.823   7.749  67.484  1.00  0.00    -0.124 OA 
BRANCH  17  19
ATOM     19  CA  GLY A   2     -10.651   9.711  68.300  1.00  0.00    -0.225 C  
ATOM     20  C   GLY A   2     -11.656  10.853  68.436  1.00  0.00    -0.276 C  
ATOM     21  O   GLY A   2     -11.818  11.571  67.299  1.00  0.00    -0.609 OA 
ATOM     22  OXT GLY A   2     -12.233  11.132  69.477  1.00  0.00    -0.323 OA 
ENDBRANCH  17  19
ENDBRANCH  14  15
BRANCH  14  23
HETATM   23  C   UNK A   1      -6.928   8.924  65.517  1.00  0.00    -0.080 C  
HETATM   24  S   UNK A   1      -6.391  10.559  66.115  1.00  0.00    -0.129 SA 
HETATM   25  H   UNK A   1      -5.024  10.713  66.309  1.00  0.00     0.000 H  
ENDBRANCH  14  23
ENDBRANCH  12  14
ENDBRANCH   9  10
ENDBRANCH   8   9
ENDBRANCH   2   8
TORSDOF 7
ENDMDL
MODEL       89
REMARK 921   NORMALIZED FREE ENERGY PREDICTED BY IDOCK:   -4.78 KCAL/MOL
REMARK 922        TOTAL FREE ENERGY PREDICTED BY IDOCK:   -7.29 KCAL/MOL
REMARK 923 INTER-LIGAND FREE ENERGY PREDICTED BY IDOCK:   -6.70 KCAL/MOL
REMARK 924 INTRA-LIGAND FREE ENERGY PREDICTED BY IDOCK:   -0.59 KCAL/MOL
REMARK 927      BINDING AFFINITY PREDICTED BY RF-SCORE:    0.00 PKD
ROOT
HETATM    1  N   UNK A   1      -7.121  17.964  68.898  1.00  0.00    -0.269 NA 
HETATM    2  C   UNK A   1      -7.194  19.094  67.925  1.00  0.00    -0.241 C  
HETATM    3  H2  UNK A   1      -7.704  17.184  68.596  1.00  0.00     0.000 HD 
HETATM    4  H1  UNK A   1      -6.165  17.658  69.079  1.00  0.00     0.000 HD 
HETATM    5  O   UNK A   1      -5.644  19.905  69.556  1.00  0.00    -0.221 OA 
HETATM    6  C   UNK A   1      -6.322  20.255  68.432  1.00  0.00    -0.302 C  
HETATM    7  O   UNK A   1      -6.258  21.362  67.921  1.00  0.00    -0.361 OA 
ENDROOT
BRANCH   2   8
HETATM    8  C   UNK A   1      -8.630  19.555  67.654  1.00  0.00    -0.355 C  
BRANCH   8   9
HETATM    9  C   UNK A   1      -9.699  18.488  67.909  1.00  0.00    -0.339 C  
BRANCH   9  10
HETATM   10  C   UNK A   1      -9.587  17.387  66.881  1.00  0.00    -0.277 C  
HETATM   11  O   UNK A   1      -9.743  17.592  65.680  1.00  0.00    -0.532 OA 
HETATM   12  N   UNK A   1      -9.271  16.154  67.389  1.00  0.00    -0.206 N  
HETATM   13  H   UNK A   1      -9.153  16.049  68.397  1.00  0.00     0.000 HD 
BRANCH  12  14
HETATM   14  C   UNK A   1      -9.099  14.988  66.529  1.00  0.00    -0.286 C  
BRANCH  14  15
HETATM   15  C   UNK A   1     -10.499  14.460  66.160  1.00  0.00    -0.291 C  
ATOM     16  H   GLY A   2      -9.977  14.484  64.136  1.00  0.00     0.000 HD 
ATOM     17  N   GLY A   2     -10.735  14.329  64.802  1.00  0.00    -0.422 N  
HETATM   18  O   UNK A   1     -11.309  14.095  67.008  1.00  0.00    -0.306 OA 
BRANCH  17  19
ATOM     19  CA  GLY A   2     -12.074  13.970  64.315  1.00  0.00    -0.445 C  
ATOM     20  C   GLY A   2     -12.209  12.497  63.933  1.00  0.00    -0.503 C  
ATOM     21  O   GLY A   2     -11.069  11.785  64.104  1.00  0.00    -0.332 OA 
ATOM     22  OXT GLY A   2     -13.228  12.003  63.473  1.00  0.00    -0.724 OA 
ENDBRANCH  17  19
ENDBRANCH  14  15
BRANCH  14  23
HETATM   23  C   UNK A   1      -8.346  13.834  67.209  1.00  0.00    -0.174 C  
HETATM   24  S   UNK A   1      -7.112  14.320  68.458  1.00  0.00    -0.115 SA 
HETATM   25  H   UNK A   1      -6.431  13.276  69.073  1.00  0.00     0.000 H  
ENDBRANCH  14  23
ENDBRANCH  12  14
ENDBRANCH   9  10
ENDBRANCH   8   9
ENDBRANCH   2   8
TORSDOF 7
ENDMDL
MODEL       90
REMARK 921   NORMALIZED FREE ENERGY PREDICTED BY IDOCK:   -4.75 KCAL/MOL
REMARK 922        TOTAL FREE ENERGY PREDICTED BY IDOCK:   -7.26 KCAL/MOL
REMARK 923 INTER-LIGAND FREE ENERGY PREDICTED BY IDOCK:   -6.89 KCAL/MOL
REMARK 924 INTRA-LIGAND FREE ENERGY PREDICTED BY IDOCK:   -0.37 KCAL/MOL
REMARK 927      BINDING AFFINITY PREDICTED BY RF-SCORE:    0.00 PKD
ROOT
HETATM    1  N   UNK A   1     -12.118   8.407  70.671  1.00  0.00    -0.493 NA 
HETATM    2  C   UNK A   1     -12.057   9.890  70.832  1.00  0.00    -0.341 C  
HETATM    3  H2  UNK A   1     -11.437   8.087  69.983  1.00  0.00     0.000 HD 
HETATM    4  H1  UNK A   1     -12.008   7.907  71.553  1.00  0.00     0.000 HD 
HETATM    5  O   UNK A   1     -13.738   9.257  72.412  1.00  0.00    -0.465 OA 
HETATM    6  C   UNK A   1     -13.117  10.330  71.857  1.00  0.00    -0.463 C  
HETATM    7  O   UNK A   1     -13.396  11.487  72.127  1.00  0.00    -0.477 OA 
ENDROOT
BRANCH   2   8
HETATM    8  C   UNK A   1     -12.223  10.640  69.506  1.00  0.00    -0.230 C  
BRANCH   8   9
HETATM    9  C   UNK A   1     -11.346  11.889  69.370  1.00  0.00    -0.327 C  
BRANCH   9  10
HETATM   10  C   UNK A   1     -10.271  11.657  68.333  1.00  0.00    -0.207 C  
HETATM   11  O   UNK A   1      -9.231  12.308  68.310  1.00  0.00    -0.196 OA 
HETATM   12  N   UNK A   1     -10.537  10.649  67.444  1.00  0.00    -0.238 N  
HETATM   13  H   UNK A   1     -11.420  10.143  67.517  1.00  0.00     0.000 HD 
BRANCH  12  14
HETATM   14  C   UNK A   1      -9.591  10.278  66.396  1.00  0.00    -0.185 C  
BRANCH  14  15
HETATM   15  C   UNK A   1     -10.039  10.962  65.090  1.00  0.00    -0.292 C  
ATOM     16  H   GLY A   2     -10.189  12.788  66.096  1.00  0.00     0.000 HD 
ATOM     17  N   GLY A   2     -10.354  12.305  65.212  1.00  0.00    -0.275 N  
HETATM   18  O   UNK A   1     -10.027  10.383  64.007  1.00  0.00    -0.323 OA 
BRANCH  17  19
ATOM     19  CA  GLY A   2     -10.926  13.037  64.074  1.00  0.00    -0.389 C  
ATOM     20  C   GLY A   2     -12.055  13.988  64.465  1.00  0.00    -0.459 C  
ATOM     21  O   GLY A   2     -12.333  13.984  65.791  1.00  0.00    -0.430 OA 
ATOM     22  OXT GLY A   2     -12.687  14.662  63.664  1.00  0.00    -0.735 OA 
ENDBRANCH  17  19
ENDBRANCH  14  15
BRANCH  14  23
HETATM   23  C   UNK A   1      -9.547   8.767  66.122  1.00  0.00    -0.253 C  
HETATM   24  S   UNK A   1      -8.336   7.819  67.099  1.00  0.00    -0.118 SA 
HETATM   25  H   UNK A   1      -8.295   6.452  66.851  1.00  0.00     0.000 H  
ENDBRANCH  14  23
ENDBRANCH  12  14
ENDBRANCH   9  10
ENDBRANCH   8   9
ENDBRANCH   2   8
TORSDOF 7
ENDMDL
MODEL       91
REMARK 921   NORMALIZED FREE ENERGY PREDICTED BY IDOCK:   -4.74 KCAL/MOL
REMARK 922        TOTAL FREE ENERGY PREDICTED BY IDOCK:   -7.25 KCAL/MOL
REMARK 923 INTER-LIGAND FREE ENERGY PREDICTED BY IDOCK:   -6.75 KCAL/MOL
REMARK 924 INTRA-LIGAND FREE ENERGY PREDICTED BY IDOCK:   -0.50 KCAL/MOL
REMARK 927      BINDING AFFINITY PREDICTED BY RF-SCORE:    0.00 PKD
ROOT
HETATM    1  N   UNK A   1     -12.517  14.157  63.249  1.00  0.00    -1.098 NA 
HETATM    2  C   UNK A   1     -12.075  14.235  64.673  1.00  0.00    -0.463 C  
HETATM    3  H2  UNK A   1     -12.935  13.249  63.046  1.00  0.00     0.000 HD 
HETATM    4  H1  UNK A   1     -13.146  14.915  62.986  1.00  0.00     0.000 HD 
HETATM    5  O   UNK A   1     -11.532  16.408  63.833  1.00  0.00    -1.063 OA 
HETATM    6  C   UNK A   1     -11.429  15.609  64.926  1.00  0.00    -0.245 C  
HETATM    7  O   UNK A   1     -10.869  15.943  65.957  1.00  0.00    -0.305 OA 
ENDROOT
BRANCH   2   8
HETATM    8  C   UNK A   1     -11.129  13.096  65.067  1.00  0.00    -0.322 C  
BRANCH   8   9
HETATM    9  C   UNK A   1     -11.619  12.240  66.238  1.00  0.00    -0.446 C  
BRANCH   9  10
HETATM   10  C   UNK A   1     -10.532  11.284  66.672  1.00  0.00    -0.247 C  
HETATM   11  O   UNK A   1      -9.434  11.247  66.124  1.00  0.00    -0.195 OA 
HETATM   12  N   UNK A   1     -10.857  10.489  67.739  1.00  0.00    -0.272 N  
HETATM   13  H   UNK A   1     -11.786  10.568  68.153  1.00  0.00     0.000 HD 
BRANCH  12  14
HETATM   14  C   UNK A   1      -9.911   9.530  68.301  1.00  0.00    -0.155 C  
BRANCH  14  15
HETATM   15  C   UNK A   1     -10.320   8.124  67.823  1.00  0.00    -0.233 C  
ATOM     16  H   GLY A   2     -10.427   7.478  69.808  1.00  0.00     0.000 HD 
ATOM     17  N   GLY A   2     -10.483   7.188  68.831  1.00  0.00    -0.203 N  
HETATM   18  O   UNK A   1     -10.573   7.876  66.646  1.00  0.00    -0.276 OA 
BRANCH  17  19
ATOM     19  CA  GLY A   2     -10.736   5.779  68.499  1.00  0.00    -0.217 C  
ATOM     20  C   GLY A   2      -9.581   4.849  68.868  1.00  0.00    -0.158 C  
ATOM     21  O   GLY A   2      -8.527   5.489  69.429  1.00  0.00    -0.103 OA 
ATOM     22  OXT GLY A   2      -9.576   3.648  68.643  1.00  0.00    -0.161 OA 
ENDBRANCH  17  19
ENDBRANCH  14  15
BRANCH  14  23
HETATM   23  C   UNK A   1      -9.909   9.502  69.837  1.00  0.00    -0.226 C  
HETATM   24  S   UNK A   1     -11.417  10.134  70.642  1.00  0.00    -0.368 SA 
HETATM   25  H   UNK A   1     -11.416  10.108  72.032  1.00  0.00     0.000 H  
ENDBRANCH  14  23
ENDBRANCH  12  14
ENDBRANCH   9  10
ENDBRANCH   8   9
ENDBRANCH   2   8
TORSDOF 7
ENDMDL
MODEL       92
REMARK 921   NORMALIZED FREE ENERGY PREDICTED BY IDOCK:   -4.74 KCAL/MOL
REMARK 922        TOTAL FREE ENERGY PREDICTED BY IDOCK:   -7.25 KCAL/MOL
REMARK 923 INTER-LIGAND FREE ENERGY PREDICTED BY IDOCK:   -6.96 KCAL/MOL
REMARK 924 INTRA-LIGAND FREE ENERGY PREDICTED BY IDOCK:   -0.29 KCAL/MOL
REMARK 927      BINDING AFFINITY PREDICTED BY RF-SCORE:    0.00 PKD
ROOT
HETATM    1  N   UNK A   1      -9.975  12.582  65.512  1.00  0.00    -0.322 NA 
HETATM    2  C   UNK A   1     -11.423  12.339  65.783  1.00  0.00    -0.367 C  
HETATM    3  H2  UNK A   1      -9.397  11.867  65.953  1.00  0.00     0.000 HD 
HETATM    4  H1  UNK A   1      -9.766  12.658  64.517  1.00  0.00     0.000 HD 
HETATM    5  O   UNK A   1     -11.468  14.282  64.388  1.00  0.00    -0.366 OA 
HETATM    6  C   UNK A   1     -12.254  13.452  65.121  1.00  0.00    -0.434 C  
HETATM    7  O   UNK A   1     -13.459  13.602  65.251  1.00  0.00    -0.541 OA 
ENDROOT
BRANCH   2   8
HETATM    8  C   UNK A   1     -11.738  12.225  67.278  1.00  0.00    -0.394 C  
BRANCH   8   9
HETATM    9  C   UNK A   1     -11.363  10.879  67.906  1.00  0.00    -0.380 C  
BRANCH   9  10
HETATM   10  C   UNK A   1     -11.557  10.934  69.403  1.00  0.00    -0.316 C  
HETATM   11  O   UNK A   1     -11.670  11.995  70.012  1.00  0.00    -0.312 OA 
HETATM   12  N   UNK A   1     -11.626   9.713  70.020  1.00  0.00    -0.422 N  
HETATM   13  H   UNK A   1     -11.526   8.867  69.459  1.00  0.00     0.000 HD 
BRANCH  12  14
HETATM   14  C   UNK A   1     -11.837   9.588  71.459  1.00  0.00    -0.405 C  
BRANCH  14  15
HETATM   15  C   UNK A   1     -11.435   8.160  71.875  1.00  0.00    -0.299 C  
ATOM     16  H   GLY A   2     -11.116   7.663  69.869  1.00  0.00     0.000 HD 
ATOM     17  N   GLY A   2     -11.147   7.304  70.824  1.00  0.00    -0.259 N  
HETATM   18  O   UNK A   1     -11.291   7.832  73.050  1.00  0.00    -0.399 OA 
BRANCH  17  19
ATOM     19  CA  GLY A   2     -10.887   5.881  71.079  1.00  0.00    -0.273 C  
ATOM     20  C   GLY A   2      -9.927   5.246  70.075  1.00  0.00    -0.245 C  
ATOM     21  O   GLY A   2      -9.491   6.106  69.124  1.00  0.00    -0.131 OA 
ATOM     22  OXT GLY A   2      -9.609   4.066  70.089  1.00  0.00    -0.173 OA 
ENDBRANCH  17  19
ENDBRANCH  14  15
BRANCH  14  23
HETATM   23  C   UNK A   1     -13.301   9.785  71.880  1.00  0.00    -0.436 C  
HETATM   24  S   UNK A   1     -14.377   8.324  71.716  1.00  0.00    -0.483 SA 
HETATM   25  H   UNK A   1     -15.701   8.502  72.097  1.00  0.00     0.000 H  
ENDBRANCH  14  23
ENDBRANCH  12  14
ENDBRANCH   9  10
ENDBRANCH   8   9
ENDBRANCH   2   8
TORSDOF 7
ENDMDL
MODEL       93
REMARK 921   NORMALIZED FREE ENERGY PREDICTED BY IDOCK:   -4.73 KCAL/MOL
REMARK 922        TOTAL FREE ENERGY PREDICTED BY IDOCK:   -7.22 KCAL/MOL
REMARK 923 INTER-LIGAND FREE ENERGY PREDICTED BY IDOCK:   -6.26 KCAL/MOL
REMARK 924 INTRA-LIGAND FREE ENERGY PREDICTED BY IDOCK:   -0.97 KCAL/MOL
REMARK 927      BINDING AFFINITY PREDICTED BY RF-SCORE:    0.00 PKD
ROOT
HETATM    1  N   UNK A   1      -8.873  20.781  67.032  1.00  0.00    -0.587 NA 
HETATM    2  C   UNK A   1      -8.833  19.290  66.960  1.00  0.00    -0.293 C  
HETATM    3  H2  UNK A   1      -8.067  21.143  67.540  1.00  0.00     0.000 HD 
HETATM    4  H1  UNK A   1      -8.953  21.220  66.115  1.00  0.00     0.000 HD 
HETATM    5  O   UNK A   1     -10.810  19.823  65.724  1.00  0.00    -0.458 OA 
HETATM    6  C   UNK A   1     -10.077  18.787  66.208  1.00  0.00    -0.409 C  
HETATM    7  O   UNK A   1     -10.395  17.616  66.078  1.00  0.00    -0.432 OA 
ENDROOT
BRANCH   2   8
HETATM    8  C   UNK A   1      -8.712  18.630  68.337  1.00  0.00    -0.361 C  
BRANCH   8   9
HETATM    9  C   UNK A   1      -7.719  17.466  68.400  1.00  0.00    -0.258 C  
BRANCH   9  10
HETATM   10  C   UNK A   1      -8.386  16.246  68.990  1.00  0.00    -0.239 C  
HETATM   11  O   UNK A   1      -7.759  15.386  69.602  1.00  0.00    -0.217 OA 
HETATM   12  N   UNK A   1      -9.743  16.190  68.813  1.00  0.00    -0.222 N  
HETATM   13  H   UNK A   1     -10.208  16.937  68.296  1.00  0.00     0.000 HD 
BRANCH  12  14
HETATM   14  C   UNK A   1     -10.544  15.091  69.344  1.00  0.00    -0.256 C  
BRANCH  14  15
HETATM   15  C   UNK A   1     -11.095  14.286  68.151  1.00  0.00    -0.258 C  
ATOM     16  H   GLY A   2     -10.497  12.508  69.074  1.00  0.00     0.000 HD 
ATOM     17  N   GLY A   2     -10.892  12.918  68.227  1.00  0.00    -0.233 N  
HETATM   18  O   UNK A   1     -11.744  14.808  67.248  1.00  0.00    -0.379 OA 
BRANCH  17  19
ATOM     19  CA  GLY A   2     -11.245  12.054  67.092  1.00  0.00    -0.316 C  
ATOM     20  C   GLY A   2     -10.225  10.948  66.827  1.00  0.00    -0.231 C  
ATOM     21  O   GLY A   2      -9.174  10.963  67.682  1.00  0.00    -0.150 OA 
ATOM     22  OXT GLY A   2     -10.312  10.146  65.909  1.00  0.00    -0.229 OA 
ENDBRANCH  17  19
ENDBRANCH  14  15
BRANCH  14  23
HETATM   23  C   UNK A   1     -11.754  15.560  70.168  1.00  0.00    -0.347 C  
HETATM   24  S   UNK A   1     -12.519  14.301  71.240  1.00  0.00    -0.382 SA 
HETATM   25  H   UNK A   1     -13.612  14.725  71.986  1.00  0.00     0.000 H  
ENDBRANCH  14  23
ENDBRANCH  12  14
ENDBRANCH   9  10
ENDBRANCH   8   9
ENDBRANCH   2   8
TORSDOF 7
ENDMDL
MODEL       94
REMARK 921   NORMALIZED FREE ENERGY PREDICTED BY IDOCK:   -4.73 KCAL/MOL
REMARK 922        TOTAL FREE ENERGY PREDICTED BY IDOCK:   -7.22 KCAL/MOL
REMARK 923 INTER-LIGAND FREE ENERGY PREDICTED BY IDOCK:   -6.53 KCAL/MOL
REMARK 924 INTRA-LIGAND FREE ENERGY PREDICTED BY IDOCK:   -0.69 KCAL/MOL
REMARK 927      BINDING AFFINITY PREDICTED BY RF-SCORE:    0.00 PKD
ROOT
HETATM    1  N   UNK A   1     -10.347   9.928  70.749  1.00  0.00    -0.365 NA 
HETATM    2  C   UNK A   1     -11.116  10.005  69.472  1.00  0.00    -0.238 C  
HETATM    3  H2  UNK A   1     -10.812  10.456  71.488  1.00  0.00     0.000 HD 
HETATM    4  H1  UNK A   1     -10.166   8.969  71.046  1.00  0.00     0.000 HD 
HETATM    5  O   UNK A   1      -9.282   8.582  68.896  1.00  0.00    -0.146 OA 
HETATM    6  C   UNK A   1     -10.367   9.217  68.383  1.00  0.00    -0.209 C  
HETATM    7  O   UNK A   1     -10.677   9.180  67.203  1.00  0.00    -0.255 OA 
ENDROOT
BRANCH   2   8
HETATM    8  C   UNK A   1     -11.389  11.446  69.027  1.00  0.00    -0.345 C  
BRANCH   8   9
HETATM    9  C   UNK A   1     -12.055  12.324  70.090  1.00  0.00    -0.364 C  
BRANCH   9  10
HETATM   10  C   UNK A   1     -11.673  13.771  69.881  1.00  0.00    -0.284 C  
HETATM   11  O   UNK A   1     -12.219  14.688  70.488  1.00  0.00    -0.283 OA 
HETATM   12  N   UNK A   1     -10.656  13.975  68.987  1.00  0.00    -0.344 N  
HETATM   13  H   UNK A   1     -10.241  13.170  68.515  1.00  0.00     0.000 HD 
BRANCH  12  14
HETATM   14  C   UNK A   1     -10.148  15.310  68.689  1.00  0.00    -0.222 C  
BRANCH  14  15
HETATM   15  C   UNK A   1     -10.125  15.479  67.158  1.00  0.00    -0.254 C  
ATOM     16  H   GLY A   2     -11.722  14.141  66.985  1.00  0.00     0.000 HD 
ATOM     17  N   GLY A   2     -11.037  14.696  66.470  1.00  0.00    -0.323 N  
HETATM   18  O   UNK A   1      -9.417  16.312  66.598  1.00  0.00    -0.223 OA 
BRANCH  17  19
ATOM     19  CA  GLY A   2     -11.022  14.660  65.002  1.00  0.00    -0.405 C  
ATOM     20  C   GLY A   2     -12.309  14.106  64.392  1.00  0.00    -0.381 C  
ATOM     21  O   GLY A   2     -13.232  13.741  65.312  1.00  0.00    -0.755 OA 
ATOM     22  OXT GLY A   2     -12.485  13.960  63.191  1.00  0.00    -0.766 OA 
ENDBRANCH  17  19
ENDBRANCH  14  15
BRANCH  14  23
HETATM   23  C   UNK A   1      -8.713  15.542  69.190  1.00  0.00    -0.247 C  
HETATM   24  S   UNK A   1      -7.510  14.235  68.783  1.00  0.00    -0.127 SA 
HETATM   25  H   UNK A   1      -6.213  14.446  69.235  1.00  0.00     0.000 H  
ENDBRANCH  14  23
ENDBRANCH  12  14
ENDBRANCH   9  10
ENDBRANCH   8   9
ENDBRANCH   2   8
TORSDOF 7
ENDMDL
MODEL       95
REMARK 921   NORMALIZED FREE ENERGY PREDICTED BY IDOCK:   -4.73 KCAL/MOL
REMARK 922        TOTAL FREE ENERGY PREDICTED BY IDOCK:   -7.22 KCAL/MOL
REMARK 923 INTER-LIGAND FREE ENERGY PREDICTED BY IDOCK:   -6.54 KCAL/MOL
REMARK 924 INTRA-LIGAND FREE ENERGY PREDICTED BY IDOCK:   -0.69 KCAL/MOL
REMARK 927      BINDING AFFINITY PREDICTED BY RF-SCORE:    0.00 PKD
ROOT
HETATM    1  N   UNK A   1      -7.772  10.263  66.668  1.00  0.00    -0.110 NA 
HETATM    2  C   UNK A   1      -8.329   8.921  67.011  1.00  0.00    -0.106 C  
HETATM    3  H2  UNK A   1      -6.834  10.377  67.049  1.00  0.00     0.000 HD 
HETATM    4  H1  UNK A   1      -7.785  10.454  65.666  1.00  0.00     0.000 HD 
HETATM    5  O   UNK A   1     -10.073   9.893  65.694  1.00  0.00    -0.289 OA 
HETATM    6  C   UNK A   1      -9.752   8.804  66.438  1.00  0.00    -0.265 C  
HETATM    7  O   UNK A   1     -10.517   7.874  66.641  1.00  0.00    -0.296 OA 
ENDROOT
BRANCH   2   8
HETATM    8  C   UNK A   1      -8.310   8.635  68.515  1.00  0.00    -0.123 C  
BRANCH   8   9
HETATM    9  C   UNK A   1      -8.569   9.859  69.398  1.00  0.00    -0.180 C  
BRANCH   9  10
HETATM   10  C   UNK A   1     -10.052  10.138  69.477  1.00  0.00    -0.235 C  
HETATM   11  O   UNK A   1     -10.872   9.259  69.727  1.00  0.00    -0.230 OA 
HETATM   12  N   UNK A   1     -10.403  11.447  69.278  1.00  0.00    -0.419 N  
HETATM   13  H   UNK A   1      -9.674  12.131  69.075  1.00  0.00     0.000 HD 
BRANCH  12  14
HETATM   14  C   UNK A   1     -11.792  11.890  69.346  1.00  0.00    -0.327 C  
BRANCH  14  15
HETATM   15  C   UNK A   1     -11.923  13.170  68.499  1.00  0.00    -0.289 C  
ATOM     16  H   GLY A   2     -12.003  12.014  66.760  1.00  0.00     0.000 HD 
ATOM     17  N   GLY A   2     -11.963  12.964  67.130  1.00  0.00    -0.356 N  
HETATM   18  O   UNK A   1     -12.075  14.281  69.003  1.00  0.00    -0.326 OA 
BRANCH  17  19
ATOM     19  CA  GLY A   2     -11.946  14.108  66.209  1.00  0.00    -0.429 C  
ATOM     20  C   GLY A   2     -12.542  13.796  64.837  1.00  0.00    -0.341 C  
ATOM     21  O   GLY A   2     -12.974  12.518  64.712  1.00  0.00    -0.827 OA 
ATOM     22  OXT GLY A   2     -12.591  14.599  63.917  1.00  0.00    -0.834 OA 
ENDBRANCH  17  19
ENDBRANCH  14  15
BRANCH  14  23
HETATM   23  C   UNK A   1     -12.250  12.242  70.770  1.00  0.00    -0.260 C  
HETATM   24  S   UNK A   1     -13.220  10.961  71.630  1.00  0.00    -0.294 SA 
HETATM   25  H   UNK A   1     -13.634  11.279  72.918  1.00  0.00     0.000 H  
ENDBRANCH  14  23
ENDBRANCH  12  14
ENDBRANCH   9  10
ENDBRANCH   8   9
ENDBRANCH   2   8
TORSDOF 7
ENDMDL
MODEL       96
REMARK 921   NORMALIZED FREE ENERGY PREDICTED BY IDOCK:   -4.72 KCAL/MOL
REMARK 922        TOTAL FREE ENERGY PREDICTED BY IDOCK:   -7.22 KCAL/MOL
REMARK 923 INTER-LIGAND FREE ENERGY PREDICTED BY IDOCK:   -6.60 KCAL/MOL
REMARK 924 INTRA-LIGAND FREE ENERGY PREDICTED BY IDOCK:   -0.62 KCAL/MOL
REMARK 927      BINDING AFFINITY PREDICTED BY RF-SCORE:    0.00 PKD
ROOT
HETATM    1  N   UNK A   1     -11.313   4.366  64.924  1.00  0.00    -1.085 NA 
HETATM    2  C   UNK A   1     -10.100   4.914  65.599  1.00  0.00    -0.127 C  
HETATM    3  H2  UNK A   1     -12.073   5.046  64.932  1.00  0.00     0.000 HD 
HETATM    4  H1  UNK A   1     -11.126   4.039  63.977  1.00  0.00     0.000 HD 
HETATM    5  O   UNK A   1      -9.370   2.752  64.880  1.00  0.00    -0.149 OA 
HETATM    6  C   UNK A   1      -8.990   3.848  65.586  1.00  0.00    -0.133 C  
HETATM    7  O   UNK A   1      -7.915   3.945  66.156  1.00  0.00    -0.093 OA 
ENDROOT
BRANCH   2   8
HETATM    8  C   UNK A   1     -10.380   5.406  67.023  1.00  0.00    -0.299 C  
BRANCH   8   9
HETATM    9  C   UNK A   1     -11.252   6.663  67.100  1.00  0.00    -0.306 C  
BRANCH   9  10
HETATM   10  C   UNK A   1     -10.380   7.894  67.181  1.00  0.00    -0.328 C  
HETATM   11  O   UNK A   1     -10.032   8.383  68.252  1.00  0.00    -0.174 OA 
HETATM   12  N   UNK A   1      -9.987   8.402  65.970  1.00  0.00    -0.462 N  
HETATM   13  H   UNK A   1     -10.309   7.949  65.115  1.00  0.00     0.000 HD 
BRANCH  12  14
HETATM   14  C   UNK A   1      -9.121   9.572  65.871  1.00  0.00    -0.184 C  
BRANCH  14  15
HETATM   15  C   UNK A   1      -9.538  10.365  64.617  1.00  0.00    -0.300 C  
ATOM     16  H   GLY A   2     -10.118  11.970  65.823  1.00  0.00     0.000 HD 
ATOM     17  N   GLY A   2     -10.098  11.606  64.870  1.00  0.00    -0.251 N  
HETATM   18  O   UNK A   1      -9.306   9.966  63.479  1.00  0.00    -0.272 OA 
BRANCH  17  19
ATOM     19  CA  GLY A   2     -10.663  12.400  63.771  1.00  0.00    -0.451 C  
ATOM     20  C   GLY A   2     -12.100  12.853  64.022  1.00  0.00    -0.455 C  
ATOM     21  O   GLY A   2     -12.601  12.437  65.210  1.00  0.00    -0.636 OA 
ATOM     22  OXT GLY A   2     -12.763  13.492  63.218  1.00  0.00    -0.726 OA 
ENDBRANCH  17  19
ENDBRANCH  14  15
BRANCH  14  23
HETATM   23  C   UNK A   1      -7.634   9.219  65.708  1.00  0.00    -0.098 C  
HETATM   24  S   UNK A   1      -7.271   7.475  65.323  1.00  0.00    -0.068 SA 
HETATM   25  H   UNK A   1      -5.927   7.156  65.176  1.00  0.00     0.000 H  
ENDBRANCH  14  23
ENDBRANCH  12  14
ENDBRANCH   9  10
ENDBRANCH   8   9
ENDBRANCH   2   8
TORSDOF 7
ENDMDL
MODEL       97
REMARK 921   NORMALIZED FREE ENERGY PREDICTED BY IDOCK:   -4.72 KCAL/MOL
REMARK 922        TOTAL FREE ENERGY PREDICTED BY IDOCK:   -7.22 KCAL/MOL
REMARK 923 INTER-LIGAND FREE ENERGY PREDICTED BY IDOCK:   -6.71 KCAL/MOL
REMARK 924 INTRA-LIGAND FREE ENERGY PREDICTED BY IDOCK:   -0.51 KCAL/MOL
REMARK 927      BINDING AFFINITY PREDICTED BY RF-SCORE:    0.00 PKD
ROOT
HETATM    1  N   UNK A   1     -10.638  17.734  65.380  1.00  0.00    -0.614 NA 
HETATM    2  C   UNK A   1     -10.472  17.914  66.853  1.00  0.00    -0.329 C  
HETATM    3  H2  UNK A   1     -11.122  16.862  65.171  1.00  0.00     0.000 HD 
HETATM    4  H1  UNK A   1     -11.103  18.525  64.934  1.00  0.00     0.000 HD 
HETATM    5  O   UNK A   1      -9.505  19.914  65.967  1.00  0.00    -0.396 OA 
HETATM    6  C   UNK A   1      -9.717  19.228  67.119  1.00  0.00    -0.330 C  
HETATM    7  O   UNK A   1      -9.327  19.605  68.213  1.00  0.00    -0.336 OA 
ENDROOT
BRANCH   2   8
HETATM    8  C   UNK A   1      -9.773  16.726  67.523  1.00  0.00    -0.252 C  
BRANCH   8   9
HETATM    9  C   UNK A   1     -10.559  16.094  68.675  1.00  0.00    -0.283 C  
BRANCH   9  10
HETATM   10  C   UNK A   1     -11.439  14.981  68.154  1.00  0.00    -0.339 C  
HETATM   11  O   UNK A   1     -12.227  14.376  68.874  1.00  0.00    -0.281 OA 
HETATM   12  N   UNK A   1     -11.308  14.724  66.815  1.00  0.00    -0.347 N  
HETATM   13  H   UNK A   1     -10.636  15.263  66.269  1.00  0.00     0.000 HD 
BRANCH  12  14
HETATM   14  C   UNK A   1     -12.104  13.699  66.146  1.00  0.00    -0.436 C  
BRANCH  14  15
HETATM   15  C   UNK A   1     -11.440  12.335  66.412  1.00  0.00    -0.378 C  
ATOM     16  H   GLY A   2      -9.750  12.947  65.345  1.00  0.00     0.000 HD 
ATOM     17  N   GLY A   2     -10.198  12.164  65.823  1.00  0.00    -0.247 N  
HETATM   18  O   UNK A   1     -11.933  11.498  67.164  1.00  0.00    -0.581 OA 
BRANCH  17  19
ATOM     19  CA  GLY A   2      -9.523  10.861  65.883  1.00  0.00    -0.207 C  
ATOM     20  C   GLY A   2      -9.168  10.293  64.510  1.00  0.00    -0.250 C  
ATOM     21  O   GLY A   2      -9.545  11.089  63.480  1.00  0.00    -0.251 OA 
ATOM     22  OXT GLY A   2      -8.636   9.207  64.339  1.00  0.00    -0.186 OA 
ENDBRANCH  17  19
ENDBRANCH  14  15
BRANCH  14  23
HETATM   23  C   UNK A   1     -12.174  13.878  64.622  1.00  0.00    -0.419 C  
HETATM   24  S   UNK A   1     -12.717  12.418  63.677  1.00  0.00    -0.252 SA 
HETATM   25  H   UNK A   1     -12.780  12.579  62.298  1.00  0.00     0.000 H  
ENDBRANCH  14  23
ENDBRANCH  12  14
ENDBRANCH   9  10
ENDBRANCH   8   9
ENDBRANCH   2   8
TORSDOF 7
ENDMDL
MODEL       98
REMARK 921   NORMALIZED FREE ENERGY PREDICTED BY IDOCK:   -4.72 KCAL/MOL
REMARK 922        TOTAL FREE ENERGY PREDICTED BY IDOCK:   -7.21 KCAL/MOL
REMARK 923 INTER-LIGAND FREE ENERGY PREDICTED BY IDOCK:   -6.61 KCAL/MOL
REMARK 924 INTRA-LIGAND FREE ENERGY PREDICTED BY IDOCK:   -0.60 KCAL/MOL
REMARK 927      BINDING AFFINITY PREDICTED BY RF-SCORE:    0.00 PKD
ROOT
HETATM    1  N   UNK A   1      -9.929  20.372  65.903  1.00  0.00    -0.602 NA 
HETATM    2  C   UNK A   1      -9.319  20.592  67.248  1.00  0.00    -0.340 C  
HETATM    3  H2  UNK A   1     -10.919  20.617  65.907  1.00  0.00     0.000 HD 
HETATM    4  H1  UNK A   1      -9.435  20.862  65.158  1.00  0.00     0.000 HD 
HETATM    5  O   UNK A   1      -7.459  19.845  65.942  1.00  0.00    -0.313 OA 
HETATM    6  C   UNK A   1      -7.836  20.187  67.202  1.00  0.00    -0.322 C  
HETATM    7  O   UNK A   1      -7.088  20.143  68.166  1.00  0.00    -0.283 OA 
ENDROOT
BRANCH   2   8
HETATM    8  C   UNK A   1     -10.062  19.856  68.368  1.00  0.00    -0.557 C  
BRANCH   8   9
HETATM    9  C   UNK A   1     -10.986  18.734  67.885  1.00  0.00    -0.118 C  
BRANCH   9  10
HETATM   10  C   UNK A   1     -10.404  17.389  68.253  1.00  0.00    -0.374 C  
HETATM   11  O   UNK A   1      -9.197  17.214  68.400  1.00  0.00    -0.250 OA 
HETATM   12  N   UNK A   1     -11.326  16.392  68.437  1.00  0.00    -0.335 N  
HETATM   13  H   UNK A   1     -12.316  16.601  68.301  1.00  0.00     0.000 HD 
BRANCH  12  14
HETATM   14  C   UNK A   1     -10.933  15.041  68.821  1.00  0.00    -0.255 C  
BRANCH  14  15
HETATM   15  C   UNK A   1     -10.691  14.233  67.532  1.00  0.00    -0.270 C  
ATOM     16  H   GLY A   2      -9.627  12.804  68.626  1.00  0.00     0.000 HD 
ATOM     17  N   GLY A   2      -9.911  13.099  67.691  1.00  0.00    -0.214 N  
HETATM   18  O   UNK A   1     -11.224  14.521  66.464  1.00  0.00    -0.329 OA 
BRANCH  17  19
ATOM     19  CA  GLY A   2      -9.490  12.320  66.518  1.00  0.00    -0.236 C  
ATOM     20  C   GLY A   2     -10.463  11.202  66.148  1.00  0.00    -0.253 C  
ATOM     21  O   GLY A   2     -11.537  11.123  66.969  1.00  0.00    -0.463 OA 
ATOM     22  OXT GLY A   2     -10.281  10.418  65.228  1.00  0.00    -0.299 OA 
ENDBRANCH  17  19
ENDBRANCH  14  15
BRANCH  14  23
HETATM   23  C   UNK A   1     -12.012  14.296  69.624  1.00  0.00    -0.336 C  
HETATM   24  S   UNK A   1     -12.896  15.287  70.872  1.00  0.00    -0.461 SA 
HETATM   25  H   UNK A   1     -13.871  14.614  71.598  1.00  0.00     0.000 H  
ENDBRANCH  14  23
ENDBRANCH  12  14
ENDBRANCH   9  10
ENDBRANCH   8   9
ENDBRANCH   2   8
TORSDOF 7
ENDMDL
MODEL       99
REMARK 921   NORMALIZED FREE ENERGY PREDICTED BY IDOCK:   -4.71 KCAL/MOL
REMARK 922        TOTAL FREE ENERGY PREDICTED BY IDOCK:   -7.20 KCAL/MOL
REMARK 923 INTER-LIGAND FREE ENERGY PREDICTED BY IDOCK:   -6.37 KCAL/MOL
REMARK 924 INTRA-LIGAND FREE ENERGY PREDICTED BY IDOCK:   -0.84 KCAL/MOL
REMARK 927      BINDING AFFINITY PREDICTED BY RF-SCORE:    0.00 PKD
ROOT
HETATM    1  N   UNK A   1      -7.337  18.297  65.397  1.00  0.00    -0.459 NA 
HETATM    2  C   UNK A   1      -6.891  19.567  66.042  1.00  0.00    -0.251 C  
HETATM    3  H2  UNK A   1      -8.135  18.460  64.783  1.00  0.00     0.000 HD 
HETATM    4  H1  UNK A   1      -6.586  17.820  64.898  1.00  0.00     0.000 HD 
HETATM    5  O   UNK A   1      -5.318  17.970  66.879  1.00  0.00    -0.129 OA 
HETATM    6  C   UNK A   1      -5.704  19.269  66.975  1.00  0.00    -0.170 C  
HETATM    7  O   UNK A   1      -5.185  20.074  67.731  1.00  0.00    -0.178 OA 
ENDROOT
BRANCH   2   8
HETATM    8  C   UNK A   1      -8.020  20.283  66.791  1.00  0.00    -0.330 C  
BRANCH   8   9
HETATM    9  C   UNK A   1      -8.602  19.493  67.968  1.00  0.00    -0.365 C  
BRANCH   9  10
HETATM   10  C   UNK A   1      -9.831  18.733  67.524  1.00  0.00    -0.320 C  
HETATM   11  O   UNK A   1     -10.927  19.273  67.400  1.00  0.00    -0.484 OA 
HETATM   12  N   UNK A   1      -9.619  17.409  67.244  1.00  0.00    -0.253 N  
HETATM   13  H   UNK A   1      -8.683  17.020  67.365  1.00  0.00     0.000 HD 
BRANCH  12  14
HETATM   14  C   UNK A   1     -10.694  16.539  66.778  1.00  0.00    -0.155 C  
BRANCH  14  15
HETATM   15  C   UNK A   1     -10.962  15.488  67.872  1.00  0.00    -0.316 C  
ATOM     16  H   GLY A   2      -9.837  14.087  66.804  1.00  0.00     0.000 HD 
ATOM     17  N   GLY A   2     -10.436  14.232  67.616  1.00  0.00    -0.247 N  
HETATM   18  O   UNK A   1     -11.518  15.767  68.931  1.00  0.00    -0.334 OA 
BRANCH  17  19
ATOM     19  CA  GLY A   2     -10.740  13.107  68.512  1.00  0.00    -0.259 C  
ATOM     20  C   GLY A   2     -11.748  12.119  67.930  1.00  0.00    -0.336 C  
ATOM     21  O   GLY A   2     -12.189  12.457  66.694  1.00  0.00    -0.562 OA 
ATOM     22  OXT GLY A   2     -12.161  11.136  68.527  1.00  0.00    -0.600 OA 
ENDBRANCH  17  19
ENDBRANCH  14  15
BRANCH  14  23
HETATM   23  C   UNK A   1     -10.345  15.773  65.492  1.00  0.00    -0.404 C  
HETATM   24  S   UNK A   1     -11.760  15.278  64.456  1.00  0.00    -0.215 SA 
HETATM   25  H   UNK A   1     -11.444  14.585  63.293  1.00  0.00     0.000 H  
ENDBRANCH  14  23
ENDBRANCH  12  14
ENDBRANCH   9  10
ENDBRANCH   8   9
ENDBRANCH   2   8
TORSDOF 7
ENDMDL
MODEL      100
REMARK 921   NORMALIZED FREE ENERGY PREDICTED BY IDOCK:   -4.69 KCAL/MOL
REMARK 922        TOTAL FREE ENERGY PREDICTED BY IDOCK:   -7.17 KCAL/MOL
REMARK 923 INTER-LIGAND FREE ENERGY PREDICTED BY IDOCK:   -6.57 KCAL/MOL
REMARK 924 INTRA-LIGAND FREE ENERGY PREDICTED BY IDOCK:   -0.61 KCAL/MOL
REMARK 927      BINDING AFFINITY PREDICTED BY RF-SCORE:    0.00 PKD
ROOT
HETATM    1  N   UNK A   1      -9.351   7.674  70.075  1.00  0.00    -0.154 NA 
HETATM    2  C   UNK A   1     -10.466   8.017  71.005  1.00  0.00    -0.203 C  
HETATM    3  H2  UNK A   1      -8.525   8.240  70.270  1.00  0.00     0.000 HD 
HETATM    4  H1  UNK A   1      -9.121   6.680  70.080  1.00  0.00     0.000 HD 
HETATM    5  O   UNK A   1     -11.406   6.257  69.685  1.00  0.00    -0.405 OA 
HETATM    6  C   UNK A   1     -11.695   7.159  70.658  1.00  0.00    -0.307 C  
HETATM    7  O   UNK A   1     -12.801   7.279  71.161  1.00  0.00    -0.351 OA 
ENDROOT
BRANCH   2   8
HETATM    8  C   UNK A   1     -10.811   9.510  70.998  1.00  0.00    -0.423 C  
BRANCH   8   9
HETATM    9  C   UNK A   1     -10.348  10.262  69.747  1.00  0.00    -0.287 C  
BRANCH   9  10
HETATM   10  C   UNK A   1     -11.421  11.224  69.293  1.00  0.00    -0.301 C  
HETATM   11  O   UNK A   1     -12.608  10.910  69.251  1.00  0.00    -0.356 OA 
HETATM   12  N   UNK A   1     -10.972  12.475  68.961  1.00  0.00    -0.352 N  
HETATM   13  H   UNK A   1      -9.973  12.674  69.019  1.00  0.00     0.000 HD 
BRANCH  12  14
HETATM   14  C   UNK A   1     -11.882  13.530  68.529  1.00  0.00    -0.362 C  
BRANCH  14  15
HETATM   15  C   UNK A   1     -11.734  13.688  67.004  1.00  0.00    -0.384 C  
ATOM     16  H   GLY A   2      -9.928  12.639  67.068  1.00  0.00     0.000 HD 
ATOM     17  N   GLY A   2     -10.565  13.169  66.473  1.00  0.00    -0.282 N  
HETATM   18  O   UNK A   1     -12.627  14.156  66.301  1.00  0.00    -0.449 OA 
BRANCH  17  19
ATOM     19  CA  GLY A   2     -10.240  13.378  65.055  1.00  0.00    -0.307 C  
ATOM     20  C   GLY A   2     -10.297  12.100  64.221  1.00  0.00    -0.334 C  
ATOM     21  O   GLY A   2     -10.632  11.000  64.936  1.00  0.00    -0.302 OA 
ATOM     22  OXT GLY A   2     -10.027  12.052  63.030  1.00  0.00    -0.351 OA 
ENDBRANCH  17  19
ENDBRANCH  14  15
BRANCH  14  23
HETATM   23  C   UNK A   1     -11.572  14.898  69.156  1.00  0.00    -0.307 C  
HETATM   24  S   UNK A   1     -12.664  15.410  70.523  1.00  0.00    -0.350 SA 
HETATM   25  H   UNK A   1     -12.384  16.647  71.090  1.00  0.00     0.000 H  
ENDBRANCH  14  23
ENDBRANCH  12  14
ENDBRANCH   9  10
ENDBRANCH   8   9
ENDBRANCH   2   8
TORSDOF 7
ENDMDL
MODEL      101
REMARK 921   NORMALIZED FREE ENERGY PREDICTED BY IDOCK:   -4.68 KCAL/MOL
REMARK 922        TOTAL FREE ENERGY PREDICTED BY IDOCK:   -7.17 KCAL/MOL
REMARK 923 INTER-LIGAND FREE ENERGY PREDICTED BY IDOCK:   -6.38 KCAL/MOL
REMARK 924 INTRA-LIGAND FREE ENERGY PREDICTED BY IDOCK:   -0.79 KCAL/MOL
REMARK 927      BINDING AFFINITY PREDICTED BY RF-SCORE:    0.00 PKD
ROOT
HETATM    1  N   UNK A   1      -9.243   9.212  69.053  1.00  0.00    -0.142 NA 
HETATM    2  C   UNK A   1      -9.940   7.953  69.449  1.00  0.00    -0.189 C  
HETATM    3  H2  UNK A   1      -8.914   9.720  69.873  1.00  0.00     0.000 HD 
HETATM    4  H1  UNK A   1      -8.483   9.053  68.392  1.00  0.00     0.000 HD 
HETATM    5  O   UNK A   1     -10.026   7.872  67.059  1.00  0.00    -0.201 OA 
HETATM    6  C   UNK A   1     -10.441   7.234  68.183  1.00  0.00    -0.198 C  
HETATM    7  O   UNK A   1     -11.145   6.236  68.174  1.00  0.00    -0.329 OA 
ENDROOT
BRANCH   2   8
HETATM    8  C   UNK A   1     -11.083   8.191  70.441  1.00  0.00    -0.239 C  
BRANCH   8   9
HETATM    9  C   UNK A   1     -10.968   9.491  71.243  1.00  0.00    -0.440 C  
BRANCH   9  10
HETATM   10  C   UNK A   1     -11.919  10.527  70.691  1.00  0.00    -0.357 C  
HETATM   11  O   UNK A   1     -13.134  10.452  70.850  1.00  0.00    -0.384 OA 
HETATM   12  N   UNK A   1     -11.319  11.565  70.029  1.00  0.00    -0.492 N  
HETATM   13  H   UNK A   1     -10.303  11.571  69.932  1.00  0.00     0.000 HD 
BRANCH  12  14
HETATM   14  C   UNK A   1     -12.092  12.663  69.458  1.00  0.00    -0.192 C  
BRANCH  14  15
HETATM   15  C   UNK A   1     -11.488  13.003  68.082  1.00  0.00    -0.319 C  
ATOM     16  H   GLY A   2     -12.719  14.688  67.956  1.00  0.00     0.000 HD 
ATOM     17  N   GLY A   2     -12.040  14.111  67.459  1.00  0.00    -0.380 N  
HETATM   18  O   UNK A   1     -10.529  12.393  67.615  1.00  0.00    -0.211 OA 
BRANCH  17  19
ATOM     19  CA  GLY A   2     -11.651  14.457  66.085  1.00  0.00    -0.369 C  
ATOM     20  C   GLY A   2     -10.905  15.786  65.979  1.00  0.00    -0.255 C  
ATOM     21  O   GLY A   2     -10.741  16.413  67.169  1.00  0.00    -0.307 OA 
ATOM     22  OXT GLY A   2     -10.527  16.272  64.924  1.00  0.00    -0.624 OA 
ENDBRANCH  17  19
ENDBRANCH  14  15
BRANCH  14  23
HETATM   23  C   UNK A   1     -12.043  13.947  70.301  1.00  0.00    -0.353 C  
HETATM   24  S   UNK A   1     -13.145  13.984  71.753  1.00  0.00    -0.394 SA 
HETATM   25  H   UNK A   1     -13.100  15.145  72.515  1.00  0.00     0.000 H  
ENDBRANCH  14  23
ENDBRANCH  12  14
ENDBRANCH   9  10
ENDBRANCH   8   9
ENDBRANCH   2   8
TORSDOF 7
ENDMDL
MODEL      102
REMARK 921   NORMALIZED FREE ENERGY PREDICTED BY IDOCK:   -4.66 KCAL/MOL
REMARK 922        TOTAL FREE ENERGY PREDICTED BY IDOCK:   -7.14 KCAL/MOL
REMARK 923 INTER-LIGAND FREE ENERGY PREDICTED BY IDOCK:   -7.36 KCAL/MOL
REMARK 924 INTRA-LIGAND FREE ENERGY PREDICTED BY IDOCK:    0.22 KCAL/MOL
REMARK 927      BINDING AFFINITY PREDICTED BY RF-SCORE:    0.00 PKD
ROOT
HETATM    1  N   UNK A   1     -10.480  20.075  68.482  1.00  0.00    -0.458 NA 
HETATM    2  C   UNK A   1      -9.279  19.263  68.128  1.00  0.00    -0.334 C  
HETATM    3  H2  UNK A   1     -10.677  20.019  69.481  1.00  0.00     0.000 HD 
HETATM    4  H1  UNK A   1     -10.407  21.046  68.179  1.00  0.00     0.000 HD 
HETATM    5  O   UNK A   1      -9.901  20.226  66.028  1.00  0.00    -0.401 OA 
HETATM    6  C   UNK A   1      -9.036  19.357  66.611  1.00  0.00    -0.346 C  
HETATM    7  O   UNK A   1      -8.199  18.718  65.993  1.00  0.00    -0.458 OA 
ENDROOT
BRANCH   2   8
HETATM    8  C   UNK A   1      -9.389  17.805  68.584  1.00  0.00    -0.275 C  
BRANCH   8   9
HETATM    9  C   UNK A   1     -10.786  17.195  68.431  1.00  0.00    -0.347 C  
BRANCH   9  10
HETATM   10  C   UNK A   1     -10.805  15.794  68.997  1.00  0.00    -0.248 C  
HETATM   11  O   UNK A   1      -9.869  15.337  69.648  1.00  0.00    -0.252 OA 
HETATM   12  N   UNK A   1     -11.954  15.090  68.754  1.00  0.00    -0.525 N  
HETATM   13  H   UNK A   1     -12.698  15.527  68.208  1.00  0.00     0.000 HD 
BRANCH  12  14
HETATM   14  C   UNK A   1     -12.146  13.733  69.254  1.00  0.00    -0.329 C  
BRANCH  14  15
HETATM   15  C   UNK A   1     -12.649  13.829  70.707  1.00  0.00    -0.340 C  
ATOM     16  H   GLY A   2     -13.697  15.573  70.231  1.00  0.00     0.000 HD 
ATOM     17  N   GLY A   2     -13.421  14.944  70.986  1.00  0.00    -0.387 N  
HETATM   18  O   UNK A   1     -12.457  12.937  71.530  1.00  0.00    -0.223 OA 
BRANCH  17  19
ATOM     19  CA  GLY A   2     -13.845  15.225  72.364  1.00  0.00    -0.540 C  
ATOM     20  C   GLY A   2     -12.849  16.080  73.146  1.00  0.00    -0.519 C  
ATOM     21  O   GLY A   2     -11.750  16.422  72.433  1.00  0.00    -0.508 OA 
ATOM     22  OXT GLY A   2     -12.995  16.395  74.318  1.00  0.00    -0.670 OA 
ENDBRANCH  17  19
ENDBRANCH  14  15
BRANCH  14  23
HETATM   23  C   UNK A   1     -10.853  12.903  69.278  1.00  0.00     0.012 C  
HETATM   24  S   UNK A   1     -10.262  12.310  67.659  1.00  0.00    -0.206 SA 
HETATM   25  H   UNK A   1      -9.093  11.559  67.681  1.00  0.00     0.000 H  
ENDBRANCH  14  23
ENDBRANCH  12  14
ENDBRANCH   9  10
ENDBRANCH   8   9
ENDBRANCH   2   8
TORSDOF 7
ENDMDL
MODEL      103
REMARK 921   NORMALIZED FREE ENERGY PREDICTED BY IDOCK:   -4.66 KCAL/MOL
REMARK 922        TOTAL FREE ENERGY PREDICTED BY IDOCK:   -7.13 KCAL/MOL
REMARK 923 INTER-LIGAND FREE ENERGY PREDICTED BY IDOCK:   -6.36 KCAL/MOL
REMARK 924 INTRA-LIGAND FREE ENERGY PREDICTED BY IDOCK:   -0.77 KCAL/MOL
REMARK 927      BINDING AFFINITY PREDICTED BY RF-SCORE:    0.00 PKD
ROOT
HETATM    1  N   UNK A   1      -7.617  18.335  68.471  1.00  0.00    -0.293 NA 
HETATM    2  C   UNK A   1      -8.260  18.947  67.271  1.00  0.00    -0.270 C  
HETATM    3  H2  UNK A   1      -6.632  18.138  68.297  1.00  0.00     0.000 HD 
HETATM    4  H1  UNK A   1      -7.733  18.898  69.314  1.00  0.00     0.000 HD 
HETATM    5  O   UNK A   1     -10.046  18.909  68.862  1.00  0.00    -0.391 OA 
HETATM    6  C   UNK A   1      -9.748  19.203  67.570  1.00  0.00    -0.316 C  
HETATM    7  O   UNK A   1     -10.571  19.590  66.757  1.00  0.00    -0.444 OA 
ENDROOT
BRANCH   2   8
HETATM    8  C   UNK A   1      -8.086  18.100  66.005  1.00  0.00    -0.118 C  
BRANCH   8   9
HETATM    9  C   UNK A   1      -7.912  16.600  66.263  1.00  0.00    -0.340 C  
BRANCH   9  10
HETATM   10  C   UNK A   1      -9.211  15.875  65.996  1.00  0.00    -0.337 C  
HETATM   11  O   UNK A   1     -10.152  16.407  65.415  1.00  0.00    -0.543 OA 
HETATM   12  N   UNK A   1      -9.242  14.574  66.426  1.00  0.00    -0.418 N  
HETATM   13  H   UNK A   1      -8.426  14.189  66.901  1.00  0.00     0.000 HD 
BRANCH  12  14
HETATM   14  C   UNK A   1     -10.411  13.725  66.222  1.00  0.00    -0.291 C  
BRANCH  14  15
HETATM   15  C   UNK A   1     -10.990  13.374  67.606  1.00  0.00    -0.259 C  
ATOM     16  H   GLY A   2     -11.252  11.392  66.996  1.00  0.00     0.000 HD 
ATOM     17  N   GLY A   2     -11.420  12.064  67.745  1.00  0.00    -0.305 N  
HETATM   18  O   UNK A   1     -10.984  14.169  68.543  1.00  0.00    -0.238 OA 
BRANCH  17  19
ATOM     19  CA  GLY A   2     -12.118  11.641  68.966  1.00  0.00    -0.225 C  
ATOM     20  C   GLY A   2     -11.278  10.736  69.866  1.00  0.00    -0.300 C  
ATOM     21  O   GLY A   2     -10.042  10.479  69.375  1.00  0.00    -0.222 OA 
ATOM     22  OXT GLY A   2     -11.685  10.246  70.909  1.00  0.00    -0.333 OA 
ENDBRANCH  17  19
ENDBRANCH  14  15
BRANCH  14  23
HETATM   23  C   UNK A   1     -10.086  12.397  65.519  1.00  0.00    -0.267 C  
HETATM   24  S   UNK A   1     -10.760  12.205  63.837  1.00  0.00    -0.452 SA 
HETATM   25  H   UNK A   1     -10.466  11.005  63.201  1.00  0.00     0.000 H  
ENDBRANCH  14  23
ENDBRANCH  12  14
ENDBRANCH   9  10
ENDBRANCH   8   9
ENDBRANCH   2   8
TORSDOF 7
ENDMDL
MODEL      104
REMARK 921   NORMALIZED FREE ENERGY PREDICTED BY IDOCK:   -4.66 KCAL/MOL
REMARK 922        TOTAL FREE ENERGY PREDICTED BY IDOCK:   -7.13 KCAL/MOL
REMARK 923 INTER-LIGAND FREE ENERGY PREDICTED BY IDOCK:   -6.23 KCAL/MOL
REMARK 924 INTRA-LIGAND FREE ENERGY PREDICTED BY IDOCK:   -0.90 KCAL/MOL
REMARK 927      BINDING AFFINITY PREDICTED BY RF-SCORE:    0.00 PKD
ROOT
HETATM    1  N   UNK A   1     -12.427  14.250  63.223  1.00  0.00    -1.068 NA 
HETATM    2  C   UNK A   1     -12.533  12.958  63.963  1.00  0.00    -0.326 C  
HETATM    3  H2  UNK A   1     -12.599  14.115  62.227  1.00  0.00     0.000 HD 
HETATM    4  H1  UNK A   1     -13.035  14.976  63.602  1.00  0.00     0.000 HD 
HETATM    5  O   UNK A   1     -12.078  14.529  65.709  1.00  0.00    -0.350 OA 
HETATM    6  C   UNK A   1     -12.243  13.206  65.454  1.00  0.00    -0.461 C  
HETATM    7  O   UNK A   1     -12.140  12.335  66.304  1.00  0.00    -0.626 OA 
ENDROOT
BRANCH   2   8
HETATM    8  C   UNK A   1     -11.619  11.868  63.393  1.00  0.00    -0.477 C  
BRANCH   8   9
HETATM    9  C   UNK A   1     -10.123  12.186  63.476  1.00  0.00    -0.410 C  
BRANCH   9  10
HETATM   10  C   UNK A   1      -9.424  11.165  64.343  1.00  0.00    -0.220 C  
HETATM   11  O   UNK A   1      -9.216  10.015  63.964  1.00  0.00    -0.242 OA 
HETATM   12  N   UNK A   1      -9.018  11.629  65.566  1.00  0.00    -0.403 N  
HETATM   13  H   UNK A   1      -9.219  12.596  65.822  1.00  0.00     0.000 HD 
BRANCH  12  14
HETATM   14  C   UNK A   1      -8.304  10.779  66.514  1.00  0.00    -0.146 C  
BRANCH  14  15
HETATM   15  C   UNK A   1      -9.273  10.429  67.660  1.00  0.00    -0.148 C  
ATOM     16  H   GLY A   2      -9.054   8.396  67.226  1.00  0.00     0.000 HD 
ATOM     17  N   GLY A   2      -9.553   9.080  67.796  1.00  0.00    -0.147 N  
HETATM   18  O   UNK A   1      -9.691  11.273  68.449  1.00  0.00    -0.181 OA 
BRANCH  17  19
ATOM     19  CA  GLY A   2     -10.568   8.629  68.758  1.00  0.00    -0.140 C  
ATOM     20  C   GLY A   2     -10.510   7.130  69.048  1.00  0.00    -0.211 C  
ATOM     21  O   GLY A   2      -9.538   6.482  68.363  1.00  0.00    -0.124 OA 
ATOM     22  OXT GLY A   2     -11.288   6.550  69.791  1.00  0.00    -0.362 OA 
ENDBRANCH  17  19
ENDBRANCH  14  15
BRANCH  14  23
HETATM   23  C   UNK A   1      -7.084  11.464  67.149  1.00  0.00    -0.134 C  
HETATM   24  S   UNK A   1      -5.477  10.658  66.848  1.00  0.00    -0.053 SA 
HETATM   25  H   UNK A   1      -4.373  11.277  67.421  1.00  0.00     0.000 H  
ENDBRANCH  14  23
ENDBRANCH  12  14
ENDBRANCH   9  10
ENDBRANCH   8   9
ENDBRANCH   2   8
TORSDOF 7
ENDMDL
MODEL      105
REMARK 921   NORMALIZED FREE ENERGY PREDICTED BY IDOCK:   -4.64 KCAL/MOL
REMARK 922        TOTAL FREE ENERGY PREDICTED BY IDOCK:   -7.10 KCAL/MOL
REMARK 923 INTER-LIGAND FREE ENERGY PREDICTED BY IDOCK:   -6.54 KCAL/MOL
REMARK 924 INTRA-LIGAND FREE ENERGY PREDICTED BY IDOCK:   -0.56 KCAL/MOL
REMARK 927      BINDING AFFINITY PREDICTED BY RF-SCORE:    0.00 PKD
ROOT
HETATM    1  N   UNK A   1     -13.159  15.863  70.389  1.00  0.00    -0.704 NA 
HETATM    2  C   UNK A   1     -13.391  14.418  70.681  1.00  0.00    -0.056 C  
HETATM    3  H2  UNK A   1     -12.715  15.985  69.479  1.00  0.00     0.000 HD 
HETATM    4  H1  UNK A   1     -14.009  16.423  70.457  1.00  0.00     0.000 HD 
HETATM    5  O   UNK A   1     -14.320  15.499  72.603  1.00  0.00    -0.455 OA 
HETATM    6  C   UNK A   1     -14.038  14.282  72.071  1.00  0.00    -0.526 C  
HETATM    7  O   UNK A   1     -14.251  13.227  72.647  1.00  0.00    -0.724 OA 
ENDROOT
BRANCH   2   8
HETATM    8  C   UNK A   1     -12.115  13.576  70.578  1.00  0.00    -0.409 C  
BRANCH   8   9
HETATM    9  C   UNK A   1     -11.636  13.321  69.146  1.00  0.00    -0.370 C  
BRANCH   9  10
HETATM   10  C   UNK A   1     -11.430  11.841  68.925  1.00  0.00    -0.297 C  
HETATM   11  O   UNK A   1     -12.326  11.107  68.517  1.00  0.00    -0.561 OA 
HETATM   12  N   UNK A   1     -10.162  11.390  69.186  1.00  0.00    -0.406 N  
HETATM   13  H   UNK A   1      -9.461  12.051  69.521  1.00  0.00     0.000 HD 
BRANCH  12  14
HETATM   14  C   UNK A   1      -9.788   9.993  68.998  1.00  0.00    -0.199 C  
BRANCH  14  15
HETATM   15  C   UNK A   1      -9.975   9.266  70.344  1.00  0.00    -0.237 C  
ATOM     16  H   GLY A   2     -11.321   7.943  69.444  1.00  0.00     0.000 HD 
ATOM     17  N   GLY A   2     -10.898   8.233  70.327  1.00  0.00    -0.240 N  
HETATM   18  O   UNK A   1      -9.292   9.523  71.331  1.00  0.00    -0.224 OA 
BRANCH  17  19
ATOM     19  CA  GLY A   2     -11.270   7.554  71.575  1.00  0.00    -0.243 C  
ATOM     20  C   GLY A   2     -10.748   6.122  71.669  1.00  0.00    -0.245 C  
ATOM     21  O   GLY A   2     -10.039   5.730  70.583  1.00  0.00    -0.184 OA 
ATOM     22  OXT GLY A   2     -10.977   5.374  72.609  1.00  0.00    -0.238 OA 
ENDBRANCH  17  19
ENDBRANCH  14  15
BRANCH  14  23
HETATM   23  C   UNK A   1      -8.320   9.804  68.584  1.00  0.00    -0.111 C  
HETATM   24  S   UNK A   1      -8.048   8.959  66.993  1.00  0.00    -0.110 SA 
HETATM   25  H   UNK A   1      -6.720   8.789  66.618  1.00  0.00     0.000 H  
ENDBRANCH  14  23
ENDBRANCH  12  14
ENDBRANCH   9  10
ENDBRANCH   8   9
ENDBRANCH   2   8
TORSDOF 7
ENDMDL
MODEL      106
REMARK 921   NORMALIZED FREE ENERGY PREDICTED BY IDOCK:   -4.63 KCAL/MOL
REMARK 922        TOTAL FREE ENERGY PREDICTED BY IDOCK:   -7.09 KCAL/MOL
REMARK 923 INTER-LIGAND FREE ENERGY PREDICTED BY IDOCK:   -6.41 KCAL/MOL
REMARK 924 INTRA-LIGAND FREE ENERGY PREDICTED BY IDOCK:   -0.68 KCAL/MOL
REMARK 927      BINDING AFFINITY PREDICTED BY RF-SCORE:    0.00 PKD
ROOT
HETATM    1  N   UNK A   1      -8.671  10.165  69.894  1.00  0.00    -0.367 NA 
HETATM    2  C   UNK A   1      -9.571   9.224  69.165  1.00  0.00    -0.161 C  
HETATM    3  H2  UNK A   1      -8.662   9.960  70.893  1.00  0.00     0.000 HD 
HETATM    4  H1  UNK A   1      -7.724  10.182  69.516  1.00  0.00     0.000 HD 
HETATM    5  O   UNK A   1      -8.686  10.578  67.402  1.00  0.00    -0.126 OA 
HETATM    6  C   UNK A   1      -9.573   9.585  67.669  1.00  0.00    -0.136 C  
HETATM    7  O   UNK A   1     -10.293   9.076  66.824  1.00  0.00    -0.261 OA 
ENDROOT
BRANCH   2   8
HETATM    8  C   UNK A   1     -10.994   9.199  69.732  1.00  0.00    -0.195 C  
BRANCH   8   9
HETATM    9  C   UNK A   1     -11.377  10.442  70.541  1.00  0.00    -0.424 C  
BRANCH   9  10
HETATM   10  C   UNK A   1     -11.854  11.536  69.615  1.00  0.00    -0.354 C  
HETATM   11  O   UNK A   1     -12.406  11.296  68.545  1.00  0.00    -0.543 OA 
HETATM   12  N   UNK A   1     -11.648  12.810  70.074  1.00  0.00    -0.530 N  
HETATM   13  H   UNK A   1     -11.184  12.944  70.973  1.00  0.00     0.000 HD 
BRANCH  12  14
HETATM   14  C   UNK A   1     -12.073  13.981  69.314  1.00  0.00    -0.338 C  
BRANCH  14  15
HETATM   15  C   UNK A   1     -10.874  14.463  68.476  1.00  0.00    -0.251 C  
ATOM     16  H   GLY A   2     -12.099  15.867  67.528  1.00  0.00     0.000 HD 
ATOM     17  N   GLY A   2     -11.168  15.449  67.548  1.00  0.00    -0.324 N  
HETATM   18  O   UNK A   1      -9.728  14.070  68.678  1.00  0.00    -0.223 OA 
BRANCH  17  19
ATOM     19  CA  GLY A   2     -10.145  15.894  66.592  1.00  0.00    -0.279 C  
ATOM     20  C   GLY A   2      -9.931  17.407  66.588  1.00  0.00    -0.308 C  
ATOM     21  O   GLY A   2     -10.726  18.069  67.461  1.00  0.00    -0.404 OA 
ATOM     22  OXT GLY A   2      -9.152  17.982  65.842  1.00  0.00    -0.513 OA 
ENDBRANCH  17  19
ENDBRANCH  14  15
BRANCH  14  23
HETATM   23  C   UNK A   1     -12.506  15.160  70.200  1.00  0.00    -0.318 C  
HETATM   24  S   UNK A   1     -12.239  14.946  71.990  1.00  0.00    -0.350 SA 
HETATM   25  H   UNK A   1     -12.631  16.011  72.792  1.00  0.00     0.000 H  
ENDBRANCH  14  23
ENDBRANCH  12  14
ENDBRANCH   9  10
ENDBRANCH   8   9
ENDBRANCH   2   8
TORSDOF 7
ENDMDL
MODEL      107
REMARK 921   NORMALIZED FREE ENERGY PREDICTED BY IDOCK:   -4.62 KCAL/MOL
REMARK 922        TOTAL FREE ENERGY PREDICTED BY IDOCK:   -7.07 KCAL/MOL
REMARK 923 INTER-LIGAND FREE ENERGY PREDICTED BY IDOCK:   -6.48 KCAL/MOL
REMARK 924 INTRA-LIGAND FREE ENERGY PREDICTED BY IDOCK:   -0.59 KCAL/MOL
REMARK 927      BINDING AFFINITY PREDICTED BY RF-SCORE:    0.00 PKD
ROOT
HETATM    1  N   UNK A   1     -10.591  16.630  68.712  1.00  0.00    -0.318 NA 
HETATM    2  C   UNK A   1     -10.470  16.023  67.354  1.00  0.00    -0.308 C  
HETATM    3  H2  UNK A   1     -10.624  15.910  69.433  1.00  0.00     0.000 HD 
HETATM    4  H1  UNK A   1      -9.857  17.310  68.910  1.00  0.00     0.000 HD 
HETATM    5  O   UNK A   1     -10.437  18.368  66.886  1.00  0.00    -0.379 OA 
HETATM    6  C   UNK A   1     -10.449  17.143  66.300  1.00  0.00    -0.260 C  
HETATM    7  O   UNK A   1     -10.471  16.972  65.091  1.00  0.00    -0.667 OA 
ENDROOT
BRANCH   2   8
HETATM    8  C   UNK A   1     -11.573  15.002  67.058  1.00  0.00    -0.248 C  
BRANCH   8   9
HETATM    9  C   UNK A   1     -11.090  13.550  66.977  1.00  0.00    -0.310 C  
BRANCH   9  10
HETATM   10  C   UNK A   1     -10.910  12.986  68.367  1.00  0.00    -0.258 C  
HETATM   11  O   UNK A   1      -9.840  12.525  68.755  1.00  0.00    -0.121 OA 
HETATM   12  N   UNK A   1     -12.021  13.056  69.166  1.00  0.00    -0.296 N  
HETATM   13  H   UNK A   1     -12.881  13.452  68.785  1.00  0.00     0.000 HD 
BRANCH  12  14
HETATM   14  C   UNK A   1     -12.010  12.580  70.545  1.00  0.00    -0.189 C  
BRANCH  14  15
HETATM   15  C   UNK A   1     -12.513  11.124  70.549  1.00  0.00    -0.327 C  
ATOM     16  H   GLY A   2     -12.663  11.179  72.633  1.00  0.00     0.000 HD 
ATOM     17  N   GLY A   2     -12.738  10.587  71.805  1.00  0.00    -0.428 N  
HETATM   18  O   UNK A   1     -12.782  10.518  69.514  1.00  0.00    -0.174 OA 
BRANCH  17  19
ATOM     19  CA  GLY A   2     -13.085   9.166  71.951  1.00  0.00    -0.411 C  
ATOM     20  C   GLY A   2     -11.871   8.258  72.142  1.00  0.00    -0.369 C  
ATOM     21  O   GLY A   2     -10.691   8.923  72.136  1.00  0.00    -0.342 OA 
ATOM     22  OXT GLY A   2     -11.940   7.043  72.246  1.00  0.00    -0.276 OA 
ENDBRANCH  17  19
ENDBRANCH  14  15
BRANCH  14  23
HETATM   23  C   UNK A   1     -12.936  13.380  71.475  1.00  0.00    -0.341 C  
HETATM   24  S   UNK A   1     -13.132  15.146  71.070  1.00  0.00    -0.459 SA 
HETATM   25  H   UNK A   1     -13.969  15.869  71.911  1.00  0.00     0.000 H  
ENDBRANCH  14  23
ENDBRANCH  12  14
ENDBRANCH   9  10
ENDBRANCH   8   9
ENDBRANCH   2   8
TORSDOF 7
ENDMDL
MODEL      108
REMARK 921   NORMALIZED FREE ENERGY PREDICTED BY IDOCK:   -4.61 KCAL/MOL
REMARK 922        TOTAL FREE ENERGY PREDICTED BY IDOCK:   -7.06 KCAL/MOL
REMARK 923 INTER-LIGAND FREE ENERGY PREDICTED BY IDOCK:   -6.77 KCAL/MOL
REMARK 924 INTRA-LIGAND FREE ENERGY PREDICTED BY IDOCK:   -0.29 KCAL/MOL
REMARK 927      BINDING AFFINITY PREDICTED BY RF-SCORE:    0.00 PKD
ROOT
HETATM    1  N   UNK A   1     -13.722   9.043  73.239  1.00  0.00    -1.077 NA 
HETATM    2  C   UNK A   1     -13.284   8.594  71.884  1.00  0.00    -0.375 C  
HETATM    3  H2  UNK A   1     -14.654   9.456  73.203  1.00  0.00     0.000 HD 
HETATM    4  H1  UNK A   1     -13.679   8.300  73.936  1.00  0.00     0.000 HD 
HETATM    5  O   UNK A   1     -11.446   7.948  73.273  1.00  0.00    -0.290 OA 
HETATM    6  C   UNK A   1     -11.867   8.002  71.983  1.00  0.00    -0.326 C  
HETATM    7  O   UNK A   1     -11.185   7.649  71.034  1.00  0.00    -0.257 OA 
ENDROOT
BRANCH   2   8
HETATM    8  C   UNK A   1     -13.348   9.710  70.837  1.00  0.00    -0.186 C  
BRANCH   8   9
HETATM    9  C   UNK A   1     -12.193  10.714  70.906  1.00  0.00    -0.497 C  
BRANCH   9  10
HETATM   10  C   UNK A   1     -12.160  11.554  69.651  1.00  0.00    -0.296 C  
HETATM   11  O   UNK A   1     -12.427  11.091  68.545  1.00  0.00    -0.440 OA 
HETATM   12  N   UNK A   1     -11.838  12.871  69.847  1.00  0.00    -0.433 N  
HETATM   13  H   UNK A   1     -11.628  13.195  70.792  1.00  0.00     0.000 HD 
BRANCH  12  14
HETATM   14  C   UNK A   1     -11.788  13.824  68.744  1.00  0.00    -0.363 C  
BRANCH  14  15
HETATM   15  C   UNK A   1     -10.364  13.796  68.157  1.00  0.00    -0.252 C  
ATOM     16  H   GLY A   2     -10.639  15.722  67.393  1.00  0.00     0.000 HD 
ATOM     17  N   GLY A   2     -10.011  14.918  67.426  1.00  0.00    -0.223 N  
HETATM   18  O   UNK A   1      -9.572  12.888  68.396  1.00  0.00    -0.221 OA 
BRANCH  17  19
ATOM     19  CA  GLY A   2      -8.735  14.956  66.698  1.00  0.00    -0.227 C  
ATOM     20  C   GLY A   2      -7.598  15.594  67.494  1.00  0.00    -0.175 C  
ATOM     21  O   GLY A   2      -7.968  16.017  68.726  1.00  0.00    -0.170 OA 
ATOM     22  OXT GLY A   2      -6.468  15.754  67.057  1.00  0.00    -0.299 OA 
ENDBRANCH  17  19
ENDBRANCH  14  15
BRANCH  14  23
HETATM   23  C   UNK A   1     -12.070  15.272  69.175  1.00  0.00    -0.235 C  
HETATM   24  S   UNK A   1     -11.653  15.681  70.901  1.00  0.00    -0.426 SA 
HETATM   25  H   UNK A   1     -11.907  16.990  71.290  1.00  0.00     0.000 H  
ENDBRANCH  14  23
ENDBRANCH  12  14
ENDBRANCH   9  10
ENDBRANCH   8   9
ENDBRANCH   2   8
TORSDOF 7
ENDMDL
MODEL      109
REMARK 921   NORMALIZED FREE ENERGY PREDICTED BY IDOCK:   -4.60 KCAL/MOL
REMARK 922        TOTAL FREE ENERGY PREDICTED BY IDOCK:   -7.04 KCAL/MOL
REMARK 923 INTER-LIGAND FREE ENERGY PREDICTED BY IDOCK:   -6.08 KCAL/MOL
REMARK 924 INTRA-LIGAND FREE ENERGY PREDICTED BY IDOCK:   -0.96 KCAL/MOL
REMARK 927      BINDING AFFINITY PREDICTED BY RF-SCORE:    0.00 PKD
ROOT
HETATM    1  N   UNK A   1     -10.798   5.474  70.060  1.00  0.00    -0.294 NA 
HETATM    2  C   UNK A   1     -11.171   6.761  69.402  1.00  0.00    -0.234 C  
HETATM    3  H2  UNK A   1     -11.043   5.485  71.050  1.00  0.00     0.000 HD 
HETATM    4  H1  UNK A   1     -11.199   4.659  69.595  1.00  0.00     0.000 HD 
HETATM    5  O   UNK A   1     -10.277   5.482  67.589  1.00  0.00    -0.168 OA 
HETATM    6  C   UNK A   1     -10.761   6.707  67.920  1.00  0.00    -0.274 C  
HETATM    7  O   UNK A   1     -10.828   7.642  67.138  1.00  0.00    -0.317 OA 
ENDROOT
BRANCH   2   8
HETATM    8  C   UNK A   1     -10.569   7.984  70.101  1.00  0.00    -0.237 C  
BRANCH   8   9
HETATM    9  C   UNK A   1     -11.601   8.979  70.642  1.00  0.00    -0.265 C  
BRANCH   9  10
HETATM   10  C   UNK A   1     -11.375  10.343  70.032  1.00  0.00    -0.313 C  
HETATM   11  O   UNK A   1     -11.913  11.355  70.472  1.00  0.00    -0.348 OA 
HETATM   12  N   UNK A   1     -10.504  10.364  68.975  1.00  0.00    -0.205 N  
HETATM   13  H   UNK A   1     -10.087   9.488  68.657  1.00  0.00     0.000 HD 
BRANCH  12  14
HETATM   14  C   UNK A   1     -10.154  11.604  68.289  1.00  0.00    -0.202 C  
BRANCH  14  15
HETATM   15  C   UNK A   1     -10.832  11.588  66.906  1.00  0.00    -0.284 C  
ATOM     16  H   GLY A   2     -11.748  13.418  67.332  1.00  0.00     0.000 HD 
ATOM     17  N   GLY A   2     -11.684  12.652  66.661  1.00  0.00    -0.386 N  
HETATM   18  O   UNK A   1     -10.565  10.746  66.052  1.00  0.00    -0.228 OA 
BRANCH  17  19
ATOM     19  CA  GLY A   2     -12.497  12.681  65.437  1.00  0.00    -0.355 C  
ATOM     20  C   GLY A   2     -11.925  13.585  64.346  1.00  0.00    -0.422 C  
ATOM     21  O   GLY A   2     -10.774  14.203  64.702  1.00  0.00    -0.416 OA 
ATOM     22  OXT GLY A   2     -12.466  13.776  63.267  1.00  0.00    -0.819 OA 
ENDBRANCH  17  19
ENDBRANCH  14  15
BRANCH  14  23
HETATM   23  C   UNK A   1      -8.645  11.765  68.051  1.00  0.00    -0.158 C  
HETATM   24  S   UNK A   1      -8.121  13.357  67.336  1.00  0.00    -0.149 SA 
HETATM   25  H   UNK A   1      -6.756  13.503  67.120  1.00  0.00     0.000 H  
ENDBRANCH  14  23
ENDBRANCH  12  14
ENDBRANCH   9  10
ENDBRANCH   8   9
ENDBRANCH   2   8
TORSDOF 7
ENDMDL
MODEL      110
REMARK 921   NORMALIZED FREE ENERGY PREDICTED BY IDOCK:   -4.59 KCAL/MOL
REMARK 922        TOTAL FREE ENERGY PREDICTED BY IDOCK:   -7.03 KCAL/MOL
REMARK 923 INTER-LIGAND FREE ENERGY PREDICTED BY IDOCK:   -6.38 KCAL/MOL
REMARK 924 INTRA-LIGAND FREE ENERGY PREDICTED BY IDOCK:   -0.65 KCAL/MOL
REMARK 927      BINDING AFFINITY PREDICTED BY RF-SCORE:    0.00 PKD
ROOT
HETATM    1  N   UNK A   1     -10.236  13.661  64.563  1.00  0.00    -0.647 NA 
HETATM    2  C   UNK A   1     -10.956  13.516  65.862  1.00  0.00    -0.278 C  
HETATM    3  H2  UNK A   1     -10.280  12.798  64.023  1.00  0.00     0.000 HD 
HETATM    4  H1  UNK A   1     -10.566  14.454  64.012  1.00  0.00     0.000 HD 
HETATM    5  O   UNK A   1     -10.220  15.791  65.921  1.00  0.00    -0.307 OA 
HETATM    6  C   UNK A   1     -10.842  14.831  66.653  1.00  0.00    -0.319 C  
HETATM    7  O   UNK A   1     -11.229  14.999  67.799  1.00  0.00    -0.299 OA 
ENDROOT
BRANCH   2   8
HETATM    8  C   UNK A   1     -10.459  12.326  66.690  1.00  0.00    -0.247 C  
BRANCH   8   9
HETATM    9  C   UNK A   1     -11.003  10.967  66.239  1.00  0.00    -0.184 C  
BRANCH   9  10
HETATM   10  C   UNK A   1     -10.698   9.916  67.280  1.00  0.00    -0.238 C  
HETATM   11  O   UNK A   1     -10.507   8.739  66.988  1.00  0.00    -0.283 OA 
HETATM   12  N   UNK A   1     -10.624  10.383  68.566  1.00  0.00    -0.196 N  
HETATM   13  H   UNK A   1     -10.792  11.373  68.745  1.00  0.00     0.000 HD 
BRANCH  12  14
HETATM   14  C   UNK A   1     -10.312   9.504  69.688  1.00  0.00    -0.221 C  
BRANCH  14  15
HETATM   15  C   UNK A   1     -11.368   9.740  70.784  1.00  0.00    -0.342 C  
ATOM     16  H   GLY A   2     -12.136  11.353  69.699  1.00  0.00     0.000 HD 
ATOM     17  N   GLY A   2     -12.192  10.834  70.576  1.00  0.00    -0.334 N  
HETATM   18  O   UNK A   1     -11.527   8.964  71.724  1.00  0.00    -0.307 OA 
BRANCH  17  19
ATOM     19  CA  GLY A   2     -13.146  11.249  71.613  1.00  0.00    -0.408 C  
ATOM     20  C   GLY A   2     -13.171  12.758  71.850  1.00  0.00    -0.412 C  
ATOM     21  O   GLY A   2     -12.305  13.445  71.067  1.00  0.00    -0.363 OA 
ATOM     22  OXT GLY A   2     -13.868  13.304  72.693  1.00  0.00    -0.712 OA 
ENDBRANCH  17  19
ENDBRANCH  14  15
BRANCH  14  23
HETATM   23  C   UNK A   1      -8.938   9.782  70.318  1.00  0.00    -0.150 C  
HETATM   24  S   UNK A   1      -7.638  10.343  69.169  1.00  0.00    -0.130 SA 
HETATM   25  H   UNK A   1      -6.396  10.594  69.739  1.00  0.00     0.000 H  
ENDBRANCH  14  23
ENDBRANCH  12  14
ENDBRANCH   9  10
ENDBRANCH   8   9
ENDBRANCH   2   8
TORSDOF 7
ENDMDL
MODEL      111
REMARK 921   NORMALIZED FREE ENERGY PREDICTED BY IDOCK:   -4.58 KCAL/MOL
REMARK 922        TOTAL FREE ENERGY PREDICTED BY IDOCK:   -7.02 KCAL/MOL
REMARK 923 INTER-LIGAND FREE ENERGY PREDICTED BY IDOCK:   -6.39 KCAL/MOL
REMARK 924 INTRA-LIGAND FREE ENERGY PREDICTED BY IDOCK:   -0.63 KCAL/MOL
REMARK 927      BINDING AFFINITY PREDICTED BY RF-SCORE:    0.00 PKD
ROOT
HETATM    1  N   UNK A   1     -11.234  15.054  67.481  1.00  0.00    -0.322 NA 
HETATM    2  C   UNK A   1     -10.361  15.494  66.352  1.00  0.00    -0.296 C  
HETATM    3  H2  UNK A   1     -11.345  14.041  67.482  1.00  0.00     0.000 HD 
HETATM    4  H1  UNK A   1     -10.907  15.387  68.388  1.00  0.00     0.000 HD 
HETATM    5  O   UNK A   1     -10.863  17.553  67.462  1.00  0.00    -0.321 OA 
HETATM    6  C   UNK A   1     -10.241  17.028  66.375  1.00  0.00    -0.326 C  
HETATM    7  O   UNK A   1      -9.689  17.703  65.520  1.00  0.00    -0.415 OA 
ENDROOT
BRANCH   2   8
HETATM    8  C   UNK A   1     -10.853  14.996  64.989  1.00  0.00    -0.439 C  
BRANCH   8   9
HETATM    9  C   UNK A   1     -12.296  14.484  64.983  1.00  0.00    -0.353 C  
BRANCH   9  10
HETATM   10  C   UNK A   1     -12.312  12.974  65.037  1.00  0.00    -0.473 C  
HETATM   11  O   UNK A   1     -13.147  12.305  64.437  1.00  0.00    -0.780 OA 
HETATM   12  N   UNK A   1     -11.307  12.415  65.782  1.00  0.00    -0.336 N  
HETATM   13  H   UNK A   1     -10.641  13.026  66.256  1.00  0.00     0.000 HD 
BRANCH  12  14
HETATM   14  C   UNK A   1     -11.162  10.969  65.916  1.00  0.00     0.141 C  
BRANCH  14  15
HETATM   15  C   UNK A   1     -11.263  10.619  67.413  1.00  0.00    -0.205 C  
ATOM     16  H   GLY A   2      -9.752   9.193  67.183  1.00  0.00     0.000 HD 
ATOM     17  N   GLY A   2     -10.435   9.590  67.830  1.00  0.00    -0.240 N  
HETATM   18  O   UNK A   1     -11.956  11.265  68.195  1.00  0.00    -0.610 OA 
BRANCH  17  19
ATOM     19  CA  GLY A   2     -10.536   9.067  69.199  1.00  0.00    -0.225 C  
ATOM     20  C   GLY A   2     -10.648   7.545  69.265  1.00  0.00    -0.210 C  
ATOM     21  O   GLY A   2     -10.641   6.948  68.049  1.00  0.00    -0.194 OA 
ATOM     22  OXT GLY A   2     -10.778   6.916  70.304  1.00  0.00    -0.223 OA 
ENDBRANCH  17  19
ENDBRANCH  14  15
BRANCH  14  23
HETATM   23  C   UNK A   1      -9.806  10.443  65.420  1.00  0.00    -0.283 C  
HETATM   24  S   UNK A   1      -9.594  10.378  63.612  1.00  0.00    -0.282 SA 
HETATM   25  H   UNK A   1      -8.368   9.903  63.163  1.00  0.00     0.000 H  
ENDBRANCH  14  23
ENDBRANCH  12  14
ENDBRANCH   9  10
ENDBRANCH   8   9
ENDBRANCH   2   8
TORSDOF 7
ENDMDL
MODEL      112
REMARK 921   NORMALIZED FREE ENERGY PREDICTED BY IDOCK:   -4.55 KCAL/MOL
REMARK 922        TOTAL FREE ENERGY PREDICTED BY IDOCK:   -6.98 KCAL/MOL
REMARK 923 INTER-LIGAND FREE ENERGY PREDICTED BY IDOCK:   -6.38 KCAL/MOL
REMARK 924 INTRA-LIGAND FREE ENERGY PREDICTED BY IDOCK:   -0.60 KCAL/MOL
REMARK 927      BINDING AFFINITY PREDICTED BY RF-SCORE:    0.00 PKD
ROOT
HETATM    1  N   UNK A   1     -11.274   7.095  67.357  1.00  0.00    -0.585 NA 
HETATM    2  C   UNK A   1     -10.096   7.982  67.126  1.00  0.00    -0.263 C  
HETATM    3  H2  UNK A   1     -12.041   7.336  66.730  1.00  0.00     0.000 HD 
HETATM    4  H1  UNK A   1     -11.044   6.104  67.288  1.00  0.00     0.000 HD 
HETATM    5  O   UNK A   1      -9.313   6.503  68.836  1.00  0.00    -0.132 OA 
HETATM    6  C   UNK A   1      -8.975   7.599  68.109  1.00  0.00    -0.126 C  
HETATM    7  O   UNK A   1      -7.926   8.207  68.250  1.00  0.00    -0.119 OA 
ENDROOT
BRANCH   2   8
HETATM    8  C   UNK A   1     -10.441   9.471  67.231  1.00  0.00    -0.328 C  
BRANCH   8   9
HETATM    9  C   UNK A   1     -10.749   9.953  68.652  1.00  0.00    -0.256 C  
BRANCH   9  10
HETATM   10  C   UNK A   1     -11.542  11.238  68.603  1.00  0.00    -0.318 C  
HETATM   11  O   UNK A   1     -12.210  11.560  67.624  1.00  0.00    -0.513 OA 
HETATM   12  N   UNK A   1     -11.481  11.997  69.741  1.00  0.00    -0.476 N  
HETATM   13  H   UNK A   1     -10.909  11.675  70.522  1.00  0.00     0.000 HD 
BRANCH  12  14
HETATM   14  C   UNK A   1     -12.211  13.254  69.869  1.00  0.00    -0.246 C  
BRANCH  14  15
HETATM   15  C   UNK A   1     -11.307  14.383  69.338  1.00  0.00    -0.281 C  
ATOM     16  H   GLY A   2     -12.707  14.802  67.843  1.00  0.00     0.000 HD 
ATOM     17  N   GLY A   2     -11.778  15.024  68.204  1.00  0.00    -0.334 N  
HETATM   18  O   UNK A   1     -10.293  14.748  69.928  1.00  0.00    -0.101 OA 
BRANCH  17  19
ATOM     19  CA  GLY A   2     -10.946  16.022  67.518  1.00  0.00    -0.261 C  
ATOM     20  C   GLY A   2     -10.755  15.738  66.029  1.00  0.00    -0.306 C  
ATOM     21  O   GLY A   2     -11.381  14.614  65.607  1.00  0.00    -0.330 OA 
ATOM     22  OXT GLY A   2     -10.069  16.426  65.288  1.00  0.00    -0.545 OA 
ENDBRANCH  17  19
ENDBRANCH  14  15
BRANCH  14  23
HETATM   23  C   UNK A   1     -12.567  13.608  71.321  1.00  0.00    -0.351 C  
HETATM   24  S   UNK A   1     -13.818  14.917  71.534  1.00  0.00    -0.503 SA 
HETATM   25  H   UNK A   1     -14.140  15.237  72.847  1.00  0.00     0.000 H  
ENDBRANCH  14  23
ENDBRANCH  12  14
ENDBRANCH   9  10
ENDBRANCH   8   9
ENDBRANCH   2   8
TORSDOF 7
ENDMDL
MODEL      113
REMARK 921   NORMALIZED FREE ENERGY PREDICTED BY IDOCK:   -4.54 KCAL/MOL
REMARK 922        TOTAL FREE ENERGY PREDICTED BY IDOCK:   -6.96 KCAL/MOL
REMARK 923 INTER-LIGAND FREE ENERGY PREDICTED BY IDOCK:   -6.43 KCAL/MOL
REMARK 924 INTRA-LIGAND FREE ENERGY PREDICTED BY IDOCK:   -0.53 KCAL/MOL
REMARK 927      BINDING AFFINITY PREDICTED BY RF-SCORE:    0.00 PKD
ROOT
HETATM    1  N   UNK A   1     -11.420   4.498  64.972  1.00  0.00    -1.108 NA 
HETATM    2  C   UNK A   1     -10.184   4.881  65.717  1.00  0.00    -0.180 C  
HETATM    3  H2  UNK A   1     -12.127   5.230  65.038  1.00  0.00     0.000 HD 
HETATM    4  H1  UNK A   1     -11.237   4.254  63.999  1.00  0.00     0.000 HD 
HETATM    5  O   UNK A   1      -9.602   2.753  64.790  1.00  0.00    -0.148 OA 
HETATM    6  C   UNK A   1      -9.157   3.740  65.610  1.00  0.00    -0.147 C  
HETATM    7  O   UNK A   1      -8.090   3.697  66.202  1.00  0.00    -0.092 OA 
ENDROOT
BRANCH   2   8
HETATM    8  C   UNK A   1     -10.458   5.247  67.179  1.00  0.00    -0.261 C  
BRANCH   8   9
HETATM    9  C   UNK A   1     -10.540   6.752  67.452  1.00  0.00    -0.372 C  
BRANCH   9  10
HETATM   10  C   UNK A   1     -11.000   6.996  68.871  1.00  0.00    -0.118 C  
HETATM   11  O   UNK A   1     -11.373   6.086  69.605  1.00  0.00    -0.411 OA 
HETATM   12  N   UNK A   1     -10.938   8.302  69.279  1.00  0.00    -0.428 N  
HETATM   13  H   UNK A   1     -10.617   9.013  68.621  1.00  0.00     0.000 HD 
BRANCH  12  14
HETATM   14  C   UNK A   1     -11.320   8.706  70.628  1.00  0.00    -0.247 C  
BRANCH  14  15
HETATM   15  C   UNK A   1     -11.892  10.134  70.552  1.00  0.00    -0.321 C  
ATOM     16  H   GLY A   2     -11.128  10.340  68.618  1.00  0.00     0.000 HD 
ATOM     17  N   GLY A   2     -11.600  10.820  69.385  1.00  0.00    -0.287 N  
HETATM   18  O   UNK A   1     -12.628  10.596  71.421  1.00  0.00    -0.369 OA 
BRANCH  17  19
ATOM     19  CA  GLY A   2     -11.967  12.236  69.246  1.00  0.00    -0.253 C  
ATOM     20  C   GLY A   2     -12.015  12.714  67.796  1.00  0.00    -0.243 C  
ATOM     21  O   GLY A   2     -11.704  11.751  66.896  1.00  0.00    -0.557 OA 
ATOM     22  OXT GLY A   2     -12.264  13.865  67.467  1.00  0.00    -0.366 OA 
ENDBRANCH  17  19
ENDBRANCH  14  15
BRANCH  14  23
HETATM   23  C   UNK A   1     -10.139   8.745  71.611  1.00  0.00    -0.319 C  
HETATM   24  S   UNK A   1      -8.499   9.029  70.868  1.00  0.00    -0.203 SA 
HETATM   25  H   UNK A   1      -7.431   9.064  71.757  1.00  0.00     0.000 H  
ENDBRANCH  14  23
ENDBRANCH  12  14
ENDBRANCH   9  10
ENDBRANCH   8   9
ENDBRANCH   2   8
TORSDOF 7
ENDMDL
MODEL      114
REMARK 921   NORMALIZED FREE ENERGY PREDICTED BY IDOCK:   -4.53 KCAL/MOL
REMARK 922        TOTAL FREE ENERGY PREDICTED BY IDOCK:   -6.95 KCAL/MOL
REMARK 923 INTER-LIGAND FREE ENERGY PREDICTED BY IDOCK:   -6.43 KCAL/MOL
REMARK 924 INTRA-LIGAND FREE ENERGY PREDICTED BY IDOCK:   -0.52 KCAL/MOL
REMARK 927      BINDING AFFINITY PREDICTED BY RF-SCORE:    0.00 PKD
ROOT
HETATM    1  N   UNK A   1     -12.441  14.000  63.276  1.00  0.00    -1.112 NA 
HETATM    2  C   UNK A   1     -11.576  13.938  64.491  1.00  0.00    -0.393 C  
HETATM    3  H2  UNK A   1     -12.806  13.078  63.040  1.00  0.00     0.000 HD 
HETATM    4  H1  UNK A   1     -13.197  14.680  63.361  1.00  0.00     0.000 HD 
HETATM    5  O   UNK A   1     -11.560  16.269  63.952  1.00  0.00    -0.987 OA 
HETATM    6  C   UNK A   1     -11.029  15.344  64.794  1.00  0.00    -0.393 C  
HETATM    7  O   UNK A   1     -10.205  15.607  65.654  1.00  0.00    -0.321 OA 
ENDROOT
BRANCH   2   8
HETATM    8  C   UNK A   1     -10.441  12.917  64.363  1.00  0.00    -0.419 C  
BRANCH   8   9
HETATM    9  C   UNK A   1     -10.892  11.454  64.431  1.00  0.00    -0.397 C  
BRANCH   9  10
HETATM   10  C   UNK A   1      -9.961  10.666  65.323  1.00  0.00    -0.294 C  
HETATM   11  O   UNK A   1      -8.740  10.711  65.200  1.00  0.00    -0.187 OA 
HETATM   12  N   UNK A   1     -10.583   9.925  66.293  1.00  0.00    -0.087 N  
HETATM   13  H   UNK A   1     -11.602   9.931  66.345  1.00  0.00     0.000 HD 
BRANCH  12  14
HETATM   14  C   UNK A   1      -9.829   9.128  67.255  1.00  0.00    -0.189 C  
BRANCH  14  15
HETATM   15  C   UNK A   1     -10.053   7.641  66.918  1.00  0.00    -0.278 C  
ATOM     16  H   GLY A   2      -8.002   7.403  66.595  1.00  0.00     0.000 HD 
ATOM     17  N   GLY A   2      -8.915   6.949  66.540  1.00  0.00    -0.145 N  
HETATM   18  O   UNK A   1     -11.142   7.091  67.064  1.00  0.00    -0.373 OA 
BRANCH  17  19
ATOM     19  CA  GLY A   2      -9.017   5.564  66.060  1.00  0.00    -0.152 C  
ATOM     20  C   GLY A   2      -8.391   5.348  64.684  1.00  0.00    -0.141 C  
ATOM     21  O   GLY A   2      -7.859   6.472  64.147  1.00  0.00    -0.108 OA 
ATOM     22  OXT GLY A   2      -8.401   4.279  64.091  1.00  0.00    -0.095 OA 
ENDBRANCH  17  19
ENDBRANCH  14  15
BRANCH  14  23
HETATM   23  C   UNK A   1     -10.282   9.335  68.709  1.00  0.00    -0.205 C  
HETATM   24  S   UNK A   1      -9.276   8.501  69.979  1.00  0.00    -0.158 SA 
HETATM   25  H   UNK A   1      -9.686   8.688  71.294  1.00  0.00     0.000 H  
ENDBRANCH  14  23
ENDBRANCH  12  14
ENDBRANCH   9  10
ENDBRANCH   8   9
ENDBRANCH   2   8
TORSDOF 7
ENDMDL
MODEL      115
REMARK 921   NORMALIZED FREE ENERGY PREDICTED BY IDOCK:   -4.53 KCAL/MOL
REMARK 922        TOTAL FREE ENERGY PREDICTED BY IDOCK:   -6.94 KCAL/MOL
REMARK 923 INTER-LIGAND FREE ENERGY PREDICTED BY IDOCK:   -6.20 KCAL/MOL
REMARK 924 INTRA-LIGAND FREE ENERGY PREDICTED BY IDOCK:   -0.74 KCAL/MOL
REMARK 927      BINDING AFFINITY PREDICTED BY RF-SCORE:    0.00 PKD
ROOT
HETATM    1  N   UNK A   1      -8.057  18.376  65.785  1.00  0.00    -0.471 NA 
HETATM    2  C   UNK A   1      -9.214  18.934  66.546  1.00  0.00    -0.331 C  
HETATM    3  H2  UNK A   1      -8.283  18.281  64.796  1.00  0.00     0.000 HD 
HETATM    4  H1  UNK A   1      -7.200  18.915  65.914  1.00  0.00     0.000 HD 
HETATM    5  O   UNK A   1      -7.537  18.699  68.236  1.00  0.00    -0.266 OA 
HETATM    6  C   UNK A   1      -8.837  19.037  68.035  1.00  0.00    -0.309 C  
HETATM    7  O   UNK A   1      -9.601  19.350  68.933  1.00  0.00    -0.400 OA 
ENDROOT
BRANCH   2   8
HETATM    8  C   UNK A   1     -10.500  18.125  66.353  1.00  0.00    -0.364 C  
BRANCH   8   9
HETATM    9  C   UNK A   1     -10.304  16.776  65.654  1.00  0.00    -0.284 C  
BRANCH   9  10
HETATM   10  C   UNK A   1      -9.937  15.716  66.667  1.00  0.00    -0.258 C  
HETATM   11  O   UNK A   1      -8.824  15.658  67.182  1.00  0.00    -0.187 OA 
HETATM   12  N   UNK A   1     -10.949  14.849  66.984  1.00  0.00    -0.320 N  
HETATM   13  H   UNK A   1     -11.853  14.951  66.523  1.00  0.00     0.000 HD 
BRANCH  12  14
HETATM   14  C   UNK A   1     -10.770  13.783  67.965  1.00  0.00    -0.250 C  
BRANCH  14  15
HETATM   15  C   UNK A   1     -11.028  12.439  67.257  1.00  0.00    -0.260 C  
ATOM     16  H   GLY A   2      -9.074  11.835  67.686  1.00  0.00     0.000 HD 
ATOM     17  N   GLY A   2      -9.935  11.591  67.195  1.00  0.00    -0.197 N  
HETATM   18  O   UNK A   1     -12.143  12.108  66.859  1.00  0.00    -0.600 OA 
BRANCH  17  19
ATOM     19  CA  GLY A   2     -10.010  10.341  66.427  1.00  0.00    -0.229 C  
ATOM     20  C   GLY A   2     -10.318   9.115  67.284  1.00  0.00    -0.270 C  
ATOM     21  O   GLY A   2     -10.461   9.396  68.601  1.00  0.00    -0.202 OA 
ATOM     22  OXT GLY A   2     -10.388   7.977  66.844  1.00  0.00    -0.306 OA 
ENDBRANCH  17  19
ENDBRANCH  14  15
BRANCH  14  23
HETATM   23  C   UNK A   1     -11.752  13.867  69.144  1.00  0.00    -0.338 C  
HETATM   24  S   UNK A   1     -11.691  15.407  70.117  1.00  0.00    -0.361 SA 
HETATM   25  H   UNK A   1     -12.579  15.483  71.183  1.00  0.00     0.000 H  
ENDBRANCH  14  23
ENDBRANCH  12  14
ENDBRANCH   9  10
ENDBRANCH   8   9
ENDBRANCH   2   8
TORSDOF 7
ENDMDL
MODEL      116
REMARK 921   NORMALIZED FREE ENERGY PREDICTED BY IDOCK:   -4.52 KCAL/MOL
REMARK 922        TOTAL FREE ENERGY PREDICTED BY IDOCK:   -6.94 KCAL/MOL
REMARK 923 INTER-LIGAND FREE ENERGY PREDICTED BY IDOCK:   -6.38 KCAL/MOL
REMARK 924 INTRA-LIGAND FREE ENERGY PREDICTED BY IDOCK:   -0.56 KCAL/MOL
REMARK 927      BINDING AFFINITY PREDICTED BY RF-SCORE:    0.00 PKD
ROOT
HETATM    1  N   UNK A   1     -11.358   4.362  64.906  1.00  0.00    -1.085 NA 
HETATM    2  C   UNK A   1     -10.002   4.615  65.478  1.00  0.00    -0.183 C  
HETATM    3  H2  UNK A   1     -11.951   5.186  64.997  1.00  0.00     0.000 HD 
HETATM    4  H1  UNK A   1     -11.326   4.041  63.938  1.00  0.00     0.000 HD 
HETATM    5  O   UNK A   1      -9.815   2.378  64.650  1.00  0.00    -0.069 OA 
HETATM    6  C   UNK A   1      -9.151   3.340  65.342  1.00  0.00    -0.149 C  
HETATM    7  O   UNK A   1      -8.036   3.186  65.813  1.00  0.00    -0.084 OA 
ENDROOT
BRANCH   2   8
HETATM    8  C   UNK A   1     -10.050   5.098  66.931  1.00  0.00    -0.258 C  
BRANCH   8   9
HETATM    9  C   UNK A   1     -11.007   6.267  67.182  1.00  0.00    -0.453 C  
BRANCH   9  10
HETATM   10  C   UNK A   1     -10.224   7.534  67.432  1.00  0.00    -0.249 C  
HETATM   11  O   UNK A   1      -9.081   7.521  67.882  1.00  0.00    -0.131 OA 
HETATM   12  N   UNK A   1     -10.874   8.691  67.091  1.00  0.00    -0.391 N  
HETATM   13  H   UNK A   1     -11.823   8.635  66.719  1.00  0.00     0.000 HD 
BRANCH  12  14
HETATM   14  C   UNK A   1     -10.249  10.000  67.244  1.00  0.00    -0.222 C  
BRANCH  14  15
HETATM   15  C   UNK A   1     -11.195  10.883  68.080  1.00  0.00    -0.314 C  
ATOM     16  H   GLY A   2     -10.236  10.257  69.829  1.00  0.00     0.000 HD 
ATOM     17  N   GLY A   2     -11.015  10.797  69.451  1.00  0.00    -0.237 N  
HETATM   18  O   UNK A   1     -11.984  11.672  67.566  1.00  0.00    -0.622 OA 
BRANCH  17  19
ATOM     19  CA  GLY A   2     -11.943  11.480  70.362  1.00  0.00    -0.368 C  
ATOM     20  C   GLY A   2     -12.564  10.554  71.407  1.00  0.00    -0.434 C  
ATOM     21  O   GLY A   2     -12.155   9.268  71.303  1.00  0.00    -0.303 OA 
ATOM     22  OXT GLY A   2     -13.387  10.917  72.234  1.00  0.00    -0.380 OA 
ENDBRANCH  17  19
ENDBRANCH  14  15
BRANCH  14  23
HETATM   23  C   UNK A   1     -10.016  10.725  65.909  1.00  0.00    -0.250 C  
HETATM   24  S   UNK A   1      -8.675  10.062  64.870  1.00  0.00    -0.198 SA 
HETATM   25  H   UNK A   1      -8.465  10.718  63.663  1.00  0.00     0.000 H  
ENDBRANCH  14  23
ENDBRANCH  12  14
ENDBRANCH   9  10
ENDBRANCH   8   9
ENDBRANCH   2   8
TORSDOF 7
ENDMDL
MODEL      117
REMARK 921   NORMALIZED FREE ENERGY PREDICTED BY IDOCK:   -4.52 KCAL/MOL
REMARK 922        TOTAL FREE ENERGY PREDICTED BY IDOCK:   -6.93 KCAL/MOL
REMARK 923 INTER-LIGAND FREE ENERGY PREDICTED BY IDOCK:   -6.22 KCAL/MOL
REMARK 924 INTRA-LIGAND FREE ENERGY PREDICTED BY IDOCK:   -0.71 KCAL/MOL
REMARK 927      BINDING AFFINITY PREDICTED BY RF-SCORE:    0.00 PKD
ROOT
HETATM    1  N   UNK A   1     -11.500   4.473  64.881  1.00  0.00    -1.070 NA 
HETATM    2  C   UNK A   1     -10.012   4.434  64.993  1.00  0.00    -0.150 C  
HETATM    3  H2  UNK A   1     -11.864   5.380  65.171  1.00  0.00     0.000 HD 
HETATM    4  H1  UNK A   1     -11.835   4.226  63.950  1.00  0.00     0.000 HD 
HETATM    5  O   UNK A   1     -10.531   2.271  64.113  1.00  0.00     0.013 OA 
HETATM    6  C   UNK A   1      -9.511   3.041  64.571  1.00  0.00    -0.147 C  
HETATM    7  O   UNK A   1      -8.356   2.654  64.656  1.00  0.00    -0.086 OA 
ENDROOT
BRANCH   2   8
HETATM    8  C   UNK A   1      -9.509   4.804  66.392  1.00  0.00    -0.159 C  
BRANCH   8   9
HETATM    9  C   UNK A   1      -8.872   6.193  66.492  1.00  0.00    -0.134 C  
BRANCH   9  10
HETATM   10  C   UNK A   1      -9.942   7.241  66.689  1.00  0.00    -0.176 C  
HETATM   11  O   UNK A   1     -11.102   6.950  66.968  1.00  0.00    -0.389 OA 
HETATM   12  N   UNK A   1      -9.511   8.535  66.563  1.00  0.00    -0.200 N  
HETATM   13  H   UNK A   1      -8.533   8.712  66.331  1.00  0.00     0.000 HD 
BRANCH  12  14
HETATM   14  C   UNK A   1     -10.411   9.669  66.749  1.00  0.00    -0.186 C  
BRANCH  14  15
HETATM   15  C   UNK A   1     -10.242  10.612  65.543  1.00  0.00    -0.262 C  
ATOM     16  H   GLY A   2     -11.136  12.160  66.627  1.00  0.00     0.000 HD 
ATOM     17  N   GLY A   2     -10.768  11.882  65.717  1.00  0.00    -0.274 N  
HETATM   18  O   UNK A   1      -9.609  10.292  64.540  1.00  0.00    -0.270 OA 
BRANCH  17  19
ATOM     19  CA  GLY A   2     -10.796  12.830  64.595  1.00  0.00    -0.335 C  
ATOM     20  C   GLY A   2     -12.181  12.999  63.973  1.00  0.00    -0.417 C  
ATOM     21  O   GLY A   2     -13.136  12.239  64.562  1.00  0.00    -0.791 OA 
ATOM     22  OXT GLY A   2     -12.413  13.712  63.008  1.00  0.00    -0.719 OA 
ENDBRANCH  17  19
ENDBRANCH  14  15
BRANCH  14  23
HETATM   23  C   UNK A   1     -10.105  10.490  68.011  1.00  0.00    -0.165 C  
HETATM   24  S   UNK A   1     -11.499  10.728  69.160  1.00  0.00    -0.306 SA 
HETATM   25  H   UNK A   1     -11.222  11.471  70.301  1.00  0.00     0.000 H  
ENDBRANCH  14  23
ENDBRANCH  12  14
ENDBRANCH   9  10
ENDBRANCH   8   9
ENDBRANCH   2   8
TORSDOF 7
ENDMDL
MODEL      118
REMARK 921   NORMALIZED FREE ENERGY PREDICTED BY IDOCK:   -4.51 KCAL/MOL
REMARK 922        TOTAL FREE ENERGY PREDICTED BY IDOCK:   -6.92 KCAL/MOL
REMARK 923 INTER-LIGAND FREE ENERGY PREDICTED BY IDOCK:   -6.30 KCAL/MOL
REMARK 924 INTRA-LIGAND FREE ENERGY PREDICTED BY IDOCK:   -0.62 KCAL/MOL
REMARK 927      BINDING AFFINITY PREDICTED BY RF-SCORE:    0.00 PKD
ROOT
HETATM    1  N   UNK A   1     -12.208  13.940  63.087  1.00  0.00    -1.066 NA 
HETATM    2  C   UNK A   1     -11.626  13.687  64.438  1.00  0.00    -0.393 C  
HETATM    3  H2  UNK A   1     -11.699  14.679  62.602  1.00  0.00     0.000 HD 
HETATM    4  H1  UNK A   1     -12.261  13.098  62.513  1.00  0.00     0.000 HD 
HETATM    5  O   UNK A   1     -13.384  12.071  64.312  1.00  0.00    -0.709 OA 
HETATM    6  C   UNK A   1     -12.439  12.585  65.139  1.00  0.00    -0.379 C  
HETATM    7  O   UNK A   1     -12.286  12.228  66.297  1.00  0.00    -0.628 OA 
ENDROOT
BRANCH   2   8
HETATM    8  C   UNK A   1     -11.547  14.952  65.299  1.00  0.00    -0.300 C  
BRANCH   8   9
HETATM    9  C   UNK A   1     -10.128  15.489  65.510  1.00  0.00    -0.406 C  
BRANCH   9  10
HETATM   10  C   UNK A   1      -9.542  14.918  66.781  1.00  0.00    -0.251 C  
HETATM   11  O   UNK A   1     -10.144  14.945  67.851  1.00  0.00    -0.225 OA 
HETATM   12  N   UNK A   1      -8.306  14.344  66.639  1.00  0.00    -0.393 N  
HETATM   13  H   UNK A   1      -7.858  14.351  65.722  1.00  0.00     0.000 HD 
BRANCH  12  14
HETATM   14  C   UNK A   1      -7.611  13.723  67.762  1.00  0.00    -0.169 C  
BRANCH  14  15
HETATM   15  C   UNK A   1      -6.950  14.842  68.588  1.00  0.00    -0.110 C  
ATOM     16  H   GLY A   2      -6.087  15.618  66.850  1.00  0.00     0.000 HD 
ATOM     17  N   GLY A   2      -6.135  15.698  67.866  1.00  0.00    -0.135 N  
HETATM   18  O   UNK A   1      -7.200  15.016  69.778  1.00  0.00    -0.186 OA 
BRANCH  17  19
ATOM     19  CA  GLY A   2      -5.337  16.719  68.559  1.00  0.00    -0.122 C  
ATOM     20  C   GLY A   2      -5.960  18.113  68.514  1.00  0.00    -0.190 C  
ATOM     21  O   GLY A   2      -7.133  18.162  67.839  1.00  0.00    -0.210 OA 
ATOM     22  OXT GLY A   2      -5.439  19.107  68.998  1.00  0.00    -0.196 OA 
ENDBRANCH  17  19
ENDBRANCH  14  15
BRANCH  14  23
HETATM   23  C   UNK A   1      -6.494  12.759  67.331  1.00  0.00    -0.137 C  
HETATM   24  S   UNK A   1      -7.043  11.216  66.533  1.00  0.00    -0.092 SA 
HETATM   25  H   UNK A   1      -6.032  10.345  66.143  1.00  0.00     0.000 H  
ENDBRANCH  14  23
ENDBRANCH  12  14
ENDBRANCH   9  10
ENDBRANCH   8   9
ENDBRANCH   2   8
TORSDOF 7
ENDMDL
MODEL      119
REMARK 921   NORMALIZED FREE ENERGY PREDICTED BY IDOCK:   -4.49 KCAL/MOL
REMARK 922        TOTAL FREE ENERGY PREDICTED BY IDOCK:   -6.89 KCAL/MOL
REMARK 923 INTER-LIGAND FREE ENERGY PREDICTED BY IDOCK:   -5.80 KCAL/MOL
REMARK 924 INTRA-LIGAND FREE ENERGY PREDICTED BY IDOCK:   -1.10 KCAL/MOL
REMARK 927      BINDING AFFINITY PREDICTED BY RF-SCORE:    0.00 PKD
ROOT
HETATM    1  N   UNK A   1     -10.288  11.469  69.506  1.00  0.00    -0.419 NA 
HETATM    2  C   UNK A   1     -10.987  10.229  69.056  1.00  0.00    -0.232 C  
HETATM    3  H2  UNK A   1     -10.654  12.290  69.025  1.00  0.00     0.000 HD 
HETATM    4  H1  UNK A   1     -10.316  11.596  70.517  1.00  0.00     0.000 HD 
HETATM    5  O   UNK A   1      -9.470   9.406  70.712  1.00  0.00    -0.258 OA 
HETATM    6  C   UNK A   1     -10.386   9.017  69.788  1.00  0.00    -0.211 C  
HETATM    7  O   UNK A   1     -10.663   7.850  69.560  1.00  0.00    -0.236 OA 
ENDROOT
BRANCH   2   8
HETATM    8  C   UNK A   1     -10.944  10.038  67.537  1.00  0.00    -0.276 C  
BRANCH   8   9
HETATM    9  C   UNK A   1      -9.571  10.285  66.904  1.00  0.00    -0.211 C  
BRANCH   9  10
HETATM   10  C   UNK A   1      -9.661  11.400  65.888  1.00  0.00    -0.227 C  
HETATM   11  O   UNK A   1      -9.052  11.367  64.822  1.00  0.00    -0.102 OA 
HETATM   12  N   UNK A   1     -10.494  12.430  66.236  1.00  0.00    -0.241 N  
HETATM   13  H   UNK A   1     -10.974  12.398  67.136  1.00  0.00     0.000 HD 
BRANCH  12  14
HETATM   14  C   UNK A   1     -10.715  13.573  65.356  1.00  0.00    -0.304 C  
BRANCH  14  15
HETATM   15  C   UNK A   1     -10.722  14.846  66.223  1.00  0.00    -0.320 C  
ATOM     16  H   GLY A   2     -10.714  13.671  67.952  1.00  0.00     0.000 HD 
ATOM     17  N   GLY A   2     -10.778  14.623  67.589  1.00  0.00    -0.267 N  
HETATM   18  O   UNK A   1     -10.594  15.970  65.744  1.00  0.00    -0.343 OA 
BRANCH  17  19
ATOM     19  CA  GLY A   2     -10.931  15.751  68.518  1.00  0.00    -0.312 C  
ATOM     20  C   GLY A   2     -11.416  15.338  69.906  1.00  0.00    -0.304 C  
ATOM     21  O   GLY A   2     -11.626  14.006  70.033  1.00  0.00    -0.268 OA 
ATOM     22  OXT GLY A   2     -11.640  16.127  70.811  1.00  0.00    -0.392 OA 
ENDBRANCH  17  19
ENDBRANCH  14  15
BRANCH  14  23
HETATM   23  C   UNK A   1     -12.062  13.523  64.618  1.00  0.00    -0.409 C  
HETATM   24  S   UNK A   1     -12.312  12.091  63.519  1.00  0.00    -0.465 SA 
HETATM   25  H   UNK A   1     -13.530  12.046  62.852  1.00  0.00     0.000 H  
ENDBRANCH  14  23
ENDBRANCH  12  14
ENDBRANCH   9  10
ENDBRANCH   8   9
ENDBRANCH   2   8
TORSDOF 7
ENDMDL
MODEL      120
REMARK 921   NORMALIZED FREE ENERGY PREDICTED BY IDOCK:   -4.49 KCAL/MOL
REMARK 922        TOTAL FREE ENERGY PREDICTED BY IDOCK:   -6.89 KCAL/MOL
REMARK 923 INTER-LIGAND FREE ENERGY PREDICTED BY IDOCK:   -5.96 KCAL/MOL
REMARK 924 INTRA-LIGAND FREE ENERGY PREDICTED BY IDOCK:   -0.93 KCAL/MOL
REMARK 927      BINDING AFFINITY PREDICTED BY RF-SCORE:    0.00 PKD
ROOT
HETATM    1  N   UNK A   1      -9.496  11.360  68.198  1.00  0.00    -0.174 NA 
HETATM    2  C   UNK A   1      -9.656  10.254  67.207  1.00  0.00    -0.159 C  
HETATM    3  H2  UNK A   1      -9.359  10.990  69.138  1.00  0.00     0.000 HD 
HETATM    4  H1  UNK A   1      -8.750  12.010  67.949  1.00  0.00     0.000 HD 
HETATM    5  O   UNK A   1      -9.772  12.211  65.835  1.00  0.00    -0.241 OA 
HETATM    6  C   UNK A   1      -9.884  10.858  65.810  1.00  0.00    -0.237 C  
HETATM    7  O   UNK A   1     -10.161  10.221  64.806  1.00  0.00    -0.344 OA 
ENDROOT
BRANCH   2   8
HETATM    8  C   UNK A   1     -10.776   9.278  67.580  1.00  0.00    -0.272 C  
BRANCH   8   9
HETATM    9  C   UNK A   1     -10.303   7.853  67.880  1.00  0.00    -0.281 C  
BRANCH   9  10
HETATM   10  C   UNK A   1     -11.000   7.323  69.112  1.00  0.00    -0.068 C  
HETATM   11  O   UNK A   1     -11.183   6.124  69.297  1.00  0.00    -0.387 OA 
HETATM   12  N   UNK A   1     -11.383   8.282  70.013  1.00  0.00    -0.452 N  
HETATM   13  H   UNK A   1     -11.200   9.263  69.801  1.00  0.00     0.000 HD 
BRANCH  12  14
HETATM   14  C   UNK A   1     -12.044   7.938  71.268  1.00  0.00    -0.296 C  
BRANCH  14  15
HETATM   15  C   UNK A   1     -12.853   9.165  71.729  1.00  0.00    -0.377 C  
ATOM     16  H   GLY A   2     -11.701  10.393  70.490  1.00  0.00     0.000 HD 
ATOM     17  N   GLY A   2     -12.430  10.375  71.204  1.00  0.00    -0.366 N  
HETATM   18  O   UNK A   1     -13.854   9.066  72.435  1.00  0.00    -0.464 OA 
BRANCH  17  19
ATOM     19  CA  GLY A   2     -13.027  11.634  71.672  1.00  0.00    -0.378 C  
ATOM     20  C   GLY A   2     -12.574  12.856  70.877  1.00  0.00    -0.270 C  
ATOM     21  O   GLY A   2     -11.697  12.565  69.887  1.00  0.00    -0.303 OA 
ATOM     22  OXT GLY A   2     -12.925  14.000  71.128  1.00  0.00    -0.328 OA 
ENDBRANCH  17  19
ENDBRANCH  14  15
BRANCH  14  23
HETATM   23  C   UNK A   1     -11.064   7.592  72.400  1.00  0.00    -0.310 C  
HETATM   24  S   UNK A   1     -11.067   5.855  72.948  1.00  0.00    -0.252 SA 
HETATM   25  H   UNK A   1     -10.181   5.542  73.972  1.00  0.00     0.000 H  
ENDBRANCH  14  23
ENDBRANCH  12  14
ENDBRANCH   9  10
ENDBRANCH   8   9
ENDBRANCH   2   8
TORSDOF 7
ENDMDL
MODEL      121
REMARK 921   NORMALIZED FREE ENERGY PREDICTED BY IDOCK:   -4.48 KCAL/MOL
REMARK 922        TOTAL FREE ENERGY PREDICTED BY IDOCK:   -6.87 KCAL/MOL
REMARK 923 INTER-LIGAND FREE ENERGY PREDICTED BY IDOCK:   -5.92 KCAL/MOL
REMARK 924 INTRA-LIGAND FREE ENERGY PREDICTED BY IDOCK:   -0.96 KCAL/MOL
REMARK 927      BINDING AFFINITY PREDICTED BY RF-SCORE:    0.00 PKD
ROOT
HETATM    1  N   UNK A   1     -11.923  12.288  70.117  1.00  0.00    -0.425 NA 
HETATM    2  C   UNK A   1     -12.121  10.831  69.861  1.00  0.00    -0.337 C  
HETATM    3  H2  UNK A   1     -11.522  12.751  69.302  1.00  0.00     0.000 HD 
HETATM    4  H1  UNK A   1     -12.776  12.758  70.420  1.00  0.00     0.000 HD 
HETATM    5  O   UNK A   1     -12.977  11.096  72.079  1.00  0.00    -0.447 OA 
HETATM    6  C   UNK A   1     -12.702  10.171  71.123  1.00  0.00    -0.396 C  
HETATM    7  O   UNK A   1     -12.874   8.972  71.274  1.00  0.00    -0.311 OA 
ENDROOT
BRANCH   2   8
HETATM    8  C   UNK A   1     -10.839  10.126  69.406  1.00  0.00    -0.274 C  
BRANCH   8   9
HETATM    9  C   UNK A   1     -10.553  10.233  67.905  1.00  0.00    -0.282 C  
BRANCH   9  10
HETATM   10  C   UNK A   1      -9.690  11.442  67.626  1.00  0.00    -0.172 C  
HETATM   11  O   UNK A   1      -8.481  11.353  67.432  1.00  0.00    -0.136 OA 
HETATM   12  N   UNK A   1     -10.365  12.633  67.578  1.00  0.00    -0.216 N  
HETATM   13  H   UNK A   1     -11.372  12.640  67.746  1.00  0.00     0.000 HD 
BRANCH  12  14
HETATM   14  C   UNK A   1      -9.686  13.892  67.293  1.00  0.00    -0.245 C  
BRANCH  14  15
HETATM   15  C   UNK A   1     -10.476  15.023  67.978  1.00  0.00    -0.242 C  
ATOM     16  H   GLY A   2      -9.765  16.382  66.557  1.00  0.00     0.000 HD 
ATOM     17  N   GLY A   2     -10.302  16.279  67.419  1.00  0.00    -0.280 N  
HETATM   18  O   UNK A   1     -11.270  14.812  68.891  1.00  0.00    -0.241 OA 
BRANCH  17  19
ATOM     19  CA  GLY A   2     -10.888  17.462  68.062  1.00  0.00    -0.281 C  
ATOM     20  C   GLY A   2      -9.848  18.441  68.603  1.00  0.00    -0.376 C  
ATOM     21  O   GLY A   2      -8.570  18.041  68.400  1.00  0.00    -0.279 OA 
ATOM     22  OXT GLY A   2     -10.127  19.468  69.204  1.00  0.00    -0.424 OA 
ENDBRANCH  17  19
ENDBRANCH  14  15
BRANCH  14  23
HETATM   23  C   UNK A   1      -9.625  14.227  65.794  1.00  0.00    -0.155 C  
HETATM   24  S   UNK A   1     -11.112  13.810  64.828  1.00  0.00    -0.395 SA 
HETATM   25  H   UNK A   1     -11.058  14.114  63.473  1.00  0.00     0.000 H  
ENDBRANCH  14  23
ENDBRANCH  12  14
ENDBRANCH   9  10
ENDBRANCH   8   9
ENDBRANCH   2   8
TORSDOF 7
ENDMDL
MODEL      122
REMARK 921   NORMALIZED FREE ENERGY PREDICTED BY IDOCK:   -4.47 KCAL/MOL
REMARK 922        TOTAL FREE ENERGY PREDICTED BY IDOCK:   -6.86 KCAL/MOL
REMARK 923 INTER-LIGAND FREE ENERGY PREDICTED BY IDOCK:   -5.73 KCAL/MOL
REMARK 924 INTRA-LIGAND FREE ENERGY PREDICTED BY IDOCK:   -1.13 KCAL/MOL
REMARK 927      BINDING AFFINITY PREDICTED BY RF-SCORE:    0.00 PKD
ROOT
HETATM    1  N   UNK A   1      -9.927   9.394  65.327  1.00  0.00    -0.382 NA 
HETATM    2  C   UNK A   1     -10.236   8.885  66.696  1.00  0.00    -0.268 C  
HETATM    3  H2  UNK A   1     -10.429   8.860  64.618  1.00  0.00     0.000 HD 
HETATM    4  H1  UNK A   1     -10.106  10.393  65.226  1.00  0.00     0.000 HD 
HETATM    5  O   UNK A   1      -8.767  10.721  67.137  1.00  0.00    -0.130 OA 
HETATM    6  C   UNK A   1      -9.440   9.702  67.730  1.00  0.00    -0.127 C  
HETATM    7  O   UNK A   1      -9.387   9.462  68.926  1.00  0.00    -0.150 OA 
ENDROOT
BRANCH   2   8
HETATM    8  C   UNK A   1      -9.967   7.385  66.849  1.00  0.00    -0.307 C  
BRANCH   8   9
HETATM    9  C   UNK A   1     -11.147   6.581  67.404  1.00  0.00    -0.411 C  
BRANCH   9  10
HETATM   10  C   UNK A   1     -10.860   6.153  68.825  1.00  0.00    -0.336 C  
HETATM   11  O   UNK A   1     -10.409   5.044  69.097  1.00  0.00    -0.193 OA 
HETATM   12  N   UNK A   1     -11.114   7.106  69.775  1.00  0.00    -0.380 N  
HETATM   13  H   UNK A   1     -11.487   8.010  69.484  1.00  0.00     0.000 HD 
BRANCH  12  14
HETATM   14  C   UNK A   1     -10.866   6.864  71.193  1.00  0.00    -0.240 C  
BRANCH  14  15
HETATM   15  C   UNK A   1     -11.692   7.884  72.000  1.00  0.00    -0.311 C  
ATOM     16  H   GLY A   2     -12.693   8.456  70.256  1.00  0.00     0.000 HD 
ATOM     17  N   GLY A   2     -12.564   8.655  71.248  1.00  0.00    -0.277 N  
HETATM   18  O   UNK A   1     -11.647   7.946  73.226  1.00  0.00    -0.252 OA 
BRANCH  17  19
ATOM     19  CA  GLY A   2     -13.306   9.757  71.876  1.00  0.00    -0.436 C  
ATOM     20  C   GLY A   2     -12.825  11.140  71.442  1.00  0.00    -0.439 C  
ATOM     21  O   GLY A   2     -11.797  11.106  70.561  1.00  0.00    -0.337 OA 
ATOM     22  OXT GLY A   2     -13.284  12.187  71.874  1.00  0.00    -0.478 OA 
ENDBRANCH  17  19
ENDBRANCH  14  15
BRANCH  14  23
HETATM   23  C   UNK A   1      -9.396   7.054  71.597  1.00  0.00    -0.156 C  
HETATM   24  S   UNK A   1      -8.582   5.600  72.334  1.00  0.00    -0.121 SA 
HETATM   25  H   UNK A   1      -7.252   5.772  72.699  1.00  0.00     0.000 H  
ENDBRANCH  14  23
ENDBRANCH  12  14
ENDBRANCH   9  10
ENDBRANCH   8   9
ENDBRANCH   2   8
TORSDOF 7
ENDMDL
MODEL      123
REMARK 921   NORMALIZED FREE ENERGY PREDICTED BY IDOCK:   -4.46 KCAL/MOL
REMARK 922        TOTAL FREE ENERGY PREDICTED BY IDOCK:   -6.86 KCAL/MOL
REMARK 923 INTER-LIGAND FREE ENERGY PREDICTED BY IDOCK:   -6.43 KCAL/MOL
REMARK 924 INTRA-LIGAND FREE ENERGY PREDICTED BY IDOCK:   -0.43 KCAL/MOL
REMARK 927      BINDING AFFINITY PREDICTED BY RF-SCORE:    0.00 PKD
ROOT
HETATM    1  N   UNK A   1     -10.820   8.417  72.072  1.00  0.00    -0.295 NA 
HETATM    2  C   UNK A   1     -11.376   8.048  70.737  1.00  0.00    -0.272 C  
HETATM    3  H2  UNK A   1     -10.926   9.415  72.249  1.00  0.00     0.000 HD 
HETATM    4  H1  UNK A   1     -11.218   7.867  72.833  1.00  0.00     0.000 HD 
HETATM    5  O   UNK A   1     -10.646   5.940  71.603  1.00  0.00    -0.225 OA 
HETATM    6  C   UNK A   1     -11.171   6.541  70.503  1.00  0.00    -0.344 C  
HETATM    7  O   UNK A   1     -11.415   5.951  69.463  1.00  0.00    -0.283 OA 
ENDROOT
BRANCH   2   8
HETATM    8  C   UNK A   1     -10.777   8.873  69.593  1.00  0.00    -0.222 C  
BRANCH   8   9
HETATM    9  C   UNK A   1     -11.457  10.225  69.361  1.00  0.00    -0.248 C  
BRANCH   9  10
HETATM   10  C   UNK A   1     -10.837  10.921  68.172  1.00  0.00    -0.234 C  
HETATM   11  O   UNK A   1      -9.700  10.667  67.783  1.00  0.00    -0.158 OA 
HETATM   12  N   UNK A   1     -11.649  11.830  67.548  1.00  0.00    -0.311 N  
HETATM   13  H   UNK A   1     -12.586  11.995  67.918  1.00  0.00     0.000 HD 
BRANCH  12  14
HETATM   14  C   UNK A   1     -11.214  12.569  66.368  1.00  0.00    -0.306 C  
BRANCH  14  15
HETATM   15  C   UNK A   1     -10.819  13.989  66.816  1.00  0.00    -0.294 C  
ATOM     16  H   GLY A   2      -9.388  14.074  65.295  1.00  0.00     0.000 HD 
ATOM     17  N   GLY A   2      -9.771  14.555  66.110  1.00  0.00    -0.309 N  
HETATM   18  O   UNK A   1     -11.446  14.607  67.673  1.00  0.00    -0.317 OA 
BRANCH  17  19
ATOM     19  CA  GLY A   2      -9.208  15.846  66.529  1.00  0.00    -0.279 C  
ATOM     20  C   GLY A   2      -9.804  17.042  65.789  1.00  0.00    -0.102 C  
ATOM     21  O   GLY A   2     -10.742  16.700  64.873  1.00  0.00    -0.710 OA 
ATOM     22  OXT GLY A   2      -9.448  18.198  65.963  1.00  0.00    -0.503 OA 
ENDBRANCH  17  19
ENDBRANCH  14  15
BRANCH  14  23
HETATM   23  C   UNK A   1     -12.311  12.721  65.303  1.00  0.00    -0.488 C  
HETATM   24  S   UNK A   1     -11.889  12.115  63.637  1.00  0.00    -0.525 SA 
HETATM   25  H   UNK A   1     -12.882  12.252  62.674  1.00  0.00     0.000 H  
ENDBRANCH  14  23
ENDBRANCH  12  14
ENDBRANCH   9  10
ENDBRANCH   8   9
ENDBRANCH   2   8
TORSDOF 7
ENDMDL
MODEL      124
REMARK 921   NORMALIZED FREE ENERGY PREDICTED BY IDOCK:   -4.46 KCAL/MOL
REMARK 922        TOTAL FREE ENERGY PREDICTED BY IDOCK:   -6.84 KCAL/MOL
REMARK 923 INTER-LIGAND FREE ENERGY PREDICTED BY IDOCK:   -6.24 KCAL/MOL
REMARK 924 INTRA-LIGAND FREE ENERGY PREDICTED BY IDOCK:   -0.60 KCAL/MOL
REMARK 927      BINDING AFFINITY PREDICTED BY RF-SCORE:    0.00 PKD
ROOT
HETATM    1  N   UNK A   1      -9.393   7.561  65.809  1.00  0.00    -0.396 NA 
HETATM    2  C   UNK A   1      -9.766   7.646  67.251  1.00  0.00    -0.169 C  
HETATM    3  H2  UNK A   1      -8.777   8.330  65.545  1.00  0.00     0.000 HD 
HETATM    4  H1  UNK A   1      -8.982   6.662  65.557  1.00  0.00     0.000 HD 
HETATM    5  O   UNK A   1     -10.866   5.644  66.541  1.00  0.00    -0.284 OA 
HETATM    6  C   UNK A   1     -10.714   6.483  67.597  1.00  0.00    -0.307 C  
HETATM    7  O   UNK A   1     -11.285   6.336  68.666  1.00  0.00    -0.356 OA 
ENDROOT
BRANCH   2   8
HETATM    8  C   UNK A   1     -10.384   8.996  67.629  1.00  0.00    -0.317 C  
BRANCH   8   9
HETATM    9  C   UNK A   1      -9.377  10.144  67.748  1.00  0.00    -0.153 C  
BRANCH   9  10
HETATM   10  C   UNK A   1      -9.690  11.216  66.730  1.00  0.00    -0.193 C  
HETATM   11  O   UNK A   1      -9.228  11.195  65.592  1.00  0.00    -0.210 OA 
HETATM   12  N   UNK A   1     -10.549  12.191  67.165  1.00  0.00    -0.222 N  
HETATM   13  H   UNK A   1     -10.901  12.151  68.122  1.00  0.00     0.000 HD 
BRANCH  12  14
HETATM   14  C   UNK A   1     -10.975  13.284  66.298  1.00  0.00    -0.284 C  
BRANCH  14  15
HETATM   15  C   UNK A   1     -11.161  14.539  67.173  1.00  0.00    -0.333 C  
ATOM     16  H   GLY A   2     -11.868  13.345  68.736  1.00  0.00     0.000 HD 
ATOM     17  N   GLY A   2     -11.711  14.303  68.422  1.00  0.00    -0.321 N  
HETATM   18  O   UNK A   1     -10.768  15.649  66.824  1.00  0.00    -0.308 OA 
BRANCH  17  19
ATOM     19  CA  GLY A   2     -12.068  15.428  69.297  1.00  0.00    -0.255 C  
ATOM     20  C   GLY A   2     -12.629  14.995  70.650  1.00  0.00    -0.374 C  
ATOM     21  O   GLY A   2     -12.703  13.651  70.801  1.00  0.00    -0.314 OA 
ATOM     22  OXT GLY A   2     -13.019  15.774  71.507  1.00  0.00    -0.470 OA 
ENDBRANCH  17  19
ENDBRANCH  14  15
BRANCH  14  23
HETATM   23  C   UNK A   1     -12.317  13.020  65.596  1.00  0.00    -0.446 C  
HETATM   24  S   UNK A   1     -12.209  12.410  63.883  1.00  0.00    -0.531 SA 
HETATM   25  H   UNK A   1     -13.422  12.171  63.249  1.00  0.00     0.000 H  
ENDBRANCH  14  23
ENDBRANCH  12  14
ENDBRANCH   9  10
ENDBRANCH   8   9
ENDBRANCH   2   8
TORSDOF 7
ENDMDL
MODEL      125
REMARK 921   NORMALIZED FREE ENERGY PREDICTED BY IDOCK:   -4.45 KCAL/MOL
REMARK 922        TOTAL FREE ENERGY PREDICTED BY IDOCK:   -6.84 KCAL/MOL
REMARK 923 INTER-LIGAND FREE ENERGY PREDICTED BY IDOCK:   -6.19 KCAL/MOL
REMARK 924 INTRA-LIGAND FREE ENERGY PREDICTED BY IDOCK:   -0.65 KCAL/MOL
REMARK 927      BINDING AFFINITY PREDICTED BY RF-SCORE:    0.00 PKD
ROOT
HETATM    1  N   UNK A   1     -12.310  15.545  68.576  1.00  0.00    -0.442 NA 
HETATM    2  C   UNK A   1     -11.308  14.643  67.936  1.00  0.00    -0.315 C  
HETATM    3  H2  UNK A   1     -13.170  15.580  68.029  1.00  0.00     0.000 HD 
HETATM    4  H1  UNK A   1     -12.505  15.297  69.546  1.00  0.00     0.000 HD 
HETATM    5  O   UNK A   1     -10.179  15.361  69.919  1.00  0.00    -0.282 OA 
HETATM    6  C   UNK A   1     -10.021  14.639  68.779  1.00  0.00    -0.235 C  
HETATM    7  O   UNK A   1      -8.976  14.090  68.466  1.00  0.00    -0.190 OA 
ENDROOT
BRANCH   2   8
HETATM    8  C   UNK A   1     -11.015  15.015  66.479  1.00  0.00    -0.327 C  
BRANCH   8   9
HETATM    9  C   UNK A   1     -10.513  13.855  65.615  1.00  0.00    -0.320 C  
BRANCH   9  10
HETATM   10  C   UNK A   1     -11.176  12.566  66.042  1.00  0.00    -0.315 C  
HETATM   11  O   UNK A   1     -12.322  12.277  65.712  1.00  0.00    -0.622 OA 
HETATM   12  N   UNK A   1     -10.389  11.737  66.798  1.00  0.00    -0.214 N  
HETATM   13  H   UNK A   1      -9.443  12.034  67.038  1.00  0.00     0.000 HD 
BRANCH  12  14
HETATM   14  C   UNK A   1     -10.867  10.442  67.271  1.00  0.00    -0.264 C  
BRANCH  14  15
HETATM   15  C   UNK A   1     -11.464  10.640  68.677  1.00  0.00    -0.263 C  
ATOM     16  H   GLY A   2      -9.975   9.414  69.483  1.00  0.00     0.000 HD 
ATOM     17  N   GLY A   2     -10.831   9.932  69.686  1.00  0.00    -0.240 N  
HETATM   18  O   UNK A   1     -12.372  11.436  68.901  1.00  0.00    -0.446 OA 
BRANCH  17  19
ATOM     19  CA  GLY A   2     -11.387   9.925  71.046  1.00  0.00    -0.386 C  
ATOM     20  C   GLY A   2     -11.783   8.534  71.536  1.00  0.00    -0.297 C  
ATOM     21  O   GLY A   2     -11.558   7.554  70.628  1.00  0.00    -0.288 OA 
ATOM     22  OXT GLY A   2     -12.296   8.315  72.623  1.00  0.00    -0.338 OA 
ENDBRANCH  17  19
ENDBRANCH  14  15
BRANCH  14  23
HETATM   23  C   UNK A   1      -9.754   9.389  67.397  1.00  0.00    -0.159 C  
HETATM   24  S   UNK A   1     -10.144   7.740  66.728  1.00  0.00    -0.249 SA 
HETATM   25  H   UNK A   1      -9.137   6.788  66.842  1.00  0.00     0.000 H  
ENDBRANCH  14  23
ENDBRANCH  12  14
ENDBRANCH   9  10
ENDBRANCH   8   9
ENDBRANCH   2   8
TORSDOF 7
ENDMDL
MODEL      126
REMARK 921   NORMALIZED FREE ENERGY PREDICTED BY IDOCK:   -4.45 KCAL/MOL
REMARK 922        TOTAL FREE ENERGY PREDICTED BY IDOCK:   -6.84 KCAL/MOL
REMARK 923 INTER-LIGAND FREE ENERGY PREDICTED BY IDOCK:   -6.15 KCAL/MOL
REMARK 924 INTRA-LIGAND FREE ENERGY PREDICTED BY IDOCK:   -0.69 KCAL/MOL
REMARK 927      BINDING AFFINITY PREDICTED BY RF-SCORE:    0.00 PKD
ROOT
HETATM    1  N   UNK A   1     -11.924  12.180  70.187  1.00  0.00    -0.417 NA 
HETATM    2  C   UNK A   1     -11.963  10.691  70.290  1.00  0.00    -0.339 C  
HETATM    3  H2  UNK A   1     -11.411  12.474  69.356  1.00  0.00     0.000 HD 
HETATM    4  H1  UNK A   1     -12.851  12.604  70.213  1.00  0.00     0.000 HD 
HETATM    5  O   UNK A   1     -13.239  11.385  72.191  1.00  0.00    -0.490 OA 
HETATM    6  C   UNK A   1     -12.723  10.294  71.568  1.00  0.00    -0.452 C  
HETATM    7  O   UNK A   1     -12.832   9.156  71.996  1.00  0.00    -0.350 OA 
ENDROOT
BRANCH   2   8
HETATM    8  C   UNK A   1     -10.571  10.054  70.252  1.00  0.00    -0.354 C  
BRANCH   8   9
HETATM    9  C   UNK A   1     -10.351   9.078  69.092  1.00  0.00    -0.229 C  
BRANCH   9  10
HETATM   10  C   UNK A   1      -9.745   9.803  67.912  1.00  0.00    -0.144 C  
HETATM   11  O   UNK A   1      -8.591   9.606  67.544  1.00  0.00    -0.125 OA 
HETATM   12  N   UNK A   1     -10.591  10.671  67.273  1.00  0.00    -0.246 N  
HETATM   13  H   UNK A   1     -11.540  10.789  67.627  1.00  0.00     0.000 HD 
BRANCH  12  14
HETATM   14  C   UNK A   1     -10.172  11.430  66.100  1.00  0.00    -0.239 C  
BRANCH  14  15
HETATM   15  C   UNK A   1     -10.950  12.760  66.093  1.00  0.00    -0.283 C  
ATOM     16  H   GLY A   2      -9.308  13.728  66.949  1.00  0.00     0.000 HD 
ATOM     17  N   GLY A   2     -10.280  13.832  66.658  1.00  0.00    -0.271 N  
HETATM   18  O   UNK A   1     -12.044  12.880  65.545  1.00  0.00    -0.408 OA 
BRANCH  17  19
ATOM     19  CA  GLY A   2     -10.964  15.120  66.839  1.00  0.00    -0.323 C  
ATOM     20  C   GLY A   2     -11.063  15.558  68.299  1.00  0.00    -0.322 C  
ATOM     21  O   GLY A   2     -10.508  14.680  69.168  1.00  0.00    -0.240 OA 
ATOM     22  OXT GLY A   2     -11.624  16.579  68.667  1.00  0.00    -0.261 OA 
ENDBRANCH  17  19
ENDBRANCH  14  15
BRANCH  14  23
HETATM   23  C   UNK A   1     -10.479  10.721  64.772  1.00  0.00    -0.265 C  
HETATM   24  S   UNK A   1     -10.109  11.670  63.261  1.00  0.00    -0.393 SA 
HETATM   25  H   UNK A   1     -10.387  11.029  62.060  1.00  0.00     0.000 H  
ENDBRANCH  14  23
ENDBRANCH  12  14
ENDBRANCH   9  10
ENDBRANCH   8   9
ENDBRANCH   2   8
TORSDOF 7
ENDMDL
MODEL      127
REMARK 921   NORMALIZED FREE ENERGY PREDICTED BY IDOCK:   -4.43 KCAL/MOL
REMARK 922        TOTAL FREE ENERGY PREDICTED BY IDOCK:   -6.81 KCAL/MOL
REMARK 923 INTER-LIGAND FREE ENERGY PREDICTED BY IDOCK:   -6.04 KCAL/MOL
REMARK 924 INTRA-LIGAND FREE ENERGY PREDICTED BY IDOCK:   -0.78 KCAL/MOL
REMARK 927      BINDING AFFINITY PREDICTED BY RF-SCORE:    0.00 PKD
ROOT
HETATM    1  N   UNK A   1      -8.589   7.857  66.738  1.00  0.00    -0.127 NA 
HETATM    2  C   UNK A   1      -9.849   8.571  66.374  1.00  0.00    -0.257 C  
HETATM    3  H2  UNK A   1      -8.757   7.174  67.475  1.00  0.00     0.000 HD 
HETATM    4  H1  UNK A   1      -8.133   7.423  65.935  1.00  0.00     0.000 HD 
HETATM    5  O   UNK A   1      -8.252   9.519  64.866  1.00  0.00    -0.125 OA 
HETATM    6  C   UNK A   1      -9.543   9.607  65.278  1.00  0.00    -0.277 C  
HETATM    7  O   UNK A   1     -10.337  10.428  64.845  1.00  0.00    -0.317 OA 
ENDROOT
BRANCH   2   8
HETATM    8  C   UNK A   1     -10.533   9.224  67.580  1.00  0.00    -0.338 C  
BRANCH   8   9
HETATM    9  C   UNK A   1      -9.601  10.057  68.465  1.00  0.00    -0.157 C  
BRANCH   9  10
HETATM   10  C   UNK A   1     -10.230  11.399  68.761  1.00  0.00    -0.197 C  
HETATM   11  O   UNK A   1     -11.282  11.506  69.386  1.00  0.00    -0.248 OA 
HETATM   12  N   UNK A   1      -9.523  12.480  68.306  1.00  0.00    -0.229 N  
HETATM   13  H   UNK A   1      -8.654  12.324  67.794  1.00  0.00     0.000 HD 
BRANCH  12  14
HETATM   14  C   UNK A   1      -9.977  13.848  68.532  1.00  0.00    -0.221 C  
BRANCH  14  15
HETATM   15  C   UNK A   1     -10.564  14.377  67.210  1.00  0.00    -0.279 C  
ATOM     16  H   GLY A   2      -9.979  12.618  66.243  1.00  0.00     0.000 HD 
ATOM     17  N   GLY A   2     -10.384  13.547  66.116  1.00  0.00    -0.290 N  
HETATM   18  O   UNK A   1     -11.223  15.413  67.149  1.00  0.00    -0.326 OA 
BRANCH  17  19
ATOM     19  CA  GLY A   2     -10.773  13.997  64.773  1.00  0.00    -0.427 C  
ATOM     20  C   GLY A   2     -12.157  13.514  64.344  1.00  0.00    -0.420 C  
ATOM     21  O   GLY A   2     -12.777  12.751  65.275  1.00  0.00    -0.625 OA 
ATOM     22  OXT GLY A   2     -12.652  13.748  63.252  1.00  0.00    -0.830 OA 
ENDBRANCH  17  19
ENDBRANCH  14  15
BRANCH  14  23
HETATM   23  C   UNK A   1      -8.847  14.807  68.939  1.00  0.00    -0.164 C  
HETATM   24  S   UNK A   1      -7.662  15.240  67.624  1.00  0.00    -0.183 SA 
HETATM   25  H   UNK A   1      -6.641  16.107  67.993  1.00  0.00     0.000 H  
ENDBRANCH  14  23
ENDBRANCH  12  14
ENDBRANCH   9  10
ENDBRANCH   8   9
ENDBRANCH   2   8
TORSDOF 7
ENDMDL
MODEL      128
REMARK 921   NORMALIZED FREE ENERGY PREDICTED BY IDOCK:   -4.42 KCAL/MOL
REMARK 922        TOTAL FREE ENERGY PREDICTED BY IDOCK:   -6.79 KCAL/MOL
REMARK 923 INTER-LIGAND FREE ENERGY PREDICTED BY IDOCK:   -6.00 KCAL/MOL
REMARK 924 INTRA-LIGAND FREE ENERGY PREDICTED BY IDOCK:   -0.79 KCAL/MOL
REMARK 927      BINDING AFFINITY PREDICTED BY RF-SCORE:    0.00 PKD
ROOT
HETATM    1  N   UNK A   1     -10.307   9.384  70.105  1.00  0.00    -0.215 NA 
HETATM    2  C   UNK A   1     -11.490   9.754  70.937  1.00  0.00    -0.369 C  
HETATM    3  H2  UNK A   1      -9.808  10.216  69.791  1.00  0.00     0.000 HD 
HETATM    4  H1  UNK A   1      -9.676   8.737  70.578  1.00  0.00     0.000 HD 
HETATM    5  O   UNK A   1     -11.550   7.363  70.971  1.00  0.00    -0.275 OA 
HETATM    6  C   UNK A   1     -12.226   8.472  71.367  1.00  0.00    -0.304 C  
HETATM    7  O   UNK A   1     -13.292   8.439  71.960  1.00  0.00    -0.335 OA 
ENDROOT
BRANCH   2   8
HETATM    8  C   UNK A   1     -12.438  10.726  70.226  1.00  0.00    -0.395 C  
BRANCH   8   9
HETATM    9  C   UNK A   1     -12.263  12.193  70.630  1.00  0.00    -0.392 C  
BRANCH   9  10
HETATM   10  C   UNK A   1     -11.808  13.007  69.442  1.00  0.00    -0.322 C  
HETATM   11  O   UNK A   1     -12.157  14.172  69.272  1.00  0.00    -0.326 OA 
HETATM   12  N   UNK A   1     -10.957  12.355  68.589  1.00  0.00    -0.237 N  
HETATM   13  H   UNK A   1     -10.702  11.387  68.786  1.00  0.00     0.000 HD 
BRANCH  12  14
HETATM   14  C   UNK A   1     -10.403  13.007  67.407  1.00  0.00    -0.234 C  
BRANCH  14  15
HETATM   15  C   UNK A   1     -10.971  12.297  66.163  1.00  0.00    -0.293 C  
ATOM     16  H   GLY A   2      -9.120  11.381  65.839  1.00  0.00     0.000 HD 
ATOM     17  N   GLY A   2     -10.059  11.523  65.465  1.00  0.00    -0.232 N  
HETATM   18  O   UNK A   1     -12.162  12.339  65.868  1.00  0.00    -0.634 OA 
BRANCH  17  19
ATOM     19  CA  GLY A   2     -10.437  10.908  64.185  1.00  0.00    -0.327 C  
ATOM     20  C   GLY A   2      -9.280  10.201  63.482  1.00  0.00    -0.286 C  
ATOM     21  O   GLY A   2      -8.109  10.274  64.158  1.00  0.00    -0.157 OA 
ATOM     22  OXT GLY A   2      -9.376   9.658  62.392  1.00  0.00    -0.271 OA 
ENDBRANCH  17  19
ENDBRANCH  14  15
BRANCH  14  23
HETATM   23  C   UNK A   1      -8.871  12.914  67.319  1.00  0.00    -0.206 C  
HETATM   24  S   UNK A   1      -7.976  14.501  67.373  1.00  0.00    -0.193 SA 
HETATM   25  H   UNK A   1      -6.592  14.416  67.294  1.00  0.00     0.000 H  
ENDBRANCH  14  23
ENDBRANCH  12  14
ENDBRANCH   9  10
ENDBRANCH   8   9
ENDBRANCH   2   8
TORSDOF 7
ENDMDL
MODEL      129
REMARK 921   NORMALIZED FREE ENERGY PREDICTED BY IDOCK:   -4.41 KCAL/MOL
REMARK 922        TOTAL FREE ENERGY PREDICTED BY IDOCK:   -6.77 KCAL/MOL
REMARK 923 INTER-LIGAND FREE ENERGY PREDICTED BY IDOCK:   -6.19 KCAL/MOL
REMARK 924 INTRA-LIGAND FREE ENERGY PREDICTED BY IDOCK:   -0.58 KCAL/MOL
REMARK 927      BINDING AFFINITY PREDICTED BY RF-SCORE:    0.00 PKD
ROOT
HETATM    1  N   UNK A   1      -8.659   8.205  64.629  1.00  0.00    -0.392 NA 
HETATM    2  C   UNK A   1      -9.247   9.055  65.705  1.00  0.00    -0.232 C  
HETATM    3  H2  UNK A   1      -8.207   8.778  63.917  1.00  0.00     0.000 HD 
HETATM    4  H1  UNK A   1      -8.019   7.497  64.988  1.00  0.00     0.000 HD 
HETATM    5  O   UNK A   1      -9.737   6.839  66.461  1.00  0.00    -0.174 OA 
HETATM    6  C   UNK A   1      -9.938   8.152  66.742  1.00  0.00    -0.279 C  
HETATM    7  O   UNK A   1     -10.608   8.546  67.683  1.00  0.00    -0.245 OA 
ENDROOT
BRANCH   2   8
HETATM    8  C   UNK A   1     -10.210  10.118  65.166  1.00  0.00    -0.233 C  
BRANCH   8   9
HETATM    9  C   UNK A   1      -9.580  11.102  64.175  1.00  0.00    -0.290 C  
BRANCH   9  10
HETATM   10  C   UNK A   1     -10.435  12.342  64.061  1.00  0.00    -0.416 C  
HETATM   11  O   UNK A   1     -11.309  12.460  63.207  1.00  0.00    -0.437 OA 
HETATM   12  N   UNK A   1     -10.179  13.306  65.000  1.00  0.00    -0.461 N  
HETATM   13  H   UNK A   1      -9.440  13.148  65.685  1.00  0.00     0.000 HD 
BRANCH  12  14
HETATM   14  C   UNK A   1     -10.934  14.555  65.048  1.00  0.00    -0.398 C  
BRANCH  14  15
HETATM   15  C   UNK A   1     -10.047  15.620  65.720  1.00  0.00    -0.366 C  
ATOM     16  H   GLY A   2     -11.620  16.993  65.623  1.00  0.00     0.000 HD 
ATOM     17  N   GLY A   2     -10.636  16.865  65.863  1.00  0.00    -0.291 N  
HETATM   18  O   UNK A   1      -8.936  15.359  66.176  1.00  0.00    -0.312 OA 
BRANCH  17  19
ATOM     19  CA  GLY A   2      -9.850  18.002  66.361  1.00  0.00    -0.340 C  
ATOM     20  C   GLY A   2     -10.198  18.405  67.792  1.00  0.00    -0.385 C  
ATOM     21  O   GLY A   2     -11.174  17.647  68.347  1.00  0.00     0.008 OA 
ATOM     22  OXT GLY A   2      -9.686  19.347  68.378  1.00  0.00    -0.356 OA 
ENDBRANCH  17  19
ENDBRANCH  14  15
BRANCH  14  23
HETATM   23  C   UNK A   1     -12.225  14.456  65.874  1.00  0.00    -0.341 C  
HETATM   24  S   UNK A   1     -12.038  13.791  67.560  1.00  0.00    -0.254 SA 
HETATM   25  H   UNK A   1     -13.206  13.702  68.308  1.00  0.00     0.000 H  
ENDBRANCH  14  23
ENDBRANCH  12  14
ENDBRANCH   9  10
ENDBRANCH   8   9
ENDBRANCH   2   8
TORSDOF 7
ENDMDL
MODEL      130
REMARK 921   NORMALIZED FREE ENERGY PREDICTED BY IDOCK:   -4.37 KCAL/MOL
REMARK 922        TOTAL FREE ENERGY PREDICTED BY IDOCK:   -6.72 KCAL/MOL
REMARK 923 INTER-LIGAND FREE ENERGY PREDICTED BY IDOCK:   -6.10 KCAL/MOL
REMARK 924 INTRA-LIGAND FREE ENERGY PREDICTED BY IDOCK:   -0.62 KCAL/MOL
REMARK 927      BINDING AFFINITY PREDICTED BY RF-SCORE:    0.00 PKD
ROOT
HETATM    1  N   UNK A   1      -9.624   9.181  65.493  1.00  0.00    -0.446 NA 
HETATM    2  C   UNK A   1     -10.018  10.472  64.854  1.00  0.00    -0.334 C  
HETATM    3  H2  UNK A   1     -10.062   9.078  66.408  1.00  0.00     0.000 HD 
HETATM    4  H1  UNK A   1      -9.815   8.372  64.903  1.00  0.00     0.000 HD 
HETATM    5  O   UNK A   1      -8.621   9.467  63.192  1.00  0.00    -0.188 OA 
HETATM    6  C   UNK A   1      -9.314  10.596  63.491  1.00  0.00    -0.290 C  
HETATM    7  O   UNK A   1      -9.341  11.583  62.774  1.00  0.00    -0.374 OA 
ENDROOT
BRANCH   2   8
HETATM    8  C   UNK A   1      -9.730  11.688  65.740  1.00  0.00    -0.262 C  
BRANCH   8   9
HETATM    9  C   UNK A   1      -8.461  11.569  66.590  1.00  0.00    -0.172 C  
BRANCH   9  10
HETATM   10  C   UNK A   1      -8.487  12.588  67.706  1.00  0.00    -0.171 C  
HETATM   11  O   UNK A   1      -7.587  12.675  68.536  1.00  0.00    -0.126 OA 
HETATM   12  N   UNK A   1      -9.574  13.421  67.699  1.00  0.00    -0.213 N  
HETATM   13  H   UNK A   1     -10.289  13.299  66.981  1.00  0.00     0.000 HD 
BRANCH  12  14
HETATM   14  C   UNK A   1      -9.740  14.479  68.691  1.00  0.00    -0.221 C  
BRANCH  14  15
HETATM   15  C   UNK A   1     -11.200  14.447  69.180  1.00  0.00    -0.272 C  
ATOM     16  H   GLY A   2     -10.806  16.043  70.470  1.00  0.00     0.000 HD 
ATOM     17  N   GLY A   2     -11.502  15.355  70.181  1.00  0.00    -0.288 N  
HETATM   18  O   UNK A   1     -12.054  13.734  68.657  1.00  0.00    -0.359 OA 
BRANCH  17  19
ATOM     19  CA  GLY A   2     -12.820  15.330  70.830  1.00  0.00    -0.449 C  
ATOM     20  C   GLY A   2     -12.807  15.871  72.259  1.00  0.00    -0.430 C  
ATOM     21  O   GLY A   2     -11.582  16.270  72.677  1.00  0.00    -0.416 OA 
ATOM     22  OXT GLY A   2     -13.790  15.904  72.983  1.00  0.00    -0.592 OA 
ENDBRANCH  17  19
ENDBRANCH  14  15
BRANCH  14  23
HETATM   23  C   UNK A   1      -9.482  15.887  68.131  1.00  0.00    -0.203 C  
HETATM   24  S   UNK A   1     -10.365  16.301  66.592  1.00  0.00    -0.296 SA 
HETATM   25  H   UNK A   1     -10.132  17.574  66.085  1.00  0.00     0.000 H  
ENDBRANCH  14  23
ENDBRANCH  12  14
ENDBRANCH   9  10
ENDBRANCH   8   9
ENDBRANCH   2   8
TORSDOF 7
ENDMDL
MODEL      131
REMARK 921   NORMALIZED FREE ENERGY PREDICTED BY IDOCK:   -4.35 KCAL/MOL
REMARK 922        TOTAL FREE ENERGY PREDICTED BY IDOCK:   -6.70 KCAL/MOL
REMARK 923 INTER-LIGAND FREE ENERGY PREDICTED BY IDOCK:   -6.09 KCAL/MOL
REMARK 924 INTRA-LIGAND FREE ENERGY PREDICTED BY IDOCK:   -0.61 KCAL/MOL
REMARK 927      BINDING AFFINITY PREDICTED BY RF-SCORE:    0.00 PKD
ROOT
HETATM    1  N   UNK A   1      -9.781   9.291  65.415  1.00  0.00    -0.456 NA 
HETATM    2  C   UNK A   1     -10.479  10.578  65.119  1.00  0.00    -0.154 C  
HETATM    3  H2  UNK A   1     -10.003   8.964  66.355  1.00  0.00     0.000 HD 
HETATM    4  H1  UNK A   1      -9.973   8.567  64.723  1.00  0.00     0.000 HD 
HETATM    5  O   UNK A   1      -9.326  10.121  63.073  1.00  0.00    -0.282 OA 
HETATM    6  C   UNK A   1     -10.097  11.045  63.703  1.00  0.00    -0.371 C  
HETATM    7  O   UNK A   1     -10.411  12.115  63.208  1.00  0.00    -0.432 OA 
ENDROOT
BRANCH   2   8
HETATM    8  C   UNK A   1     -10.190  11.665  66.159  1.00  0.00    -0.263 C  
BRANCH   8   9
HETATM    9  C   UNK A   1     -11.427  12.434  66.634  1.00  0.00    -0.429 C  
BRANCH   9  10
HETATM   10  C   UNK A   1     -11.011  13.599  67.501  1.00  0.00    -0.268 C  
HETATM   11  O   UNK A   1     -11.803  14.189  68.231  1.00  0.00    -0.333 OA 
HETATM   12  N   UNK A   1      -9.682  13.924  67.431  1.00  0.00    -0.229 N  
HETATM   13  H   UNK A   1      -9.074  13.394  66.806  1.00  0.00     0.000 HD 
BRANCH  12  14
HETATM   14  C   UNK A   1      -9.111  15.008  68.224  1.00  0.00    -0.182 C  
BRANCH  14  15
HETATM   15  C   UNK A   1      -9.325  16.324  67.454  1.00  0.00    -0.221 C  
ATOM     16  H   GLY A   2     -10.361  17.115  69.088  1.00  0.00     0.000 HD 
ATOM     17  N   GLY A   2     -10.078  17.276  68.121  1.00  0.00    -0.306 N  
HETATM   18  O   UNK A   1      -8.792  16.547  66.370  1.00  0.00    -0.257 OA 
BRANCH  17  19
ATOM     19  CA  GLY A   2     -10.472  18.518  67.441  1.00  0.00    -0.419 C  
ATOM     20  C   GLY A   2      -9.703  19.747  67.922  1.00  0.00    -0.389 C  
ATOM     21  O   GLY A   2      -8.799  19.475  68.894  1.00  0.00    -0.355 OA 
ATOM     22  OXT GLY A   2      -9.904  20.880  67.510  1.00  0.00    -0.414 OA 
ENDBRANCH  17  19
ENDBRANCH  14  15
BRANCH  14  23
HETATM   23  C   UNK A   1      -7.599  14.862  68.458  1.00  0.00    -0.121 C  
HETATM   24  S   UNK A   1      -6.777  16.288  69.240  1.00  0.00    -0.209 SA 
HETATM   25  H   UNK A   1      -5.410  16.157  69.451  1.00  0.00     0.000 H  
ENDBRANCH  14  23
ENDBRANCH  12  14
ENDBRANCH   9  10
ENDBRANCH   8   9
ENDBRANCH   2   8
TORSDOF 7
ENDMDL
MODEL      132
REMARK 921   NORMALIZED FREE ENERGY PREDICTED BY IDOCK:   -4.35 KCAL/MOL
REMARK 922        TOTAL FREE ENERGY PREDICTED BY IDOCK:   -6.70 KCAL/MOL
REMARK 923 INTER-LIGAND FREE ENERGY PREDICTED BY IDOCK:   -6.00 KCAL/MOL
REMARK 924 INTRA-LIGAND FREE ENERGY PREDICTED BY IDOCK:   -0.70 KCAL/MOL
REMARK 927      BINDING AFFINITY PREDICTED BY RF-SCORE:    0.00 PKD
ROOT
HETATM    1  N   UNK A   1     -12.058  12.191  66.871  1.00  0.00    -0.556 NA 
HETATM    2  C   UNK A   1     -11.116  12.378  65.728  1.00  0.00    -0.315 C  
HETATM    3  H2  UNK A   1     -11.550  12.019  67.738  1.00  0.00     0.000 HD 
HETATM    4  H1  UNK A   1     -12.710  12.968  66.978  1.00  0.00     0.000 HD 
HETATM    5  O   UNK A   1     -13.255  12.690  64.703  1.00  0.00    -0.828 OA 
HETATM    6  C   UNK A   1     -11.925  12.610  64.439  1.00  0.00    -0.400 C  
HETATM    7  O   UNK A   1     -11.453  12.686  63.317  1.00  0.00    -0.483 OA 
ENDROOT
BRANCH   2   8
HETATM    8  C   UNK A   1     -10.136  11.211  65.566  1.00  0.00    -0.309 C  
BRANCH   8   9
HETATM    9  C   UNK A   1      -8.776  11.426  66.236  1.00  0.00    -0.173 C  
BRANCH   9  10
HETATM   10  C   UNK A   1      -8.935  11.435  67.739  1.00  0.00    -0.147 C  
HETATM   11  O   UNK A   1      -8.308  12.206  68.460  1.00  0.00    -0.152 OA 
HETATM   12  N   UNK A   1      -9.849  10.539  68.227  1.00  0.00    -0.146 N  
HETATM   13  H   UNK A   1     -10.340   9.926  67.575  1.00  0.00     0.000 HD 
BRANCH  12  14
HETATM   14  C   UNK A   1     -10.142  10.437  69.652  1.00  0.00    -0.190 C  
BRANCH  14  15
HETATM   15  C   UNK A   1      -9.506   9.135  70.176  1.00  0.00    -0.208 C  
ATOM     16  H   GLY A   2     -10.236   8.106  68.509  1.00  0.00     0.000 HD 
ATOM     17  N   GLY A   2      -9.752   8.013  69.403  1.00  0.00    -0.168 N  
HETATM   18  O   UNK A   1      -8.761   9.113  71.153  1.00  0.00    -0.214 OA 
BRANCH  17  19
ATOM     19  CA  GLY A   2      -9.320   6.687  69.866  1.00  0.00    -0.153 C  
ATOM     20  C   GLY A   2     -10.479   5.760  70.230  1.00  0.00    -0.280 C  
ATOM     21  O   GLY A   2     -11.698   6.327  70.069  1.00  0.00    -0.408 OA 
ATOM     22  OXT GLY A   2     -10.334   4.629  70.670  1.00  0.00    -0.182 OA 
ENDBRANCH  17  19
ENDBRANCH  14  15
BRANCH  14  23
HETATM   23  C   UNK A   1     -11.646  10.361  69.963  1.00  0.00    -0.301 C  
HETATM   24  S   UNK A   1     -12.085   9.669  71.590  1.00  0.00    -0.384 SA 
HETATM   25  H   UNK A   1     -13.444   9.600  71.871  1.00  0.00     0.000 H  
ENDBRANCH  14  23
ENDBRANCH  12  14
ENDBRANCH   9  10
ENDBRANCH   8   9
ENDBRANCH   2   8
TORSDOF 7
ENDMDL
MODEL      133
REMARK 921   NORMALIZED FREE ENERGY PREDICTED BY IDOCK:   -4.35 KCAL/MOL
REMARK 922        TOTAL FREE ENERGY PREDICTED BY IDOCK:   -6.70 KCAL/MOL
REMARK 923 INTER-LIGAND FREE ENERGY PREDICTED BY IDOCK:   -5.75 KCAL/MOL
REMARK 924 INTRA-LIGAND FREE ENERGY PREDICTED BY IDOCK:   -0.94 KCAL/MOL
REMARK 927      BINDING AFFINITY PREDICTED BY RF-SCORE:    0.00 PKD
ROOT
HETATM    1  N   UNK A   1      -7.156  10.798  65.531  1.00  0.00    -0.347 NA 
HETATM    2  C   UNK A   1      -6.991   9.393  65.053  1.00  0.00    -0.096 C  
HETATM    3  H2  UNK A   1      -7.698  10.828  66.394  1.00  0.00     0.000 HD 
HETATM    4  H1  UNK A   1      -6.268  11.287  65.641  1.00  0.00     0.000 HD 
HETATM    5  O   UNK A   1      -5.763  10.649  63.429  1.00  0.00    -0.148 OA 
HETATM    6  C   UNK A   1      -6.190   9.398  63.739  1.00  0.00    -0.093 C  
HETATM    7  O   UNK A   1      -5.982   8.420  63.039  1.00  0.00    -0.076 OA 
ENDROOT
BRANCH   2   8
HETATM    8  C   UNK A   1      -8.325   8.659  64.888  1.00  0.00    -0.174 C  
BRANCH   8   9
HETATM    9  C   UNK A   1      -8.697   7.746  66.060  1.00  0.00    -0.184 C  
BRANCH   9  10
HETATM   10  C   UNK A   1      -9.845   8.345  66.839  1.00  0.00    -0.245 C  
HETATM   11  O   UNK A   1     -10.830   7.688  67.166  1.00  0.00    -0.317 OA 
HETATM   12  N   UNK A   1      -9.688   9.664  67.174  1.00  0.00    -0.166 N  
HETATM   13  H   UNK A   1      -8.846  10.155  66.874  1.00  0.00     0.000 HD 
BRANCH  12  14
HETATM   14  C   UNK A   1     -10.692  10.387  67.949  1.00  0.00    -0.261 C  
BRANCH  14  15
HETATM   15  C   UNK A   1     -10.839  11.794  67.339  1.00  0.00    -0.251 C  
ATOM     16  H   GLY A   2     -11.013  10.952  65.434  1.00  0.00     0.000 HD 
ATOM     17  N   GLY A   2     -10.940  11.825  65.958  1.00  0.00    -0.301 N  
HETATM   18  O   UNK A   1     -10.950  12.803  68.031  1.00  0.00    -0.222 OA 
BRANCH  17  19
ATOM     19  CA  GLY A   2     -10.945  13.110  65.246  1.00  0.00    -0.285 C  
ATOM     20  C   GLY A   2     -12.238  13.378  64.479  1.00  0.00    -0.398 C  
ATOM     21  O   GLY A   2     -13.149  12.381  64.587  1.00  0.00    -0.825 OA 
ATOM     22  OXT GLY A   2     -12.430  14.371  63.794  1.00  0.00    -0.814 OA 
ENDBRANCH  17  19
ENDBRANCH  14  15
BRANCH  14  23
HETATM   23  C   UNK A   1     -10.306  10.572  69.425  1.00  0.00    -0.234 C  
HETATM   24  S   UNK A   1     -11.043   9.382  70.592  1.00  0.00    -0.314 SA 
HETATM   25  H   UNK A   1     -10.694   9.550  71.927  1.00  0.00     0.000 H  
ENDBRANCH  14  23
ENDBRANCH  12  14
ENDBRANCH   9  10
ENDBRANCH   8   9
ENDBRANCH   2   8
TORSDOF 7
ENDMDL
MODEL      134
REMARK 921   NORMALIZED FREE ENERGY PREDICTED BY IDOCK:   -4.35 KCAL/MOL
REMARK 922        TOTAL FREE ENERGY PREDICTED BY IDOCK:   -6.70 KCAL/MOL
REMARK 923 INTER-LIGAND FREE ENERGY PREDICTED BY IDOCK:   -6.10 KCAL/MOL
REMARK 924 INTRA-LIGAND FREE ENERGY PREDICTED BY IDOCK:   -0.59 KCAL/MOL
REMARK 927      BINDING AFFINITY PREDICTED BY RF-SCORE:    0.00 PKD
ROOT
HETATM    1  N   UNK A   1     -11.793   7.395  73.006  1.00  0.00    -0.548 NA 
HETATM    2  C   UNK A   1     -12.127   7.554  71.560  1.00  0.00    -0.316 C  
HETATM    3  H2  UNK A   1     -12.149   8.180  73.551  1.00  0.00     0.000 HD 
HETATM    4  H1  UNK A   1     -12.113   6.507  73.392  1.00  0.00     0.000 HD 
HETATM    5  O   UNK A   1     -10.995   5.447  71.609  1.00  0.00    -0.209 OA 
HETATM    6  C   UNK A   1     -11.551   6.363  70.774  1.00  0.00    -0.338 C  
HETATM    7  O   UNK A   1     -11.557   6.254  69.559  1.00  0.00    -0.423 OA 
ENDROOT
BRANCH   2   8
HETATM    8  C   UNK A   1     -11.646   8.887  70.979  1.00  0.00    -0.347 C  
BRANCH   8   9
HETATM    9  C   UNK A   1     -10.227   9.286  71.396  1.00  0.00    -0.371 C  
BRANCH   9  10
HETATM   10  C   UNK A   1      -9.543  10.022  70.267  1.00  0.00    -0.017 C  
HETATM   11  O   UNK A   1      -8.346   9.887  70.026  1.00  0.00    -0.186 OA 
HETATM   12  N   UNK A   1     -10.365  10.822  69.519  1.00  0.00    -0.383 N  
HETATM   13  H   UNK A   1     -11.352  10.890  69.769  1.00  0.00     0.000 HD 
BRANCH  12  14
HETATM   14  C   UNK A   1      -9.870  11.581  68.376  1.00  0.00    -0.204 C  
BRANCH  14  15
HETATM   15  C   UNK A   1     -10.464  13.000  68.455  1.00  0.00    -0.252 C  
ATOM     16  H   GLY A   2     -11.752  12.378  69.979  1.00  0.00     0.000 HD 
ATOM     17  N   GLY A   2     -11.502  13.150  69.359  1.00  0.00    -0.272 N  
HETATM   18  O   UNK A   1      -9.991  13.948  67.831  1.00  0.00    -0.230 OA 
BRANCH  17  19
ATOM     19  CA  GLY A   2     -12.246  14.415  69.429  1.00  0.00    -0.266 C  
ATOM     20  C   GLY A   2     -12.894  14.667  70.789  1.00  0.00    -0.358 C  
ATOM     21  O   GLY A   2     -12.675  13.677  71.686  1.00  0.00    -0.341 OA 
ATOM     22  OXT GLY A   2     -13.585  15.642  71.044  1.00  0.00    -0.588 OA 
ENDBRANCH  17  19
ENDBRANCH  14  15
BRANCH  14  23
HETATM   23  C   UNK A   1     -10.292  10.990  67.021  1.00  0.00    -0.228 C  
HETATM   24  S   UNK A   1     -10.409   9.173  66.952  1.00  0.00    -0.226 SA 
HETATM   25  H   UNK A   1     -10.790   8.638  65.727  1.00  0.00     0.000 H  
ENDBRANCH  14  23
ENDBRANCH  12  14
ENDBRANCH   9  10
ENDBRANCH   8   9
ENDBRANCH   2   8
TORSDOF 7
ENDMDL
MODEL      135
REMARK 921   NORMALIZED FREE ENERGY PREDICTED BY IDOCK:   -4.33 KCAL/MOL
REMARK 922        TOTAL FREE ENERGY PREDICTED BY IDOCK:   -6.67 KCAL/MOL
REMARK 923 INTER-LIGAND FREE ENERGY PREDICTED BY IDOCK:   -5.79 KCAL/MOL
REMARK 924 INTRA-LIGAND FREE ENERGY PREDICTED BY IDOCK:   -0.88 KCAL/MOL
REMARK 927      BINDING AFFINITY PREDICTED BY RF-SCORE:    0.00 PKD
ROOT
HETATM    1  N   UNK A   1     -13.816   8.832  73.141  1.00  0.00    -1.118 NA 
HETATM    2  C   UNK A   1     -13.524   8.602  71.695  1.00  0.00    -0.357 C  
HETATM    3  H2  UNK A   1     -14.680   9.360  73.259  1.00  0.00     0.000 HD 
HETATM    4  H1  UNK A   1     -13.840   7.968  73.684  1.00  0.00     0.000 HD 
HETATM    5  O   UNK A   1     -11.721   7.468  72.783  1.00  0.00    -0.279 OA 
HETATM    6  C   UNK A   1     -12.202   7.825  71.565  1.00  0.00    -0.318 C  
HETATM    7  O   UNK A   1     -11.633   7.578  70.514  1.00  0.00    -0.271 OA 
ENDROOT
BRANCH   2   8
HETATM    8  C   UNK A   1     -13.489   9.899  70.881  1.00  0.00    -0.181 C  
BRANCH   8   9
HETATM    9  C   UNK A   1     -12.186  10.695  71.011  1.00  0.00    -0.498 C  
BRANCH   9  10
HETATM   10  C   UNK A   1     -11.762  11.219  69.658  1.00  0.00    -0.350 C  
HETATM   11  O   UNK A   1     -12.104  12.324  69.247  1.00  0.00    -0.258 OA 
HETATM   12  N   UNK A   1     -10.947  10.380  68.945  1.00  0.00    -0.232 N  
HETATM   13  H   UNK A   1     -10.697   9.475  69.343  1.00  0.00     0.000 HD 
BRANCH  12  14
HETATM   14  C   UNK A   1     -10.426  10.746  67.632  1.00  0.00    -0.214 C  
BRANCH  14  15
HETATM   15  C   UNK A   1     -10.011   9.450  66.909  1.00  0.00    -0.229 C  
ATOM     16  H   GLY A   2     -10.111   8.407  68.718  1.00  0.00     0.000 HD 
ATOM     17  N   GLY A   2      -9.857   8.346  67.731  1.00  0.00    -0.166 N  
HETATM   18  O   UNK A   1      -9.914   9.381  65.686  1.00  0.00    -0.304 OA 
BRANCH  17  19
ATOM     19  CA  GLY A   2      -9.330   7.087  67.187  1.00  0.00    -0.143 C  
ATOM     20  C   GLY A   2     -10.409   6.041  66.914  1.00  0.00    -0.244 C  
ATOM     21  O   GLY A   2     -11.659   6.457  67.227  1.00  0.00     0.016 OA 
ATOM     22  OXT GLY A   2     -10.177   4.917  66.495  1.00  0.00    -0.226 OA 
ENDBRANCH  17  19
ENDBRANCH  14  15
BRANCH  14  23
HETATM   23  C   UNK A   1      -9.182  11.644  67.697  1.00  0.00    -0.178 C  
HETATM   24  S   UNK A   1      -9.353  13.292  66.939  1.00  0.00    -0.245 SA 
HETATM   25  H   UNK A   1      -8.227  14.105  66.998  1.00  0.00     0.000 H  
ENDBRANCH  14  23
ENDBRANCH  12  14
ENDBRANCH   9  10
ENDBRANCH   8   9
ENDBRANCH   2   8
TORSDOF 7
ENDMDL
MODEL      136
REMARK 921   NORMALIZED FREE ENERGY PREDICTED BY IDOCK:   -4.32 KCAL/MOL
REMARK 922        TOTAL FREE ENERGY PREDICTED BY IDOCK:   -6.65 KCAL/MOL
REMARK 923 INTER-LIGAND FREE ENERGY PREDICTED BY IDOCK:   -6.10 KCAL/MOL
REMARK 924 INTRA-LIGAND FREE ENERGY PREDICTED BY IDOCK:   -0.56 KCAL/MOL
REMARK 927      BINDING AFFINITY PREDICTED BY RF-SCORE:    0.00 PKD
ROOT
HETATM    1  N   UNK A   1     -10.108  13.989  66.249  1.00  0.00    -0.291 NA 
HETATM    2  C   UNK A   1     -10.712  12.829  65.530  1.00  0.00    -0.278 C  
HETATM    3  H2  UNK A   1      -9.147  13.788  66.525  1.00  0.00     0.000 HD 
HETATM    4  H1  UNK A   1     -10.160  14.857  65.716  1.00  0.00     0.000 HD 
HETATM    5  O   UNK A   1     -12.469  14.451  65.480  1.00  0.00    -0.408 OA 
HETATM    6  C   UNK A   1     -12.166  13.167  65.156  1.00  0.00    -0.450 C  
HETATM    7  O   UNK A   1     -12.964  12.388  64.660  1.00  0.00    -0.793 OA 
ENDROOT
BRANCH   2   8
HETATM    8  C   UNK A   1     -10.634  11.525  66.331  1.00  0.00    -0.304 C  
BRANCH   8   9
HETATM    9  C   UNK A   1     -11.551  11.476  67.556  1.00  0.00    -0.322 C  
BRANCH   9  10
HETATM   10  C   UNK A   1     -10.794  10.939  68.749  1.00  0.00    -0.209 C  
HETATM   11  O   UNK A   1      -9.719  11.409  69.109  1.00  0.00    -0.074 OA 
HETATM   12  N   UNK A   1     -11.415   9.913  69.410  1.00  0.00    -0.441 N  
HETATM   13  H   UNK A   1     -12.310   9.567  69.062  1.00  0.00     0.000 HD 
BRANCH  12  14
HETATM   14  C   UNK A   1     -10.832   9.298  70.599  1.00  0.00    -0.278 C  
BRANCH  14  15
HETATM   15  C   UNK A   1     -10.546   7.819  70.276  1.00  0.00    -0.231 C  
ATOM     16  H   GLY A   2     -10.680   7.349  72.309  1.00  0.00     0.000 HD 
ATOM     17  N   GLY A   2     -10.461   6.986  71.380  1.00  0.00    -0.209 N  
HETATM   18  O   UNK A   1     -10.490   7.395  69.125  1.00  0.00    -0.207 OA 
BRANCH  17  19
ATOM     19  CA  GLY A   2     -10.055   5.583  71.218  1.00  0.00    -0.207 C  
ATOM     20  C   GLY A   2     -10.263   4.740  72.475  1.00  0.00    -0.190 C  
ATOM     21  O   GLY A   2     -10.779   5.435  73.516  1.00  0.00    -0.246 OA 
ATOM     22  OXT GLY A   2      -9.957   3.560  72.561  1.00  0.00    -0.147 OA 
ENDBRANCH  17  19
ENDBRANCH  14  15
BRANCH  14  23
HETATM   23  C   UNK A   1     -11.766   9.322  71.819  1.00  0.00    -0.386 C  
HETATM   24  S   UNK A   1     -13.135  10.522  71.746  1.00  0.00    -0.427 SA 
HETATM   25  H   UNK A   1     -13.979  10.544  72.849  1.00  0.00     0.000 H  
ENDBRANCH  14  23
ENDBRANCH  12  14
ENDBRANCH   9  10
ENDBRANCH   8   9
ENDBRANCH   2   8
TORSDOF 7
ENDMDL
MODEL      137
REMARK 921   NORMALIZED FREE ENERGY PREDICTED BY IDOCK:   -4.30 KCAL/MOL
REMARK 922        TOTAL FREE ENERGY PREDICTED BY IDOCK:   -6.63 KCAL/MOL
REMARK 923 INTER-LIGAND FREE ENERGY PREDICTED BY IDOCK:   -5.96 KCAL/MOL
REMARK 924 INTRA-LIGAND FREE ENERGY PREDICTED BY IDOCK:   -0.67 KCAL/MOL
REMARK 927      BINDING AFFINITY PREDICTED BY RF-SCORE:    0.00 PKD
ROOT
HETATM    1  N   UNK A   1     -10.610  14.389  65.952  1.00  0.00    -0.296 NA 
HETATM    2  C   UNK A   1     -11.068  13.004  65.636  1.00  0.00    -0.276 C  
HETATM    3  H2  UNK A   1      -9.764  14.372  66.521  1.00  0.00     0.000 HD 
HETATM    4  H1  UNK A   1     -10.480  14.963  65.120  1.00  0.00     0.000 HD 
HETATM    5  O   UNK A   1     -12.669  14.362  64.488  1.00  0.00    -0.663 OA 
HETATM    6  C   UNK A   1     -12.359  13.077  64.800  1.00  0.00    -0.436 C  
HETATM    7  O   UNK A   1     -13.042  12.119  64.477  1.00  0.00    -0.720 OA 
ENDROOT
BRANCH   2   8
HETATM    8  C   UNK A   1     -11.265  12.141  66.886  1.00  0.00    -0.375 C  
BRANCH   8   9
HETATM    9  C   UNK A   1     -12.092  12.804  67.992  1.00  0.00    -0.174 C  
BRANCH   9  10
HETATM   10  C   UNK A   1     -11.820  12.130  69.317  1.00  0.00    -0.313 C  
HETATM   11  O   UNK A   1     -12.183  12.614  70.386  1.00  0.00    -0.349 OA 
HETATM   12  N   UNK A   1     -11.167  10.929  69.229  1.00  0.00    -0.242 N  
HETATM   13  H   UNK A   1     -10.893  10.580  68.311  1.00  0.00     0.000 HD 
BRANCH  12  14
HETATM   14  C   UNK A   1     -10.852  10.136  70.413  1.00  0.00    -0.301 C  
BRANCH  14  15
HETATM   15  C   UNK A   1      -9.509   9.424  70.162  1.00  0.00    -0.240 C  
ATOM     16  H   GLY A   2     -10.177   8.824  68.275  1.00  0.00     0.000 HD 
ATOM     17  N   GLY A   2      -9.423   8.745  68.958  1.00  0.00    -0.159 N  
HETATM   18  O   UNK A   1      -8.555   9.527  70.930  1.00  0.00    -0.259 OA 
BRANCH  17  19
ATOM     19  CA  GLY A   2      -8.250   7.910  68.661  1.00  0.00    -0.127 C  
ATOM     20  C   GLY A   2      -8.376   7.123  67.359  1.00  0.00    -0.119 C  
ATOM     21  O   GLY A   2      -9.548   7.328  66.712  1.00  0.00    -0.167 OA 
ATOM     22  OXT GLY A   2      -7.528   6.344  66.949  1.00  0.00    -0.081 OA 
ENDBRANCH  17  19
ENDBRANCH  14  15
BRANCH  14  23
HETATM   23  C   UNK A   1     -11.892   9.045  70.712  1.00  0.00    -0.206 C  
HETATM   24  S   UNK A   1     -13.142   9.465  71.969  1.00  0.00    -0.452 SA 
HETATM   25  H   UNK A   1     -14.083   8.479  72.239  1.00  0.00     0.000 H  
ENDBRANCH  14  23
ENDBRANCH  12  14
ENDBRANCH   9  10
ENDBRANCH   8   9
ENDBRANCH   2   8
TORSDOF 7
ENDMDL
MODEL      138
REMARK 921   NORMALIZED FREE ENERGY PREDICTED BY IDOCK:   -4.30 KCAL/MOL
REMARK 922        TOTAL FREE ENERGY PREDICTED BY IDOCK:   -6.63 KCAL/MOL
REMARK 923 INTER-LIGAND FREE ENERGY PREDICTED BY IDOCK:   -5.93 KCAL/MOL
REMARK 924 INTRA-LIGAND FREE ENERGY PREDICTED BY IDOCK:   -0.69 KCAL/MOL
REMARK 927      BINDING AFFINITY PREDICTED BY RF-SCORE:    0.00 PKD
ROOT
HETATM    1  N   UNK A   1     -12.439  14.147  63.479  1.00  0.00    -1.106 NA 
HETATM    2  C   UNK A   1     -12.570  12.865  64.232  1.00  0.00    -0.286 C  
HETATM    3  H2  UNK A   1     -12.676  14.019  62.496  1.00  0.00     0.000 HD 
HETATM    4  H1  UNK A   1     -12.983  14.906  63.890  1.00  0.00     0.000 HD 
HETATM    5  O   UNK A   1     -11.928  14.413  65.939  1.00  0.00    -0.377 OA 
HETATM    6  C   UNK A   1     -12.179  13.100  65.702  1.00  0.00    -0.466 C  
HETATM    7  O   UNK A   1     -12.074  12.228  66.549  1.00  0.00    -0.616 OA 
ENDROOT
BRANCH   2   8
HETATM    8  C   UNK A   1     -11.753  11.725  63.615  1.00  0.00    -0.517 C  
BRANCH   8   9
HETATM    9  C   UNK A   1     -10.244  11.981  63.563  1.00  0.00    -0.477 C  
BRANCH   9  10
HETATM   10  C   UNK A   1      -9.504  10.867  64.266  1.00  0.00    -0.250 C  
HETATM   11  O   UNK A   1     -10.067  10.083  65.026  1.00  0.00    -0.323 OA 
HETATM   12  N   UNK A   1      -8.170  10.782  63.966  1.00  0.00    -0.369 N  
HETATM   13  H   UNK A   1      -7.762  11.463  63.325  1.00  0.00     0.000 HD 
BRANCH  12  14
HETATM   14  C   UNK A   1      -7.316   9.746  64.538  1.00  0.00    -0.135 C  
BRANCH  14  15
HETATM   15  C   UNK A   1      -6.380  10.415  65.563  1.00  0.00    -0.126 C  
ATOM     16  H   GLY A   2      -8.003  11.457  66.369  1.00  0.00     0.000 HD 
ATOM     17  N   GLY A   2      -6.990  11.338  66.397  1.00  0.00    -0.097 N  
HETATM   18  O   UNK A   1      -5.203  10.087  65.691  1.00  0.00    -0.039 OA 
BRANCH  17  19
ATOM     19  CA  GLY A   2      -6.183  12.146  67.321  1.00  0.00    -0.152 C  
ATOM     20  C   GLY A   2      -6.904  13.393  67.830  1.00  0.00    -0.160 C  
ATOM     21  O   GLY A   2      -8.155  13.536  67.333  1.00  0.00    -0.172 OA 
ATOM     22  OXT GLY A   2      -6.396  14.215  68.578  1.00  0.00    -0.081 OA 
ENDBRANCH  17  19
ENDBRANCH  14  15
BRANCH  14  23
HETATM   23  C   UNK A   1      -6.424   9.048  63.500  1.00  0.00    -0.089 C  
HETATM   24  S   UNK A   1      -7.240   7.776  62.481  1.00  0.00    -0.096 SA 
HETATM   25  H   UNK A   1      -6.433   7.145  61.542  1.00  0.00     0.000 H  
ENDBRANCH  14  23
ENDBRANCH  12  14
ENDBRANCH   9  10
ENDBRANCH   8   9
ENDBRANCH   2   8
TORSDOF 7
ENDMDL
MODEL      139
REMARK 921   NORMALIZED FREE ENERGY PREDICTED BY IDOCK:   -4.29 KCAL/MOL
REMARK 922        TOTAL FREE ENERGY PREDICTED BY IDOCK:   -6.62 KCAL/MOL
REMARK 923 INTER-LIGAND FREE ENERGY PREDICTED BY IDOCK:   -5.92 KCAL/MOL
REMARK 924 INTRA-LIGAND FREE ENERGY PREDICTED BY IDOCK:   -0.70 KCAL/MOL
REMARK 927      BINDING AFFINITY PREDICTED BY RF-SCORE:    0.00 PKD
ROOT
HETATM    1  N   UNK A   1      -8.804   5.279  67.644  1.00  0.00    -0.106 NA 
HETATM    2  C   UNK A   1     -10.162   5.093  67.053  1.00  0.00    -0.223 C  
HETATM    3  H2  UNK A   1      -8.863   5.716  68.564  1.00  0.00     0.000 HD 
HETATM    4  H1  UNK A   1      -8.266   4.414  67.685  1.00  0.00     0.000 HD 
HETATM    5  O   UNK A   1      -8.729   4.140  65.391  1.00  0.00    -0.116 OA 
HETATM    6  C   UNK A   1     -10.022   4.456  65.659  1.00  0.00    -0.236 C  
HETATM    7  O   UNK A   1     -10.939   4.278  64.873  1.00  0.00    -0.253 OA 
ENDROOT
BRANCH   2   8
HETATM    8  C   UNK A   1     -10.969   6.393  66.991  1.00  0.00    -0.463 C  
BRANCH   8   9
HETATM    9  C   UNK A   1     -10.515   7.471  67.981  1.00  0.00    -0.253 C  
BRANCH   9  10
HETATM   10  C   UNK A   1      -9.624   8.472  67.283  1.00  0.00    -0.171 C  
HETATM   11  O   UNK A   1      -8.405   8.484  67.435  1.00  0.00    -0.118 OA 
HETATM   12  N   UNK A   1     -10.277   9.342  66.450  1.00  0.00    -0.260 N  
HETATM   13  H   UNK A   1     -11.292   9.280  66.365  1.00  0.00     0.000 HD 
BRANCH  12  14
HETATM   14  C   UNK A   1      -9.562  10.355  65.680  1.00  0.00    -0.226 C  
BRANCH  14  15
HETATM   15  C   UNK A   1     -10.293  11.697  65.868  1.00  0.00    -0.248 C  
ATOM     16  H   GLY A   2      -9.863  12.211  63.888  1.00  0.00     0.000 HD 
ATOM     17  N   GLY A   2     -10.262  12.539  64.769  1.00  0.00    -0.293 N  
HETATM   18  O   UNK A   1     -10.933  11.962  66.883  1.00  0.00    -0.259 OA 
BRANCH  17  19
ATOM     19  CA  GLY A   2     -10.800  13.903  64.865  1.00  0.00    -0.405 C  
ATOM     20  C   GLY A   2     -12.129  14.087  64.134  1.00  0.00    -0.422 C  
ATOM     21  O   GLY A   2     -12.571  12.964  63.521  1.00  0.00    -0.711 OA 
ATOM     22  OXT GLY A   2     -12.724  15.152  64.062  1.00  0.00    -0.746 OA 
ENDBRANCH  17  19
ENDBRANCH  14  15
BRANCH  14  23
HETATM   23  C   UNK A   1      -9.531  10.065  64.171  1.00  0.00    -0.252 C  
HETATM   24  S   UNK A   1      -7.876   9.844  63.440  1.00  0.00    -0.158 SA 
HETATM   25  H   UNK A   1      -7.848   9.583  62.076  1.00  0.00     0.000 H  
ENDBRANCH  14  23
ENDBRANCH  12  14
ENDBRANCH   9  10
ENDBRANCH   8   9
ENDBRANCH   2   8
TORSDOF 7
ENDMDL
MODEL      140
REMARK 921   NORMALIZED FREE ENERGY PREDICTED BY IDOCK:   -4.29 KCAL/MOL
REMARK 922        TOTAL FREE ENERGY PREDICTED BY IDOCK:   -6.61 KCAL/MOL
REMARK 923 INTER-LIGAND FREE ENERGY PREDICTED BY IDOCK:   -5.81 KCAL/MOL
REMARK 924 INTRA-LIGAND FREE ENERGY PREDICTED BY IDOCK:   -0.80 KCAL/MOL
REMARK 927      BINDING AFFINITY PREDICTED BY RF-SCORE:    0.00 PKD
ROOT
HETATM    1  N   UNK A   1     -11.682   7.763  70.560  1.00  0.00    -0.457 NA 
HETATM    2  C   UNK A   1     -10.879   7.011  69.550  1.00  0.00    -0.238 C  
HETATM    3  H2  UNK A   1     -11.889   8.706  70.232  1.00  0.00     0.000 HD 
HETATM    4  H1  UNK A   1     -12.536   7.276  70.831  1.00  0.00     0.000 HD 
HETATM    5  O   UNK A   1     -11.193   5.393  71.284  1.00  0.00    -0.082 OA 
HETATM    6  C   UNK A   1     -10.570   5.606  70.096  1.00  0.00    -0.309 C  
HETATM    7  O   UNK A   1      -9.840   4.789  69.560  1.00  0.00    -0.190 OA 
ENDROOT
BRANCH   2   8
HETATM    8  C   UNK A   1      -9.597   7.743  69.143  1.00  0.00    -0.155 C  
BRANCH   8   9
HETATM    9  C   UNK A   1      -9.761   8.704  67.961  1.00  0.00    -0.184 C  
BRANCH   9  10
HETATM   10  C   UNK A   1      -9.895  10.124  68.462  1.00  0.00    -0.154 C  
HETATM   11  O   UNK A   1     -10.340  10.387  69.576  1.00  0.00    -0.222 OA 
HETATM   12  N   UNK A   1      -9.454  11.085  67.592  1.00  0.00    -0.163 N  
HETATM   13  H   UNK A   1      -9.093  10.802  66.681  1.00  0.00     0.000 HD 
BRANCH  12  14
HETATM   14  C   UNK A   1      -9.488  12.504  67.931  1.00  0.00    -0.196 C  
BRANCH  14  15
HETATM   15  C   UNK A   1      -9.943  13.280  66.680  1.00  0.00    -0.272 C  
ATOM     16  H   GLY A   2     -10.402  11.478  65.727  1.00  0.00     0.000 HD 
ATOM     17  N   GLY A   2     -10.336  12.490  65.613  1.00  0.00    -0.266 N  
HETATM   18  O   UNK A   1     -10.037  14.505  66.664  1.00  0.00    -0.260 OA 
BRANCH  17  19
ATOM     19  CA  GLY A   2     -10.658  13.104  64.317  1.00  0.00    -0.412 C  
ATOM     20  C   GLY A   2     -12.157  13.174  64.032  1.00  0.00    -0.446 C  
ATOM     21  O   GLY A   2     -12.923  12.653  65.020  1.00  0.00    -0.812 OA 
ATOM     22  OXT GLY A   2     -12.633  13.615  62.996  1.00  0.00    -0.729 OA 
ENDBRANCH  17  19
ENDBRANCH  14  15
BRANCH  14  23
HETATM   23  C   UNK A   1      -8.117  13.067  68.337  1.00  0.00    -0.131 C  
HETATM   24  S   UNK A   1      -6.668  12.183  67.673  1.00  0.00    -0.133 SA 
HETATM   25  H   UNK A   1      -5.429  12.692  68.041  1.00  0.00     0.000 H  
ENDBRANCH  14  23
ENDBRANCH  12  14
ENDBRANCH   9  10
ENDBRANCH   8   9
ENDBRANCH   2   8
TORSDOF 7
ENDMDL
MODEL      141
REMARK 921   NORMALIZED FREE ENERGY PREDICTED BY IDOCK:   -4.27 KCAL/MOL
REMARK 922        TOTAL FREE ENERGY PREDICTED BY IDOCK:   -6.59 KCAL/MOL
REMARK 923 INTER-LIGAND FREE ENERGY PREDICTED BY IDOCK:   -5.57 KCAL/MOL
REMARK 924 INTRA-LIGAND FREE ENERGY PREDICTED BY IDOCK:   -1.01 KCAL/MOL
REMARK 927      BINDING AFFINITY PREDICTED BY RF-SCORE:    0.00 PKD
ROOT
HETATM    1  N   UNK A   1      -9.874   4.425  68.729  1.00  0.00    -0.123 NA 
HETATM    2  C   UNK A   1     -10.557   5.751  68.651  1.00  0.00    -0.235 C  
HETATM    3  H2  UNK A   1      -9.899   4.058  69.680  1.00  0.00     0.000 HD 
HETATM    4  H1  UNK A   1     -10.248   3.747  68.066  1.00  0.00     0.000 HD 
HETATM    5  O   UNK A   1      -9.905   5.360  66.383  1.00  0.00    -0.155 OA 
HETATM    6  C   UNK A   1     -10.473   6.277  67.207  1.00  0.00    -0.254 C  
HETATM    7  O   UNK A   1     -10.837   7.383  66.840  1.00  0.00    -0.357 OA 
ENDROOT
BRANCH   2   8
HETATM    8  C   UNK A   1      -9.996   6.770  69.647  1.00  0.00    -0.184 C  
BRANCH   8   9
HETATM    9  C   UNK A   1     -11.035   7.744  70.213  1.00  0.00    -0.252 C  
BRANCH   9  10
HETATM   10  C   UNK A   1     -10.572   9.168  70.015  1.00  0.00    -0.227 C  
HETATM   11  O   UNK A   1     -10.420   9.945  70.954  1.00  0.00    -0.286 OA 
HETATM   12  N   UNK A   1     -10.307   9.513  68.716  1.00  0.00    -0.202 N  
HETATM   13  H   UNK A   1     -10.451   8.821  67.980  1.00  0.00     0.000 HD 
BRANCH  12  14
HETATM   14  C   UNK A   1      -9.826  10.842  68.354  1.00  0.00    -0.177 C  
BRANCH  14  15
HETATM   15  C   UNK A   1     -10.975  11.588  67.651  1.00  0.00    -0.242 C  
ATOM     16  H   GLY A   2      -9.673  12.153  66.117  1.00  0.00     0.000 HD 
ATOM     17  N   GLY A   2     -10.615  12.258  66.493  1.00  0.00    -0.230 N  
HETATM   18  O   UNK A   1     -12.140  11.517  68.036  1.00  0.00    -0.617 OA 
BRANCH  17  19
ATOM     19  CA  GLY A   2     -11.586  13.121  65.806  1.00  0.00    -0.347 C  
ATOM     20  C   GLY A   2     -11.919  12.657  64.389  1.00  0.00    -0.400 C  
ATOM     21  O   GLY A   2     -11.256  11.536  64.016  1.00  0.00    -0.369 OA 
ATOM     22  OXT GLY A   2     -12.675  13.254  63.637  1.00  0.00    -0.704 OA 
ENDBRANCH  17  19
ENDBRANCH  14  15
BRANCH  14  23
HETATM   23  C   UNK A   1      -8.640  10.817  67.377  1.00  0.00    -0.126 C  
HETATM   24  S   UNK A   1      -7.441   9.466  67.620  1.00  0.00    -0.087 SA 
HETATM   25  H   UNK A   1      -6.369   9.443  66.737  1.00  0.00     0.000 H  
ENDBRANCH  14  23
ENDBRANCH  12  14
ENDBRANCH   9  10
ENDBRANCH   8   9
ENDBRANCH   2   8
TORSDOF 7
ENDMDL
MODEL      142
REMARK 921   NORMALIZED FREE ENERGY PREDICTED BY IDOCK:   -4.26 KCAL/MOL
REMARK 922        TOTAL FREE ENERGY PREDICTED BY IDOCK:   -6.57 KCAL/MOL
REMARK 923 INTER-LIGAND FREE ENERGY PREDICTED BY IDOCK:   -6.06 KCAL/MOL
REMARK 924 INTRA-LIGAND FREE ENERGY PREDICTED BY IDOCK:   -0.51 KCAL/MOL
REMARK 927      BINDING AFFINITY PREDICTED BY RF-SCORE:    0.00 PKD
ROOT
HETATM    1  N   UNK A   1     -11.707  13.177  70.394  1.00  0.00    -0.545 NA 
HETATM    2  C   UNK A   1     -12.136  11.766  70.166  1.00  0.00    -0.317 C  
HETATM    3  H2  UNK A   1     -11.171  13.528  69.601  1.00  0.00     0.000 HD 
HETATM    4  H1  UNK A   1     -12.485  13.798  70.612  1.00  0.00     0.000 HD 
HETATM    5  O   UNK A   1     -13.097  12.270  72.298  1.00  0.00    -0.396 OA 
HETATM    6  C   UNK A   1     -12.917  11.271  71.397  1.00  0.00    -0.379 C  
HETATM    7  O   UNK A   1     -13.306  10.127  71.569  1.00  0.00    -0.370 OA 
ENDROOT
BRANCH   2   8
HETATM    8  C   UNK A   1     -10.966  10.832  69.839  1.00  0.00    -0.304 C  
BRANCH   8   9
HETATM    9  C   UNK A   1     -11.026  10.204  68.444  1.00  0.00    -0.293 C  
BRANCH   9  10
HETATM   10  C   UNK A   1     -10.549  11.196  67.408  1.00  0.00    -0.234 C  
HETATM   11  O   UNK A   1     -10.176  10.849  66.291  1.00  0.00    -0.232 OA 
HETATM   12  N   UNK A   1     -10.595  12.507  67.803  1.00  0.00    -0.215 N  
HETATM   13  H   UNK A   1     -10.917  12.731  68.745  1.00  0.00     0.000 HD 
BRANCH  12  14
HETATM   14  C   UNK A   1     -10.195  13.593  66.914  1.00  0.00    -0.261 C  
BRANCH  14  15
HETATM   15  C   UNK A   1      -9.116  14.423  67.634  1.00  0.00    -0.194 C  
ATOM     16  H   GLY A   2      -8.488  15.202  65.799  1.00  0.00     0.000 HD 
ATOM     17  N   GLY A   2      -8.292  15.160  66.800  1.00  0.00    -0.228 N  
HETATM   18  O   UNK A   1      -9.051  14.497  68.859  1.00  0.00    -0.180 OA 
BRANCH  17  19
ATOM     19  CA  GLY A   2      -7.137  15.883  67.351  1.00  0.00    -0.197 C  
ATOM     20  C   GLY A   2      -6.985  17.300  66.800  1.00  0.00    -0.214 C  
ATOM     21  O   GLY A   2      -7.938  17.636  65.898  1.00  0.00    -0.531 OA 
ATOM     22  OXT GLY A   2      -6.072  18.053  67.102  1.00  0.00    -0.143 OA 
ENDBRANCH  17  19
ENDBRANCH  14  15
BRANCH  14  23
HETATM   23  C   UNK A   1     -11.345  14.552  66.566  1.00  0.00    -0.352 C  
HETATM   24  S   UNK A   1     -12.588  13.909  65.399  1.00  0.00    -0.470 SA 
HETATM   25  H   UNK A   1     -13.627  14.776  65.085  1.00  0.00     0.000 H  
ENDBRANCH  14  23
ENDBRANCH  12  14
ENDBRANCH   9  10
ENDBRANCH   8   9
ENDBRANCH   2   8
TORSDOF 7
ENDMDL
MODEL      143
REMARK 921   NORMALIZED FREE ENERGY PREDICTED BY IDOCK:   -4.23 KCAL/MOL
REMARK 922        TOTAL FREE ENERGY PREDICTED BY IDOCK:   -6.53 KCAL/MOL
REMARK 923 INTER-LIGAND FREE ENERGY PREDICTED BY IDOCK:   -5.97 KCAL/MOL
REMARK 924 INTRA-LIGAND FREE ENERGY PREDICTED BY IDOCK:   -0.56 KCAL/MOL
REMARK 927      BINDING AFFINITY PREDICTED BY RF-SCORE:    0.00 PKD
ROOT
HETATM    1  N   UNK A   1     -11.633   5.640  72.957  1.00  0.00    -0.525 NA 
HETATM    2  C   UNK A   1     -12.172   6.490  71.854  1.00  0.00    -0.324 C  
HETATM    3  H2  UNK A   1     -12.132   5.814  73.829  1.00  0.00     0.000 HD 
HETATM    4  H1  UNK A   1     -11.635   4.646  72.728  1.00  0.00     0.000 HD 
HETATM    5  O   UNK A   1     -10.483   5.205  70.750  1.00  0.00    -0.243 OA 
HETATM    6  C   UNK A   1     -11.376   6.212  70.567  1.00  0.00    -0.310 C  
HETATM    7  O   UNK A   1     -11.497   6.826  69.519  1.00  0.00    -0.264 OA 
ENDROOT
BRANCH   2   8
HETATM    8  C   UNK A   1     -12.169   7.983  72.197  1.00  0.00    -0.377 C  
BRANCH   8   9
HETATM    9  C   UNK A   1     -12.984   8.857  71.240  1.00  0.00    -0.255 C  
BRANCH   9  10
HETATM   10  C   UNK A   1     -12.179  10.070  70.833  1.00  0.00    -0.346 C  
HETATM   11  O   UNK A   1     -12.128  11.085  71.522  1.00  0.00    -0.179 OA 
HETATM   12  N   UNK A   1     -11.493   9.937  69.655  1.00  0.00    -0.422 N  
HETATM   13  H   UNK A   1     -11.575   9.067  69.128  1.00  0.00     0.000 HD 
BRANCH  12  14
HETATM   14  C   UNK A   1     -10.646  11.004  69.132  1.00  0.00    -0.219 C  
BRANCH  14  15
HETATM   15  C   UNK A   1     -11.523  11.919  68.256  1.00  0.00    -0.311 C  
ATOM     16  H   GLY A   2     -10.895  10.889  66.549  1.00  0.00     0.000 HD 
ATOM     17  N   GLY A   2     -11.433  11.685  66.894  1.00  0.00    -0.300 N  
HETATM   18  O   UNK A   1     -12.311  12.731  68.734  1.00  0.00    -0.059 OA 
BRANCH  17  19
ATOM     19  CA  GLY A   2     -12.110  12.578  65.943  1.00  0.00    -0.352 C  
ATOM     20  C   GLY A   2     -11.665  12.378  64.496  1.00  0.00    -0.362 C  
ATOM     21  O   GLY A   2     -10.721  11.419  64.346  1.00  0.00    -0.317 OA 
ATOM     22  OXT GLY A   2     -12.079  13.044  63.558  1.00  0.00    -0.519 OA 
ENDBRANCH  17  19
ENDBRANCH  14  15
BRANCH  14  23
HETATM   23  C   UNK A   1      -9.499  10.495  68.245  1.00  0.00    -0.155 C  
HETATM   24  S   UNK A   1      -8.378   9.284  69.018  1.00  0.00    -0.126 SA 
HETATM   25  H   UNK A   1      -7.341   8.823  68.216  1.00  0.00     0.000 H  
ENDBRANCH  14  23
ENDBRANCH  12  14
ENDBRANCH   9  10
ENDBRANCH   8   9
ENDBRANCH   2   8
TORSDOF 7
ENDMDL
MODEL      144
REMARK 921   NORMALIZED FREE ENERGY PREDICTED BY IDOCK:   -4.22 KCAL/MOL
REMARK 922        TOTAL FREE ENERGY PREDICTED BY IDOCK:   -6.52 KCAL/MOL
REMARK 923 INTER-LIGAND FREE ENERGY PREDICTED BY IDOCK:   -6.97 KCAL/MOL
REMARK 924 INTRA-LIGAND FREE ENERGY PREDICTED BY IDOCK:    0.45 KCAL/MOL
REMARK 927      BINDING AFFINITY PREDICTED BY RF-SCORE:    0.00 PKD
ROOT
HETATM    1  N   UNK A   1     -13.498  13.968  65.862  1.00  0.00    -0.369 NA 
HETATM    2  C   UNK A   1     -12.068  13.542  65.915  1.00  0.00    -0.435 C  
HETATM    3  H2  UNK A   1     -13.952  13.832  66.765  1.00  0.00     0.000 HD 
HETATM    4  H1  UNK A   1     -13.614  14.928  65.536  1.00  0.00     0.000 HD 
HETATM    5  O   UNK A   1     -12.295  14.344  63.673  1.00  0.00    -0.722 OA 
HETATM    6  C   UNK A   1     -11.430  13.742  64.529  1.00  0.00    -0.384 C  
HETATM    7  O   UNK A   1     -10.306  13.385  64.214  1.00  0.00    -0.420 OA 
ENDROOT
BRANCH   2   8
HETATM    8  C   UNK A   1     -11.893  12.101  66.404  1.00  0.00    -0.321 C  
BRANCH   8   9
HETATM    9  C   UNK A   1     -11.705  11.962  67.918  1.00  0.00    -0.368 C  
BRANCH   9  10
HETATM   10  C   UNK A   1     -11.238  13.274  68.505  1.00  0.00    -0.271 C  
HETATM   11  O   UNK A   1     -10.049  13.534  68.666  1.00  0.00    -0.226 OA 
HETATM   12  N   UNK A   1     -12.239  14.157  68.814  1.00  0.00    -0.546 N  
HETATM   13  H   UNK A   1     -13.209  13.882  68.654  1.00  0.00     0.000 HD 
BRANCH  12  14
HETATM   14  C   UNK A   1     -11.958  15.479  69.364  1.00  0.00    -0.336 C  
BRANCH  14  15
HETATM   15  C   UNK A   1     -11.063  16.230  68.359  1.00  0.00    -0.362 C  
ATOM     16  H   GLY A   2      -9.831  16.859  69.926  1.00  0.00     0.000 HD 
ATOM     17  N   GLY A   2     -10.018  16.940  68.926  1.00  0.00    -0.268 N  
HETATM   18  O   UNK A   1     -11.211  16.131  67.144  1.00  0.00    -0.131 OA 
BRANCH  17  19
ATOM     19  CA  GLY A   2      -9.177  17.810  68.092  1.00  0.00    -0.277 C  
ATOM     20  C   GLY A   2      -7.682  17.530  68.233  1.00  0.00    -0.247 C  
ATOM     21  O   GLY A   2      -7.396  16.535  69.106  1.00  0.00    -0.217 OA 
ATOM     22  OXT GLY A   2      -6.813  18.165  67.654  1.00  0.00    -0.192 OA 
ENDBRANCH  17  19
ENDBRANCH  14  15
BRANCH  14  23
HETATM   23  C   UNK A   1     -11.200  15.435  70.699  1.00  0.00    -0.342 C  
HETATM   24  S   UNK A   1     -12.138  15.986  72.162  1.00  0.00    -0.534 SA 
HETATM   25  H   UNK A   1     -11.452  15.947  73.370  1.00  0.00     0.000 H  
ENDBRANCH  14  23
ENDBRANCH  12  14
ENDBRANCH   9  10
ENDBRANCH   8   9
ENDBRANCH   2   8
TORSDOF 7
ENDMDL
MODEL      145
REMARK 921   NORMALIZED FREE ENERGY PREDICTED BY IDOCK:   -4.22 KCAL/MOL
REMARK 922        TOTAL FREE ENERGY PREDICTED BY IDOCK:   -6.51 KCAL/MOL
REMARK 923 INTER-LIGAND FREE ENERGY PREDICTED BY IDOCK:   -6.48 KCAL/MOL
REMARK 924 INTRA-LIGAND FREE ENERGY PREDICTED BY IDOCK:   -0.03 KCAL/MOL
REMARK 927      BINDING AFFINITY PREDICTED BY RF-SCORE:    0.00 PKD
ROOT
HETATM    1  N   UNK A   1     -12.033   7.936  73.165  1.00  0.00    -0.609 NA 
HETATM    2  C   UNK A   1     -11.217   7.733  71.932  1.00  0.00    -0.265 C  
HETATM    3  H2  UNK A   1     -13.025   7.796  72.974  1.00  0.00     0.000 HD 
HETATM    4  H1  UNK A   1     -11.726   7.354  73.945  1.00  0.00     0.000 HD 
HETATM    5  O   UNK A   1      -9.557   8.203  73.590  1.00  0.00    -0.168 OA 
HETATM    6  C   UNK A   1      -9.734   7.978  72.262  1.00  0.00    -0.229 C  
HETATM    7  O   UNK A   1      -8.826   8.000  71.446  1.00  0.00    -0.128 OA 
ENDROOT
BRANCH   2   8
HETATM    8  C   UNK A   1     -11.677   8.608  70.762  1.00  0.00    -0.239 C  
BRANCH   8   9
HETATM    9  C   UNK A   1     -11.564  10.114  71.012  1.00  0.00    -0.462 C  
BRANCH   9  10
HETATM   10  C   UNK A   1     -11.625  10.864  69.701  1.00  0.00    -0.322 C  
HETATM   11  O   UNK A   1     -12.655  10.940  69.037  1.00  0.00    -0.350 OA 
HETATM   12  N   UNK A   1     -10.455  11.473  69.331  1.00  0.00    -0.441 N  
HETATM   13  H   UNK A   1      -9.634  11.374  69.927  1.00  0.00     0.000 HD 
BRANCH  12  14
HETATM   14  C   UNK A   1     -10.351  12.259  68.106  1.00  0.00    -0.216 C  
BRANCH  14  15
HETATM   15  C   UNK A   1     -11.319  13.452  68.224  1.00  0.00    -0.295 C  
ATOM     16  H   GLY A   2     -10.316  14.097  69.942  1.00  0.00     0.000 HD 
ATOM     17  N   GLY A   2     -11.119  14.258  69.333  1.00  0.00    -0.260 N  
HETATM   18  O   UNK A   1     -12.143  13.720  67.354  1.00  0.00    -0.386 OA 
BRANCH  17  19
ATOM     19  CA  GLY A   2     -12.061  15.345  69.636  1.00  0.00    -0.327 C  
ATOM     20  C   GLY A   2     -12.924  15.079  70.867  1.00  0.00    -0.405 C  
ATOM     21  O   GLY A   2     -12.674  13.886  71.458  1.00  0.00    -0.338 OA 
ATOM     22  OXT GLY A   2     -13.793  15.840  71.268  1.00  0.00    -0.547 OA 
ENDBRANCH  17  19
ENDBRANCH  14  15
BRANCH  14  23
HETATM   23  C   UNK A   1     -10.750  11.479  66.844  1.00  0.00    -0.263 C  
HETATM   24  S   UNK A   1      -9.453  11.305  65.576  1.00  0.00    -0.228 SA 
HETATM   25  H   UNK A   1      -9.814  10.600  64.434  1.00  0.00     0.000 H  
ENDBRANCH  14  23
ENDBRANCH  12  14
ENDBRANCH   9  10
ENDBRANCH   8   9
ENDBRANCH   2   8
TORSDOF 7
ENDMDL
MODEL      146
REMARK 921   NORMALIZED FREE ENERGY PREDICTED BY IDOCK:   -4.22 KCAL/MOL
REMARK 922        TOTAL FREE ENERGY PREDICTED BY IDOCK:   -6.50 KCAL/MOL
REMARK 923 INTER-LIGAND FREE ENERGY PREDICTED BY IDOCK:   -5.98 KCAL/MOL
REMARK 924 INTRA-LIGAND FREE ENERGY PREDICTED BY IDOCK:   -0.52 KCAL/MOL
REMARK 927      BINDING AFFINITY PREDICTED BY RF-SCORE:    0.00 PKD
ROOT
HETATM    1  N   UNK A   1      -7.905  17.821  68.595  1.00  0.00    -0.285 NA 
HETATM    2  C   UNK A   1      -8.314  17.930  67.163  1.00  0.00    -0.228 C  
HETATM    3  H2  UNK A   1      -7.981  16.859  68.924  1.00  0.00     0.000 HD 
HETATM    4  H1  UNK A   1      -6.973  18.195  68.771  1.00  0.00     0.000 HD 
HETATM    5  O   UNK A   1      -7.676  20.172  67.700  1.00  0.00    -0.284 OA 
HETATM    6  C   UNK A   1      -8.208  19.400  66.718  1.00  0.00    -0.292 C  
HETATM    7  O   UNK A   1      -8.576  19.835  65.639  1.00  0.00    -0.348 OA 
ENDROOT
BRANCH   2   8
HETATM    8  C   UNK A   1      -9.715  17.370  66.899  1.00  0.00    -0.286 C  
BRANCH   8   9
HETATM    9  C   UNK A   1      -9.738  16.082  66.070  1.00  0.00    -0.376 C  
BRANCH   9  10
HETATM   10  C   UNK A   1     -10.826  15.161  66.573  1.00  0.00    -0.317 C  
HETATM   11  O   UNK A   1     -11.436  15.376  67.616  1.00  0.00    -0.326 OA 
HETATM   12  N   UNK A   1     -11.095  14.091  65.761  1.00  0.00    -0.301 N  
HETATM   13  H   UNK A   1     -10.554  13.969  64.905  1.00  0.00     0.000 HD 
BRANCH  12  14
HETATM   14  C   UNK A   1     -12.135  13.120  66.087  1.00  0.00    -0.417 C  
BRANCH  14  15
HETATM   15  C   UNK A   1     -11.493  12.002  66.931  1.00  0.00    -0.337 C  
ATOM     16  H   GLY A   2      -9.662  12.331  65.978  1.00  0.00     0.000 HD 
ATOM     17  N   GLY A   2     -10.166  11.737  66.637  1.00  0.00    -0.206 N  
HETATM   18  O   UNK A   1     -12.087  11.453  67.855  1.00  0.00    -0.646 OA 
BRANCH  17  19
ATOM     19  CA  GLY A   2      -9.480  10.603  67.272  1.00  0.00    -0.158 C  
ATOM     20  C   GLY A   2      -9.298   9.403  66.344  1.00  0.00    -0.187 C  
ATOM     21  O   GLY A   2      -9.807   9.595  65.103  1.00  0.00    -0.295 OA 
ATOM     22  OXT GLY A   2      -8.785   8.349  66.687  1.00  0.00    -0.122 OA 
ENDBRANCH  17  19
ENDBRANCH  14  15
BRANCH  14  23
HETATM   23  C   UNK A   1     -12.755  12.452  64.850  1.00  0.00    -0.169 C  
HETATM   24  S   UNK A   1     -11.656  12.282  63.406  1.00  0.00    -0.403 SA 
HETATM   25  H   UNK A   1     -12.217  11.677  62.287  1.00  0.00     0.000 H  
ENDBRANCH  14  23
ENDBRANCH  12  14
ENDBRANCH   9  10
ENDBRANCH   8   9
ENDBRANCH   2   8
TORSDOF 7
ENDMDL
MODEL      147
REMARK 921   NORMALIZED FREE ENERGY PREDICTED BY IDOCK:   -4.21 KCAL/MOL
REMARK 922        TOTAL FREE ENERGY PREDICTED BY IDOCK:   -6.50 KCAL/MOL
REMARK 923 INTER-LIGAND FREE ENERGY PREDICTED BY IDOCK:   -6.56 KCAL/MOL
REMARK 924 INTRA-LIGAND FREE ENERGY PREDICTED BY IDOCK:    0.06 KCAL/MOL
REMARK 927      BINDING AFFINITY PREDICTED BY RF-SCORE:    0.00 PKD
ROOT
HETATM    1  N   UNK A   1      -9.967  12.677  63.213  1.00  0.00    -0.541 NA 
HETATM    2  C   UNK A   1     -10.861  12.153  64.288  1.00  0.00    -0.341 C  
HETATM    3  H2  UNK A   1      -9.074  12.186  63.210  1.00  0.00     0.000 HD 
HETATM    4  H1  UNK A   1     -10.401  12.652  62.290  1.00  0.00     0.000 HD 
HETATM    5  O   UNK A   1     -12.226  13.809  63.231  1.00  0.00    -0.642 OA 
HETATM    6  C   UNK A   1     -12.185  12.938  64.272  1.00  0.00    -0.410 C  
HETATM    7  O   UNK A   1     -13.078  12.826  65.096  1.00  0.00    -0.750 OA 
ENDROOT
BRANCH   2   8
HETATM    8  C   UNK A   1     -10.211  12.190  65.675  1.00  0.00    -0.285 C  
BRANCH   8   9
HETATM    9  C   UNK A   1     -10.902  11.315  66.724  1.00  0.00    -0.334 C  
BRANCH   9  10
HETATM   10  C   UNK A   1     -11.089  12.093  68.006  1.00  0.00    -0.244 C  
HETATM   11  O   UNK A   1     -10.668  11.688  69.087  1.00  0.00    -0.208 OA 
HETATM   12  N   UNK A   1     -11.734  13.293  67.863  1.00  0.00    -0.339 N  
HETATM   13  H   UNK A   1     -12.058  13.574  66.937  1.00  0.00     0.000 HD 
BRANCH  12  14
HETATM   14  C   UNK A   1     -11.972  14.179  68.997  1.00  0.00    -0.340 C  
BRANCH  14  15
HETATM   15  C   UNK A   1     -10.731  15.077  69.165  1.00  0.00    -0.249 C  
ATOM     16  H   GLY A   2     -10.520  15.178  67.088  1.00  0.00     0.000 HD 
ATOM     17  N   GLY A   2     -10.100  15.430  67.984  1.00  0.00    -0.225 N  
HETATM   18  O   UNK A   1     -10.383  15.522  70.257  1.00  0.00    -0.306 OA 
BRANCH  17  19
ATOM     19  CA  GLY A   2      -8.829  16.166  68.015  1.00  0.00    -0.181 C  
ATOM     20  C   GLY A   2      -7.622  15.315  67.623  1.00  0.00    -0.172 C  
ATOM     21  O   GLY A   2      -7.937  14.033  67.323  1.00  0.00    -0.179 OA 
ATOM     22  OXT GLY A   2      -6.471  15.727  67.620  1.00  0.00    -0.138 OA 
ENDBRANCH  17  19
ENDBRANCH  14  15
BRANCH  14  23
HETATM   23  C   UNK A   1     -12.171  13.432  70.325  1.00  0.00    -0.335 C  
HETATM   24  S   UNK A   1     -13.338  14.196  71.497  1.00  0.00    -0.344 SA 
HETATM   25  H   UNK A   1     -13.519  13.520  72.698  1.00  0.00     0.000 H  
ENDBRANCH  14  23
ENDBRANCH  12  14
ENDBRANCH   9  10
ENDBRANCH   8   9
ENDBRANCH   2   8
TORSDOF 7
ENDMDL
MODEL      148
REMARK 921   NORMALIZED FREE ENERGY PREDICTED BY IDOCK:   -4.21 KCAL/MOL
REMARK 922        TOTAL FREE ENERGY PREDICTED BY IDOCK:   -6.50 KCAL/MOL
REMARK 923 INTER-LIGAND FREE ENERGY PREDICTED BY IDOCK:   -5.71 KCAL/MOL
REMARK 924 INTRA-LIGAND FREE ENERGY PREDICTED BY IDOCK:   -0.78 KCAL/MOL
REMARK 927      BINDING AFFINITY PREDICTED BY RF-SCORE:    0.00 PKD
ROOT
HETATM    1  N   UNK A   1     -10.944  13.460  66.692  1.00  0.00    -0.285 NA 
HETATM    2  C   UNK A   1     -10.828  13.853  65.256  1.00  0.00    -0.333 C  
HETATM    3  H2  UNK A   1     -10.026  13.278  67.096  1.00  0.00     0.000 HD 
HETATM    4  H1  UNK A   1     -11.459  14.142  67.249  1.00  0.00     0.000 HD 
HETATM    5  O   UNK A   1     -13.183  13.992  65.650  1.00  0.00    -0.634 OA 
HETATM    6  C   UNK A   1     -12.235  14.094  64.683  1.00  0.00    -0.445 C  
HETATM    7  O   UNK A   1     -12.487  14.319  63.510  1.00  0.00    -0.798 OA 
ENDROOT
BRANCH   2   8
HETATM    8  C   UNK A   1     -10.055  12.829  64.419  1.00  0.00    -0.275 C  
BRANCH   8   9
HETATM    9  C   UNK A   1     -10.740  11.465  64.293  1.00  0.00    -0.420 C  
BRANCH   9  10
HETATM   10  C   UNK A   1     -10.024  10.445  65.148  1.00  0.00    -0.322 C  
HETATM   11  O   UNK A   1      -9.331   9.554  64.664  1.00  0.00    -0.240 OA 
HETATM   12  N   UNK A   1     -10.186  10.610  66.498  1.00  0.00    -0.226 N  
HETATM   13  H   UNK A   1     -10.774  11.371  66.838  1.00  0.00     0.000 HD 
BRANCH  12  14
HETATM   14  C   UNK A   1      -9.541   9.727  67.464  1.00  0.00    -0.150 C  
BRANCH  14  15
HETATM   15  C   UNK A   1     -10.398   9.718  68.745  1.00  0.00    -0.208 C  
ATOM     16  H   GLY A   2      -8.670   9.498  69.901  1.00  0.00     0.000 HD 
ATOM     17  N   GLY A   2      -9.690   9.524  69.920  1.00  0.00    -0.209 N  
HETATM   18  O   UNK A   1     -11.603   9.957  68.732  1.00  0.00     0.003 OA 
BRANCH  17  19
ATOM     19  CA  GLY A   2     -10.404   9.356  71.193  1.00  0.00    -0.307 C  
ATOM     20  C   GLY A   2      -9.665   8.470  72.194  1.00  0.00    -0.317 C  
ATOM     21  O   GLY A   2      -8.486   7.991  71.728  1.00  0.00    -0.110 OA 
ATOM     22  OXT GLY A   2     -10.103   8.175  73.296  1.00  0.00    -0.257 OA 
ENDBRANCH  17  19
ENDBRANCH  14  15
BRANCH  14  23
HETATM   23  C   UNK A   1      -8.132  10.189  67.868  1.00  0.00    -0.109 C  
HETATM   24  S   UNK A   1      -6.816   8.936  67.727  1.00  0.00    -0.071 SA 
HETATM   25  H   UNK A   1      -5.542   9.353  68.092  1.00  0.00     0.000 H  
ENDBRANCH  14  23
ENDBRANCH  12  14
ENDBRANCH   9  10
ENDBRANCH   8   9
ENDBRANCH   2   8
TORSDOF 7
ENDMDL
MODEL      149
REMARK 921   NORMALIZED FREE ENERGY PREDICTED BY IDOCK:   -4.20 KCAL/MOL
REMARK 922        TOTAL FREE ENERGY PREDICTED BY IDOCK:   -6.48 KCAL/MOL
REMARK 923 INTER-LIGAND FREE ENERGY PREDICTED BY IDOCK:   -6.05 KCAL/MOL
REMARK 924 INTRA-LIGAND FREE ENERGY PREDICTED BY IDOCK:   -0.43 KCAL/MOL
REMARK 927      BINDING AFFINITY PREDICTED BY RF-SCORE:    0.00 PKD
ROOT
HETATM    1  N   UNK A   1     -12.496  14.969  64.064  1.00  0.00    -0.993 NA 
HETATM    2  C   UNK A   1     -11.678  13.984  64.831  1.00  0.00    -0.380 C  
HETATM    3  H2  UNK A   1     -12.313  15.920  64.381  1.00  0.00     0.000 HD 
HETATM    4  H1  UNK A   1     -12.370  14.890  63.055  1.00  0.00     0.000 HD 
HETATM    5  O   UNK A   1     -12.855  12.595  63.279  1.00  0.00    -0.643 OA 
HETATM    6  C   UNK A   1     -12.005  12.563  64.337  1.00  0.00    -0.404 C  
HETATM    7  O   UNK A   1     -11.586  11.532  64.838  1.00  0.00    -0.141 OA 
ENDROOT
BRANCH   2   8
HETATM    8  C   UNK A   1     -11.869  14.102  66.347  1.00  0.00    -0.440 C  
BRANCH   8   9
HETATM    9  C   UNK A   1     -10.706  13.552  67.178  1.00  0.00    -0.282 C  
BRANCH   9  10
HETATM   10  C   UNK A   1      -9.972  14.685  67.857  1.00  0.00    -0.221 C  
HETATM   11  O   UNK A   1     -10.513  15.758  68.110  1.00  0.00    -0.249 OA 
HETATM   12  N   UNK A   1      -8.673  14.410  68.193  1.00  0.00    -0.167 N  
HETATM   13  H   UNK A   1      -8.281  13.498  67.957  1.00  0.00     0.000 HD 
BRANCH  12  14
HETATM   14  C   UNK A   1      -7.832  15.386  68.879  1.00  0.00    -0.177 C  
BRANCH  14  15
HETATM   15  C   UNK A   1      -7.157  16.266  67.809  1.00  0.00    -0.133 C  
ATOM     16  H   GLY A   2      -7.902  17.980  68.746  1.00  0.00     0.000 HD 
ATOM     17  N   GLY A   2      -7.397  17.624  67.934  1.00  0.00    -0.198 N  
HETATM   18  O   UNK A   1      -6.391  15.806  66.966  1.00  0.00    -0.308 OA 
BRANCH  17  19
ATOM     19  CA  GLY A   2      -6.928  18.556  66.899  1.00  0.00    -0.197 C  
ATOM     20  C   GLY A   2      -8.056  19.313  66.202  1.00  0.00    -0.284 C  
ATOM     21  O   GLY A   2      -9.290  18.987  66.656  1.00  0.00    -0.307 OA 
ATOM     22  OXT GLY A   2      -7.882  20.107  65.289  1.00  0.00    -0.196 OA 
ENDBRANCH  17  19
ENDBRANCH  14  15
BRANCH  14  23
HETATM   23  C   UNK A   1      -6.710  14.747  69.711  1.00  0.00    -0.173 C  
HETATM   24  S   UNK A   1      -5.426  15.888  70.320  1.00  0.00    -0.155 SA 
HETATM   25  H   UNK A   1      -4.411  15.311  71.072  1.00  0.00     0.000 H  
ENDBRANCH  14  23
ENDBRANCH  12  14
ENDBRANCH   9  10
ENDBRANCH   8   9
ENDBRANCH   2   8
TORSDOF 7
ENDMDL
MODEL      150
REMARK 921   NORMALIZED FREE ENERGY PREDICTED BY IDOCK:   -4.20 KCAL/MOL
REMARK 922        TOTAL FREE ENERGY PREDICTED BY IDOCK:   -6.48 KCAL/MOL
REMARK 923 INTER-LIGAND FREE ENERGY PREDICTED BY IDOCK:   -5.81 KCAL/MOL
REMARK 924 INTRA-LIGAND FREE ENERGY PREDICTED BY IDOCK:   -0.67 KCAL/MOL
REMARK 927      BINDING AFFINITY PREDICTED BY RF-SCORE:    0.00 PKD
ROOT
HETATM    1  N   UNK A   1     -12.425  14.232  63.226  1.00  0.00    -1.068 NA 
HETATM    2  C   UNK A   1     -12.582  12.926  63.931  1.00  0.00    -0.247 C  
HETATM    3  H2  UNK A   1     -12.597  14.129  62.226  1.00  0.00     0.000 HD 
HETATM    4  H1  UNK A   1     -13.006  14.970  63.622  1.00  0.00     0.000 HD 
HETATM    5  O   UNK A   1     -12.075  14.433  65.719  1.00  0.00    -0.385 OA 
HETATM    6  C   UNK A   1     -12.288  13.123  65.429  1.00  0.00    -0.481 C  
HETATM    7  O   UNK A   1     -12.223  12.228  66.256  1.00  0.00    -0.628 OA 
ENDROOT
BRANCH   2   8
HETATM    8  C   UNK A   1     -11.708  11.818  63.336  1.00  0.00    -0.423 C  
BRANCH   8   9
HETATM    9  C   UNK A   1     -10.201  12.065  63.453  1.00  0.00    -0.457 C  
BRANCH   9  10
HETATM   10  C   UNK A   1      -9.559  10.971  64.274  1.00  0.00    -0.262 C  
HETATM   11  O   UNK A   1     -10.219  10.136  64.886  1.00  0.00    -0.300 OA 
HETATM   12  N   UNK A   1      -8.189  10.967  64.256  1.00  0.00    -0.364 N  
HETATM   13  H   UNK A   1      -7.697  11.687  63.726  1.00  0.00     0.000 HD 
BRANCH  12  14
HETATM   14  C   UNK A   1      -7.412   9.962  64.975  1.00  0.00    -0.134 C  
BRANCH  14  15
HETATM   15  C   UNK A   1      -6.797  10.635  66.216  1.00  0.00    -0.133 C  
ATOM     16  H   GLY A   2      -7.819   9.296  67.453  1.00  0.00     0.000 HD 
ATOM     17  N   GLY A   2      -7.223  10.124  67.430  1.00  0.00    -0.088 N  
HETATM   18  O   UNK A   1      -5.925  11.497  66.133  1.00  0.00    -0.122 OA 
BRANCH  17  19
ATOM     19  CA  GLY A   2      -6.819  10.769  68.687  1.00  0.00    -0.060 C  
ATOM     20  C   GLY A   2      -7.069   9.907  69.923  1.00  0.00    -0.118 C  
ATOM     21  O   GLY A   2      -7.624   8.704  69.642  1.00  0.00    -0.076 OA 
ATOM     22  OXT GLY A   2      -6.837  10.272  71.066  1.00  0.00    -0.320 OA 
ENDBRANCH  17  19
ENDBRANCH  14  15
BRANCH  14  23
HETATM   23  C   UNK A   1      -6.250   9.384  64.151  1.00  0.00    -0.092 C  
HETATM   24  S   UNK A   1      -6.309   7.588  63.849  1.00  0.00    -0.053 SA 
HETATM   25  H   UNK A   1      -5.258   7.066  63.104  1.00  0.00     0.000 H  
ENDBRANCH  14  23
ENDBRANCH  12  14
ENDBRANCH   9  10
ENDBRANCH   8   9
ENDBRANCH   2   8
TORSDOF 7
ENDMDL
MODEL      151
REMARK 921   NORMALIZED FREE ENERGY PREDICTED BY IDOCK:   -4.19 KCAL/MOL
REMARK 922        TOTAL FREE ENERGY PREDICTED BY IDOCK:   -6.47 KCAL/MOL
REMARK 923 INTER-LIGAND FREE ENERGY PREDICTED BY IDOCK:   -6.03 KCAL/MOL
REMARK 924 INTRA-LIGAND FREE ENERGY PREDICTED BY IDOCK:   -0.44 KCAL/MOL
REMARK 927      BINDING AFFINITY PREDICTED BY RF-SCORE:    0.00 PKD
ROOT
HETATM    1  N   UNK A   1      -7.646  10.888  65.137  1.00  0.00    -0.357 NA 
HETATM    2  C   UNK A   1      -8.492  10.387  66.260  1.00  0.00    -0.144 C  
HETATM    3  H2  UNK A   1      -7.163  11.747  65.399  1.00  0.00     0.000 HD 
HETATM    4  H1  UNK A   1      -6.987  10.190  64.793  1.00  0.00     0.000 HD 
HETATM    5  O   UNK A   1      -8.819   8.724  64.571  1.00  0.00    -0.111 OA 
HETATM    6  C   UNK A   1      -9.219   9.107  65.811  1.00  0.00    -0.234 C  
HETATM    7  O   UNK A   1     -10.069   8.517  66.459  1.00  0.00    -0.274 OA 
ENDROOT
BRANCH   2   8
HETATM    8  C   UNK A   1      -9.482  11.436  66.775  1.00  0.00    -0.197 C  
BRANCH   8   9
HETATM    9  C   UNK A   1      -9.574  11.527  68.302  1.00  0.00    -0.189 C  
BRANCH   9  10
HETATM   10  C   UNK A   1     -10.847  10.872  68.784  1.00  0.00    -0.209 C  
HETATM   11  O   UNK A   1     -11.742  10.532  68.015  1.00  0.00    -0.450 OA 
HETATM   12  N   UNK A   1     -10.911  10.662  70.136  1.00  0.00    -0.451 N  
HETATM   13  H   UNK A   1     -10.133  10.966  70.722  1.00  0.00     0.000 HD 
BRANCH  12  14
HETATM   14  C   UNK A   1     -12.060  10.016  70.762  1.00  0.00    -0.327 C  
BRANCH  14  15
HETATM   15  C   UNK A   1     -12.842  11.091  71.541  1.00  0.00    -0.450 C  
ATOM     16  H   GLY A   2     -12.159  12.553  70.213  1.00  0.00     0.000 HD 
ATOM     17  N   GLY A   2     -12.682  12.385  71.073  1.00  0.00    -0.291 N  
HETATM   18  O   UNK A   1     -13.620  10.810  72.449  1.00  0.00    -0.154 OA 
BRANCH  17  19
ATOM     19  CA  GLY A   2     -13.261  13.515  71.811  1.00  0.00    -0.404 C  
ATOM     20  C   GLY A   2     -13.122  14.852  71.086  1.00  0.00    -0.396 C  
ATOM     21  O   GLY A   2     -12.485  14.760  69.895  1.00  0.00    -0.306 OA 
ATOM     22  OXT GLY A   2     -13.505  15.919  71.544  1.00  0.00    -0.454 OA 
ENDBRANCH  17  19
ENDBRANCH  14  15
BRANCH  14  23
HETATM   23  C   UNK A   1     -11.672   8.922  71.769  1.00  0.00    -0.362 C  
HETATM   24  S   UNK A   1      -9.919   8.424  71.762  1.00  0.00    -0.270 SA 
HETATM   25  H   UNK A   1      -9.568   7.434  72.672  1.00  0.00     0.000 H  
ENDBRANCH  14  23
ENDBRANCH  12  14
ENDBRANCH   9  10
ENDBRANCH   8   9
ENDBRANCH   2   8
TORSDOF 7
ENDMDL
MODEL      152
REMARK 921   NORMALIZED FREE ENERGY PREDICTED BY IDOCK:   -4.19 KCAL/MOL
REMARK 922        TOTAL FREE ENERGY PREDICTED BY IDOCK:   -6.47 KCAL/MOL
REMARK 923 INTER-LIGAND FREE ENERGY PREDICTED BY IDOCK:   -5.72 KCAL/MOL
REMARK 924 INTRA-LIGAND FREE ENERGY PREDICTED BY IDOCK:   -0.75 KCAL/MOL
REMARK 927      BINDING AFFINITY PREDICTED BY RF-SCORE:    0.00 PKD
ROOT
HETATM    1  N   UNK A   1      -7.866   8.982  66.652  1.00  0.00    -0.099 NA 
HETATM    2  C   UNK A   1      -9.226   9.221  66.085  1.00  0.00    -0.196 C  
HETATM    3  H2  UNK A   1      -7.927   8.577  67.586  1.00  0.00     0.000 HD 
HETATM    4  H1  UNK A   1      -7.277   8.413  66.045  1.00  0.00     0.000 HD 
HETATM    5  O   UNK A   1      -7.785   9.925  64.310  1.00  0.00    -0.129 OA 
HETATM    6  C   UNK A   1      -9.087   9.854  64.689  1.00  0.00    -0.242 C  
HETATM    7  O   UNK A   1     -10.012  10.271  64.011  1.00  0.00    -0.299 OA 
ENDROOT
BRANCH   2   8
HETATM    8  C   UNK A   1     -10.111  10.077  66.997  1.00  0.00    -0.274 C  
BRANCH   8   9
HETATM    9  C   UNK A   1      -9.341  11.006  67.940  1.00  0.00    -0.160 C  
BRANCH   9  10
HETATM   10  C   UNK A   1      -9.149  12.358  67.293  1.00  0.00    -0.187 C  
HETATM   11  O   UNK A   1      -8.086  12.969  67.353  1.00  0.00    -0.168 OA 
HETATM   12  N   UNK A   1     -10.241  12.831  66.613  1.00  0.00    -0.235 N  
HETATM   13  H   UNK A   1     -11.096  12.274  66.598  1.00  0.00     0.000 HD 
BRANCH  12  14
HETATM   14  C   UNK A   1     -10.215  14.109  65.909  1.00  0.00    -0.319 C  
BRANCH  14  15
HETATM   15  C   UNK A   1     -10.822  15.176  66.840  1.00  0.00    -0.317 C  
ATOM     16  H   GLY A   2      -9.580  16.626  65.989  1.00  0.00     0.000 HD 
ATOM     17  N   GLY A   2     -10.265  16.439  66.722  1.00  0.00    -0.279 N  
HETATM   18  O   UNK A   1     -11.787  14.945  67.564  1.00  0.00    -0.350 OA 
BRANCH  17  19
ATOM     19  CA  GLY A   2     -10.658  17.509  67.649  1.00  0.00    -0.355 C  
ATOM     20  C   GLY A   2     -10.309  18.909  67.147  1.00  0.00    -0.413 C  
ATOM     21  O   GLY A   2      -9.694  18.915  65.940  1.00  0.00    -0.474 OA 
ATOM     22  OXT GLY A   2     -10.518  19.932  67.782  1.00  0.00    -0.407 OA 
ENDBRANCH  17  19
ENDBRANCH  14  15
BRANCH  14  23
HETATM   23  C   UNK A   1     -11.047  14.111  64.617  1.00  0.00    -0.371 C  
HETATM   24  S   UNK A   1     -12.315  12.808  64.489  1.00  0.00    -0.439 SA 
HETATM   25  H   UNK A   1     -13.067  12.810  63.320  1.00  0.00     0.000 H  
ENDBRANCH  14  23
ENDBRANCH  12  14
ENDBRANCH   9  10
ENDBRANCH   8   9
ENDBRANCH   2   8
TORSDOF 7
ENDMDL
MODEL      153
REMARK 921   NORMALIZED FREE ENERGY PREDICTED BY IDOCK:   -4.18 KCAL/MOL
REMARK 922        TOTAL FREE ENERGY PREDICTED BY IDOCK:   -6.46 KCAL/MOL
REMARK 923 INTER-LIGAND FREE ENERGY PREDICTED BY IDOCK:   -5.78 KCAL/MOL
REMARK 924 INTRA-LIGAND FREE ENERGY PREDICTED BY IDOCK:   -0.68 KCAL/MOL
REMARK 927      BINDING AFFINITY PREDICTED BY RF-SCORE:    0.00 PKD
ROOT
HETATM    1  N   UNK A   1      -8.011  18.275  65.856  1.00  0.00    -0.519 NA 
HETATM    2  C   UNK A   1      -9.118  19.009  66.537  1.00  0.00    -0.334 C  
HETATM    3  H2  UNK A   1      -8.200  18.172  64.859  1.00  0.00     0.000 HD 
HETATM    4  H1  UNK A   1      -7.097  18.701  66.011  1.00  0.00     0.000 HD 
HETATM    5  O   UNK A   1      -7.568  18.622  68.319  1.00  0.00    -0.266 OA 
HETATM    6  C   UNK A   1      -8.801  19.118  68.039  1.00  0.00    -0.313 C  
HETATM    7  O   UNK A   1      -9.558  19.564  68.887  1.00  0.00    -0.397 OA 
ENDROOT
BRANCH   2   8
HETATM    8  C   UNK A   1     -10.490  18.369  66.304  1.00  0.00    -0.421 C  
BRANCH   8   9
HETATM    9  C   UNK A   1     -10.439  16.923  65.800  1.00  0.00    -0.279 C  
BRANCH   9  10
HETATM   10  C   UNK A   1     -10.552  15.965  66.963  1.00  0.00    -0.306 C  
HETATM   11  O   UNK A   1     -10.945  16.320  68.070  1.00  0.00    -0.334 OA 
HETATM   12  N   UNK A   1     -10.211  14.669  66.676  1.00  0.00    -0.269 N  
HETATM   13  H   UNK A   1      -9.893  14.436  65.735  1.00  0.00     0.000 HD 
BRANCH  12  14
HETATM   14  C   UNK A   1     -10.289  13.612  67.679  1.00  0.00    -0.239 C  
BRANCH  14  15
HETATM   15  C   UNK A   1      -9.302  12.501  67.276  1.00  0.00    -0.190 C  
ATOM     16  H   GLY A   2     -10.397  12.160  65.528  1.00  0.00     0.000 HD 
ATOM     17  N   GLY A   2      -9.618  11.836  66.103  1.00  0.00    -0.227 N  
HETATM   18  O   UNK A   1      -8.265  12.283  67.898  1.00  0.00    -0.140 OA 
BRANCH  17  19
ATOM     19  CA  GLY A   2      -8.837  10.665  65.682  1.00  0.00    -0.186 C  
ATOM     20  C   GLY A   2      -8.972  10.342  64.195  1.00  0.00    -0.229 C  
ATOM     21  O   GLY A   2      -9.794  11.189  63.530  1.00  0.00    -0.281 OA 
ATOM     22  OXT GLY A   2      -8.433   9.389  63.653  1.00  0.00    -0.176 OA 
ENDBRANCH  17  19
ENDBRANCH  14  15
BRANCH  14  23
HETATM   23  C   UNK A   1     -11.680  12.966  67.778  1.00  0.00    -0.362 C  
HETATM   24  S   UNK A   1     -11.886  11.724  69.095  1.00  0.00    -0.313 SA 
HETATM   25  H   UNK A   1     -13.144  11.140  69.184  1.00  0.00     0.000 H  
ENDBRANCH  14  23
ENDBRANCH  12  14
ENDBRANCH   9  10
ENDBRANCH   8   9
ENDBRANCH   2   8
TORSDOF 7
ENDMDL
MODEL      154
REMARK 921   NORMALIZED FREE ENERGY PREDICTED BY IDOCK:   -4.18 KCAL/MOL
REMARK 922        TOTAL FREE ENERGY PREDICTED BY IDOCK:   -6.45 KCAL/MOL
REMARK 923 INTER-LIGAND FREE ENERGY PREDICTED BY IDOCK:   -6.64 KCAL/MOL
REMARK 924 INTRA-LIGAND FREE ENERGY PREDICTED BY IDOCK:    0.19 KCAL/MOL
REMARK 927      BINDING AFFINITY PREDICTED BY RF-SCORE:    0.00 PKD
ROOT
HETATM    1  N   UNK A   1     -11.426   6.748  68.878  1.00  0.00    -0.578 NA 
HETATM    2  C   UNK A   1     -10.642   7.856  69.497  1.00  0.00    -0.219 C  
HETATM    3  H2  UNK A   1     -11.105   6.560  67.928  1.00  0.00     0.000 HD 
HETATM    4  H1  UNK A   1     -11.422   5.897  69.439  1.00  0.00     0.000 HD 
HETATM    5  O   UNK A   1     -12.130   7.217  71.258  1.00  0.00    -0.312 OA 
HETATM    6  C   UNK A   1     -11.176   8.121  70.916  1.00  0.00    -0.266 C  
HETATM    7  O   UNK A   1     -10.822   9.036  71.642  1.00  0.00    -0.317 OA 
ENDROOT
BRANCH   2   8
HETATM    8  C   UNK A   1     -10.649   9.135  68.654  1.00  0.00    -0.207 C  
BRANCH   8   9
HETATM    9  C   UNK A   1     -10.425  10.424  69.452  1.00  0.00    -0.261 C  
BRANCH   9  10
HETATM   10  C   UNK A   1     -11.472  11.449  69.086  1.00  0.00    -0.299 C  
HETATM   11  O   UNK A   1     -12.484  11.156  68.455  1.00  0.00    -0.452 OA 
HETATM   12  N   UNK A   1     -11.219  12.718  69.536  1.00  0.00    -0.464 N  
HETATM   13  H   UNK A   1     -10.360  12.897  70.057  1.00  0.00     0.000 HD 
BRANCH  12  14
HETATM   14  C   UNK A   1     -12.143  13.821  69.292  1.00  0.00    -0.329 C  
BRANCH  14  15
HETATM   15  C   UNK A   1     -11.756  14.475  67.952  1.00  0.00    -0.351 C  
ATOM     16  H   GLY A   2      -9.997  15.204  68.813  1.00  0.00     0.000 HD 
ATOM     17  N   GLY A   2     -10.582  15.210  67.977  1.00  0.00    -0.253 N  
HETATM   18  O   UNK A   1     -12.392  14.284  66.918  1.00  0.00    -0.408 OA 
BRANCH  17  19
ATOM     19  CA  GLY A   2     -10.177  15.997  66.804  1.00  0.00    -0.274 C  
ATOM     20  C   GLY A   2      -8.667  16.198  66.697  1.00  0.00    -0.265 C  
ATOM     21  O   GLY A   2      -7.970  15.621  67.705  1.00  0.00    -0.133 OA 
ATOM     22  OXT GLY A   2      -8.127  16.852  65.817  1.00  0.00    -0.410 OA 
ENDBRANCH  17  19
ENDBRANCH  14  15
BRANCH  14  23
HETATM   23  C   UNK A   1     -12.080  14.919  70.365  1.00  0.00    -0.330 C  
HETATM   24  S   UNK A   1     -13.572  15.107  71.395  1.00  0.00    -0.508 SA 
HETATM   25  H   UNK A   1     -13.515  16.100  72.365  1.00  0.00     0.000 H  
ENDBRANCH  14  23
ENDBRANCH  12  14
ENDBRANCH   9  10
ENDBRANCH   8   9
ENDBRANCH   2   8
TORSDOF 7
ENDMDL
MODEL      155
REMARK 921   NORMALIZED FREE ENERGY PREDICTED BY IDOCK:   -4.17 KCAL/MOL
REMARK 922        TOTAL FREE ENERGY PREDICTED BY IDOCK:   -6.44 KCAL/MOL
REMARK 923 INTER-LIGAND FREE ENERGY PREDICTED BY IDOCK:   -6.30 KCAL/MOL
REMARK 924 INTRA-LIGAND FREE ENERGY PREDICTED BY IDOCK:   -0.15 KCAL/MOL
REMARK 927      BINDING AFFINITY PREDICTED BY RF-SCORE:    0.00 PKD
ROOT
HETATM    1  N   UNK A   1      -5.787  12.338  66.715  1.00  0.00    -0.493 NA 
HETATM    2  C   UNK A   1      -6.661  11.818  67.807  1.00  0.00    -0.082 C  
HETATM    3  H2  UNK A   1      -5.002  12.865  67.096  1.00  0.00     0.000 HD 
HETATM    4  H1  UNK A   1      -5.462  11.606  66.083  1.00  0.00     0.000 HD 
HETATM    5  O   UNK A   1      -7.716  10.965  65.837  1.00  0.00    -0.144 OA 
HETATM    6  C   UNK A   1      -7.843  11.052  67.186  1.00  0.00    -0.135 C  
HETATM    7  O   UNK A   1      -8.793  10.602  67.806  1.00  0.00    -0.131 OA 
ENDROOT
BRANCH   2   8
HETATM    8  C   UNK A   1      -7.149  12.917  68.756  1.00  0.00    -0.096 C  
BRANCH   8   9
HETATM    9  C   UNK A   1      -7.567  14.217  68.061  1.00  0.00    -0.142 C  
BRANCH   9  10
HETATM   10  C   UNK A   1      -9.057  14.424  68.201  1.00  0.00    -0.194 C  
HETATM   11  O   UNK A   1      -9.617  15.445  67.812  1.00  0.00    -0.209 OA 
HETATM   12  N   UNK A   1      -9.733  13.376  68.767  1.00  0.00    -0.418 N  
HETATM   13  H   UNK A   1      -9.210  12.553  69.069  1.00  0.00     0.000 HD 
BRANCH  12  14
HETATM   14  C   UNK A   1     -11.181  13.402  68.951  1.00  0.00    -0.276 C  
BRANCH  14  15
HETATM   15  C   UNK A   1     -11.835  12.948  67.632  1.00  0.00    -0.346 C  
ATOM     16  H   GLY A   2     -11.962  14.939  67.008  1.00  0.00     0.000 HD 
ATOM     17  N   GLY A   2     -12.212  13.975  66.783  1.00  0.00    -0.438 N  
HETATM   18  O   UNK A   1     -11.930  11.764  67.319  1.00  0.00    -0.618 OA 
BRANCH  17  19
ATOM     19  CA  GLY A   2     -12.971  13.682  65.559  1.00  0.00    -0.271 C  
ATOM     20  C   GLY A   2     -12.155  13.854  64.280  1.00  0.00    -0.440 C  
ATOM     21  O   GLY A   2     -10.880  14.253  64.499  1.00  0.00    -0.381 OA 
ATOM     22  OXT GLY A   2     -12.609  13.695  63.156  1.00  0.00    -0.792 OA 
ENDBRANCH  17  19
ENDBRANCH  14  15
BRANCH  14  23
HETATM   23  C   UNK A   1     -11.730  14.802  69.268  1.00  0.00    -0.316 C  
HETATM   24  S   UNK A   1     -12.766  14.927  70.762  1.00  0.00    -0.376 SA 
HETATM   25  H   UNK A   1     -13.263  16.193  71.049  1.00  0.00     0.000 H  
ENDBRANCH  14  23
ENDBRANCH  12  14
ENDBRANCH   9  10
ENDBRANCH   8   9
ENDBRANCH   2   8
TORSDOF 7
ENDMDL
MODEL      156
REMARK 921   NORMALIZED FREE ENERGY PREDICTED BY IDOCK:   -4.17 KCAL/MOL
REMARK 922        TOTAL FREE ENERGY PREDICTED BY IDOCK:   -6.44 KCAL/MOL
REMARK 923 INTER-LIGAND FREE ENERGY PREDICTED BY IDOCK:   -5.71 KCAL/MOL
REMARK 924 INTRA-LIGAND FREE ENERGY PREDICTED BY IDOCK:   -0.73 KCAL/MOL
REMARK 927      BINDING AFFINITY PREDICTED BY RF-SCORE:    0.00 PKD
ROOT
HETATM    1  N   UNK A   1     -11.029   7.920  67.817  1.00  0.00    -0.498 NA 
HETATM    2  C   UNK A   1     -10.070   8.058  66.681  1.00  0.00    -0.259 C  
HETATM    3  H2  UNK A   1     -11.979   8.142  67.521  1.00  0.00     0.000 HD 
HETATM    4  H1  UNK A   1     -10.990   7.002  68.259  1.00  0.00     0.000 HD 
HETATM    5  O   UNK A   1      -8.664   7.317  68.469  1.00  0.00    -0.124 OA 
HETATM    6  C   UNK A   1      -8.649   7.739  67.178  1.00  0.00    -0.128 C  
HETATM    7  O   UNK A   1      -7.628   7.869  66.522  1.00  0.00    -0.089 OA 
ENDROOT
BRANCH   2   8
HETATM    8  C   UNK A   1     -10.128   9.438  66.017  1.00  0.00    -0.302 C  
BRANCH   8   9
HETATM    9  C   UNK A   1      -9.555  10.577  66.866  1.00  0.00    -0.206 C  
BRANCH   9  10
HETATM   10  C   UNK A   1     -10.652  11.547  67.239  1.00  0.00    -0.228 C  
HETATM   11  O   UNK A   1     -11.755  11.172  67.629  1.00  0.00    -0.573 OA 
HETATM   12  N   UNK A   1     -10.310  12.869  67.137  1.00  0.00    -0.237 N  
HETATM   13  H   UNK A   1      -9.377  13.117  66.808  1.00  0.00     0.000 HD 
BRANCH  12  14
HETATM   14  C   UNK A   1     -11.245  13.935  67.485  1.00  0.00    -0.303 C  
BRANCH  14  15
HETATM   15  C   UNK A   1     -11.216  14.980  66.353  1.00  0.00    -0.310 C  
ATOM     16  H   GLY A   2      -9.816  16.104  67.425  1.00  0.00     0.000 HD 
ATOM     17  N   GLY A   2     -10.409  16.080  66.594  1.00  0.00    -0.293 N  
HETATM   18  O   UNK A   1     -11.791  14.806  65.282  1.00  0.00    -0.340 OA 
BRANCH  17  19
ATOM     19  CA  GLY A   2     -10.402  17.212  65.657  1.00  0.00    -0.183 C  
ATOM     20  C   GLY A   2     -10.678  18.557  66.324  1.00  0.00    -0.198 C  
ATOM     21  O   GLY A   2     -10.886  18.468  67.659  1.00  0.00    -0.412 OA 
ATOM     22  OXT GLY A   2     -10.752  19.616  65.717  1.00  0.00    -0.516 OA 
ENDBRANCH  17  19
ENDBRANCH  14  15
BRANCH  14  23
HETATM   23  C   UNK A   1     -10.878  14.668  68.785  1.00  0.00    -0.255 C  
HETATM   24  S   UNK A   1     -12.278  15.336  69.741  1.00  0.00    -0.259 SA 
HETATM   25  H   UNK A   1     -11.947  15.998  70.916  1.00  0.00     0.000 H  
ENDBRANCH  14  23
ENDBRANCH  12  14
ENDBRANCH   9  10
ENDBRANCH   8   9
ENDBRANCH   2   8
TORSDOF 7
ENDMDL
MODEL      157
REMARK 921   NORMALIZED FREE ENERGY PREDICTED BY IDOCK:   -4.16 KCAL/MOL
REMARK 922        TOTAL FREE ENERGY PREDICTED BY IDOCK:   -6.43 KCAL/MOL
REMARK 923 INTER-LIGAND FREE ENERGY PREDICTED BY IDOCK:   -5.73 KCAL/MOL
REMARK 924 INTRA-LIGAND FREE ENERGY PREDICTED BY IDOCK:   -0.69 KCAL/MOL
REMARK 927      BINDING AFFINITY PREDICTED BY RF-SCORE:    0.00 PKD
ROOT
HETATM    1  N   UNK A   1     -11.390   9.891  68.738  1.00  0.00    -0.481 NA 
HETATM    2  C   UNK A   1     -10.692   9.489  67.481  1.00  0.00    -0.245 C  
HETATM    3  H2  UNK A   1     -11.840  10.799  68.632  1.00  0.00     0.000 HD 
HETATM    4  H1  UNK A   1     -12.056   9.190  69.063  1.00  0.00     0.000 HD 
HETATM    5  O   UNK A   1     -10.311   7.613  68.916  1.00  0.00    -0.206 OA 
HETATM    6  C   UNK A   1     -10.009   8.127  67.696  1.00  0.00    -0.185 C  
HETATM    7  O   UNK A   1      -9.267   7.580  66.896  1.00  0.00    -0.136 OA 
ENDROOT
BRANCH   2   8
HETATM    8  C   UNK A   1      -9.691  10.542  66.993  1.00  0.00    -0.212 C  
BRANCH   8   9
HETATM    9  C   UNK A   1     -10.330  11.835  66.477  1.00  0.00    -0.258 C  
BRANCH   9  10
HETATM   10  C   UNK A   1      -9.741  13.026  67.195  1.00  0.00    -0.230 C  
HETATM   11  O   UNK A   1      -8.614  13.007  67.682  1.00  0.00    -0.165 OA 
HETATM   12  N   UNK A   1     -10.548  14.133  67.233  1.00  0.00    -0.275 N  
HETATM   13  H   UNK A   1     -11.474  14.086  66.808  1.00  0.00     0.000 HD 
BRANCH  12  14
HETATM   14  C   UNK A   1     -10.120  15.377  67.864  1.00  0.00    -0.226 C  
BRANCH  14  15
HETATM   15  C   UNK A   1     -10.672  15.393  69.302  1.00  0.00    -0.251 C  
ATOM     16  H   GLY A   2     -12.531  14.747  68.598  1.00  0.00     0.000 HD 
ATOM     17  N   GLY A   2     -12.013  15.067  69.417  1.00  0.00    -0.312 N  
HETATM   18  O   UNK A   1      -9.955  15.589  70.281  1.00  0.00    -0.226 OA 
BRANCH  17  19
ATOM     19  CA  GLY A   2     -12.694  15.182  70.714  1.00  0.00    -0.405 C  
ATOM     20  C   GLY A   2     -12.883  13.842  71.424  1.00  0.00    -0.361 C  
ATOM     21  O   GLY A   2     -12.397  12.787  70.729  1.00  0.00    -0.368 OA 
ATOM     22  OXT GLY A   2     -13.457  13.715  72.495  1.00  0.00    -0.527 OA 
ENDBRANCH  17  19
ENDBRANCH  14  15
BRANCH  14  23
HETATM   23  C   UNK A   1     -10.655  16.634  67.161  1.00  0.00    -0.264 C  
HETATM   24  S   UNK A   1     -10.188  18.225  67.917  1.00  0.00    -0.400 SA 
HETATM   25  H   UNK A   1     -10.672  19.361  67.282  1.00  0.00     0.000 H  
ENDBRANCH  14  23
ENDBRANCH  12  14
ENDBRANCH   9  10
ENDBRANCH   8   9
ENDBRANCH   2   8
TORSDOF 7
ENDMDL
MODEL      158
REMARK 921   NORMALIZED FREE ENERGY PREDICTED BY IDOCK:   -4.15 KCAL/MOL
REMARK 922        TOTAL FREE ENERGY PREDICTED BY IDOCK:   -6.42 KCAL/MOL
REMARK 923 INTER-LIGAND FREE ENERGY PREDICTED BY IDOCK:   -5.81 KCAL/MOL
REMARK 924 INTRA-LIGAND FREE ENERGY PREDICTED BY IDOCK:   -0.61 KCAL/MOL
REMARK 927      BINDING AFFINITY PREDICTED BY RF-SCORE:    0.00 PKD
ROOT
HETATM    1  N   UNK A   1     -10.529  18.059  67.540  1.00  0.00    -0.387 NA 
HETATM    2  C   UNK A   1      -9.097  17.817  67.195  1.00  0.00    -0.246 C  
HETATM    3  H2  UNK A   1     -10.883  17.332  68.160  1.00  0.00     0.000 HD 
HETATM    4  H1  UNK A   1     -10.691  18.986  67.934  1.00  0.00     0.000 HD 
HETATM    5  O   UNK A   1      -9.573  19.866  66.056  1.00  0.00    -0.403 OA 
HETATM    6  C   UNK A   1      -8.614  18.923  66.239  1.00  0.00    -0.257 C  
HETATM    7  O   UNK A   1      -7.526  18.948  65.687  1.00  0.00    -0.479 OA 
ENDROOT
BRANCH   2   8
HETATM    8  C   UNK A   1      -8.853  16.426  66.602  1.00  0.00    -0.283 C  
BRANCH   8   9
HETATM    9  C   UNK A   1      -9.805  16.045  65.464  1.00  0.00    -0.224 C  
BRANCH   9  10
HETATM   10  C   UNK A   1     -10.472  14.723  65.767  1.00  0.00    -0.334 C  
HETATM   11  O   UNK A   1     -11.572  14.652  66.308  1.00  0.00    -0.366 OA 
HETATM   12  N   UNK A   1      -9.769  13.618  65.365  1.00  0.00    -0.538 N  
HETATM   13  H   UNK A   1      -8.860  13.743  64.919  1.00  0.00     0.000 HD 
BRANCH  12  14
HETATM   14  C   UNK A   1     -10.284  12.266  65.558  1.00  0.00    -0.269 C  
BRANCH  14  15
HETATM   15  C   UNK A   1      -9.163  11.417  66.188  1.00  0.00    -0.210 C  
ATOM     16  H   GLY A   2     -10.339  11.124  67.891  1.00  0.00     0.000 HD 
ATOM     17  N   GLY A   2      -9.421  10.968  67.472  1.00  0.00    -0.163 N  
HETATM   18  O   UNK A   1      -8.158  11.086  65.563  1.00  0.00    -0.083 OA 
BRANCH  17  19
ATOM     19  CA  GLY A   2      -8.379  10.268  68.235  1.00  0.00    -0.116 C  
ATOM     20  C   GLY A   2      -8.860   9.744  69.587  1.00  0.00    -0.211 C  
ATOM     21  O   GLY A   2     -10.160  10.023  69.845  1.00  0.00    -0.235 OA 
ATOM     22  OXT GLY A   2      -8.141   9.166  70.388  1.00  0.00    -0.115 OA 
ENDBRANCH  17  19
ENDBRANCH  14  15
BRANCH  14  23
HETATM   23  C   UNK A   1     -10.691  11.575  64.247  1.00  0.00    -0.355 C  
HETATM   24  S   UNK A   1     -12.217  12.193  63.466  1.00  0.00    -0.533 SA 
HETATM   25  H   UNK A   1     -12.585  11.568  62.281  1.00  0.00     0.000 H  
ENDBRANCH  14  23
ENDBRANCH  12  14
ENDBRANCH   9  10
ENDBRANCH   8   9
ENDBRANCH   2   8
TORSDOF 7
ENDMDL
MODEL      159
REMARK 921   NORMALIZED FREE ENERGY PREDICTED BY IDOCK:   -4.14 KCAL/MOL
REMARK 922        TOTAL FREE ENERGY PREDICTED BY IDOCK:   -6.39 KCAL/MOL
REMARK 923 INTER-LIGAND FREE ENERGY PREDICTED BY IDOCK:   -5.67 KCAL/MOL
REMARK 924 INTRA-LIGAND FREE ENERGY PREDICTED BY IDOCK:   -0.72 KCAL/MOL
REMARK 927      BINDING AFFINITY PREDICTED BY RF-SCORE:    0.00 PKD
ROOT
HETATM    1  N   UNK A   1     -11.169  15.303  64.458  1.00  0.00    -0.667 NA 
HETATM    2  C   UNK A   1     -10.758  14.827  65.812  1.00  0.00    -0.326 C  
HETATM    3  H2  UNK A   1     -11.720  14.595  63.975  1.00  0.00     0.000 HD 
HETATM    4  H1  UNK A   1     -11.662  16.195  64.484  1.00  0.00     0.000 HD 
HETATM    5  O   UNK A   1      -9.854  17.040  65.736  1.00  0.00    -0.525 OA 
HETATM    6  C   UNK A   1      -9.909  15.915  66.494  1.00  0.00    -0.261 C  
HETATM    7  O   UNK A   1      -9.330  15.789  67.561  1.00  0.00    -0.207 OA 
ENDROOT
BRANCH   2   8
HETATM    8  C   UNK A   1     -10.017  13.487  65.774  1.00  0.00    -0.266 C  
BRANCH   8   9
HETATM    9  C   UNK A   1     -10.855  12.284  66.217  1.00  0.00    -0.313 C  
BRANCH   9  10
HETATM   10  C   UNK A   1     -10.652  12.026  67.692  1.00  0.00    -0.210 C  
HETATM   11  O   UNK A   1      -9.835  12.652  68.361  1.00  0.00    -0.226 OA 
HETATM   12  N   UNK A   1     -11.468  11.064  68.225  1.00  0.00    -0.298 N  
HETATM   13  H   UNK A   1     -12.129  10.580  67.617  1.00  0.00     0.000 HD 
BRANCH  12  14
HETATM   14  C   UNK A   1     -11.420  10.711  69.641  1.00  0.00    -0.291 C  
BRANCH  14  15
HETATM   15  C   UNK A   1     -10.448   9.527  69.802  1.00  0.00    -0.231 C  
ATOM     16  H   GLY A   2     -11.512   8.455  68.357  1.00  0.00     0.000 HD 
ATOM     17  N   GLY A   2     -10.753   8.413  69.038  1.00  0.00    -0.141 N  
HETATM   18  O   UNK A   1      -9.429   9.600  70.485  1.00  0.00    -0.256 OA 
BRANCH  17  19
ATOM     19  CA  GLY A   2      -9.987   7.170  69.204  1.00  0.00    -0.168 C  
ATOM     20  C   GLY A   2     -10.658   6.159  70.133  1.00  0.00    -0.259 C  
ATOM     21  O   GLY A   2     -11.836   6.591  70.644  1.00  0.00    -0.384 OA 
ATOM     22  OXT GLY A   2     -10.170   5.080  70.432  1.00  0.00    -0.251 OA 
ENDBRANCH  17  19
ENDBRANCH  14  15
BRANCH  14  23
HETATM   23  C   UNK A   1     -12.777  10.261  70.205  1.00  0.00    -0.026 C  
HETATM   24  S   UNK A   1     -12.820   9.929  71.996  1.00  0.00    -0.366 SA 
HETATM   25  H   UNK A   1     -14.047   9.522  72.506  1.00  0.00     0.000 H  
ENDBRANCH  14  23
ENDBRANCH  12  14
ENDBRANCH   9  10
ENDBRANCH   8   9
ENDBRANCH   2   8
TORSDOF 7
ENDMDL
MODEL      160
REMARK 921   NORMALIZED FREE ENERGY PREDICTED BY IDOCK:   -4.13 KCAL/MOL
REMARK 922        TOTAL FREE ENERGY PREDICTED BY IDOCK:   -6.39 KCAL/MOL
REMARK 923 INTER-LIGAND FREE ENERGY PREDICTED BY IDOCK:   -5.83 KCAL/MOL
REMARK 924 INTRA-LIGAND FREE ENERGY PREDICTED BY IDOCK:   -0.56 KCAL/MOL
REMARK 927      BINDING AFFINITY PREDICTED BY RF-SCORE:    0.00 PKD
ROOT
HETATM    1  N   UNK A   1     -11.999   7.756  73.005  1.00  0.00    -0.629 NA 
HETATM    2  C   UNK A   1     -11.873   7.143  71.649  1.00  0.00    -0.306 C  
HETATM    3  H2  UNK A   1     -12.451   8.668  72.952  1.00  0.00     0.000 HD 
HETATM    4  H1  UNK A   1     -12.478   7.150  73.671  1.00  0.00     0.000 HD 
HETATM    5  O   UNK A   1     -10.947   5.460  73.076  1.00  0.00    -0.252 OA 
HETATM    6  C   UNK A   1     -11.165   5.782  71.775  1.00  0.00    -0.211 C  
HETATM    7  O   UNK A   1     -10.812   5.084  70.837  1.00  0.00    -0.068 OA 
ENDROOT
BRANCH   2   8
HETATM    8  C   UNK A   1     -11.153   8.053  70.648  1.00  0.00    -0.266 C  
BRANCH   8   9
HETATM    9  C   UNK A   1     -10.898   9.476  71.154  1.00  0.00    -0.425 C  
BRANCH   9  10
HETATM   10  C   UNK A   1     -11.741  10.461  70.376  1.00  0.00    -0.331 C  
HETATM   11  O   UNK A   1     -12.968  10.423  70.384  1.00  0.00    -0.303 OA 
HETATM   12  N   UNK A   1     -11.031  11.411  69.691  1.00  0.00    -0.441 N  
HETATM   13  H   UNK A   1     -10.012  11.390  69.726  1.00  0.00     0.000 HD 
BRANCH  12  14
HETATM   14  C   UNK A   1     -11.693  12.453  68.912  1.00  0.00    -0.324 C  
BRANCH  14  15
HETATM   15  C   UNK A   1     -11.495  12.126  67.419  1.00  0.00    -0.345 C  
ATOM     16  H   GLY A   2     -10.272  10.511  67.932  1.00  0.00     0.000 HD 
ATOM     17  N   GLY A   2     -10.640  11.068  67.160  1.00  0.00    -0.236 N  
HETATM   18  O   UNK A   1     -12.121  12.700  66.531  1.00  0.00    -0.525 OA 
BRANCH  17  19
ATOM     19  CA  GLY A   2     -10.259  10.746  65.778  1.00  0.00    -0.257 C  
ATOM     20  C   GLY A   2      -8.763  10.491  65.601  1.00  0.00    -0.180 C  
ATOM     21  O   GLY A   2      -8.052  10.614  66.748  1.00  0.00    -0.123 OA 
ATOM     22  OXT GLY A   2      -8.237  10.244  64.526  1.00  0.00    -0.160 OA 
ENDBRANCH  17  19
ENDBRANCH  14  15
BRANCH  14  23
HETATM   23  C   UNK A   1     -11.109  13.855  69.147  1.00  0.00    -0.245 C  
HETATM   24  S   UNK A   1      -9.454  14.153  68.445  1.00  0.00    -0.205 SA 
HETATM   25  H   UNK A   1      -8.926  15.420  68.658  1.00  0.00     0.000 H  
ENDBRANCH  14  23
ENDBRANCH  12  14
ENDBRANCH   9  10
ENDBRANCH   8   9
ENDBRANCH   2   8
TORSDOF 7
ENDMDL
MODEL      161
REMARK 921   NORMALIZED FREE ENERGY PREDICTED BY IDOCK:   -4.13 KCAL/MOL
REMARK 922        TOTAL FREE ENERGY PREDICTED BY IDOCK:   -6.39 KCAL/MOL
REMARK 923 INTER-LIGAND FREE ENERGY PREDICTED BY IDOCK:   -5.66 KCAL/MOL
REMARK 924 INTRA-LIGAND FREE ENERGY PREDICTED BY IDOCK:   -0.73 KCAL/MOL
REMARK 927      BINDING AFFINITY PREDICTED BY RF-SCORE:    0.00 PKD
ROOT
HETATM    1  N   UNK A   1     -10.960   7.542  73.647  1.00  0.00    -0.516 NA 
HETATM    2  C   UNK A   1     -11.514   8.013  72.343  1.00  0.00    -0.389 C  
HETATM    3  H2  UNK A   1     -10.702   8.331  74.240  1.00  0.00     0.000 HD 
HETATM    4  H1  UNK A   1     -11.589   6.907  74.139  1.00  0.00     0.000 HD 
HETATM    5  O   UNK A   1     -11.683   5.634  72.158  1.00  0.00    -0.215 OA 
HETATM    6  C   UNK A   1     -11.866   6.793  71.474  1.00  0.00    -0.333 C  
HETATM    7  O   UNK A   1     -12.234   6.841  70.311  1.00  0.00    -0.281 OA 
ENDROOT
BRANCH   2   8
HETATM    8  C   UNK A   1     -10.570   8.968  71.605  1.00  0.00    -0.434 C  
BRANCH   8   9
HETATM    9  C   UNK A   1      -9.094   8.562  71.649  1.00  0.00    -0.296 C  
BRANCH   9  10
HETATM   10  C   UNK A   1      -8.330   9.264  70.551  1.00  0.00    -0.205 C  
HETATM   11  O   UNK A   1      -7.121   9.467  70.619  1.00  0.00    -0.111 OA 
HETATM   12  N   UNK A   1      -9.085   9.628  69.466  1.00  0.00    -0.184 N  
HETATM   13  H   UNK A   1     -10.086   9.430  69.469  1.00  0.00     0.000 HD 
BRANCH  12  14
HETATM   14  C   UNK A   1      -8.497  10.292  68.307  1.00  0.00    -0.121 C  
BRANCH  14  15
HETATM   15  C   UNK A   1      -8.973  11.757  68.307  1.00  0.00    -0.180 C  
ATOM     16  H   GLY A   2     -10.908  11.130  67.826  1.00  0.00     0.000 HD 
ATOM     17  N   GLY A   2     -10.302  11.939  67.961  1.00  0.00    -0.190 N  
HETATM   18  O   UNK A   1      -8.254  12.683  68.675  1.00  0.00    -0.104 OA 
BRANCH  17  19
ATOM     19  CA  GLY A   2     -10.842  13.295  67.788  1.00  0.00    -0.252 C  
ATOM     20  C   GLY A   2     -11.892  13.397  66.684  1.00  0.00    -0.395 C  
ATOM     21  O   GLY A   2     -12.136  12.221  66.057  1.00  0.00    -0.623 OA 
ATOM     22  OXT GLY A   2     -12.437  14.441  66.357  1.00  0.00    -0.389 OA 
ENDBRANCH  17  19
ENDBRANCH  14  15
BRANCH  14  23
HETATM   23  C   UNK A   1      -8.930   9.676  66.967  1.00  0.00    -0.134 C  
HETATM   24  S   UNK A   1     -10.143   8.320  67.073  1.00  0.00    -0.310 SA 
HETATM   25  H   UNK A   1     -10.534   7.764  65.861  1.00  0.00     0.000 H  
ENDBRANCH  14  23
ENDBRANCH  12  14
ENDBRANCH   9  10
ENDBRANCH   8   9
ENDBRANCH   2   8
TORSDOF 7
ENDMDL
MODEL      162
REMARK 921   NORMALIZED FREE ENERGY PREDICTED BY IDOCK:   -4.13 KCAL/MOL
REMARK 922        TOTAL FREE ENERGY PREDICTED BY IDOCK:   -6.38 KCAL/MOL
REMARK 923 INTER-LIGAND FREE ENERGY PREDICTED BY IDOCK:   -5.73 KCAL/MOL
REMARK 924 INTRA-LIGAND FREE ENERGY PREDICTED BY IDOCK:   -0.65 KCAL/MOL
REMARK 927      BINDING AFFINITY PREDICTED BY RF-SCORE:    0.00 PKD
ROOT
HETATM    1  N   UNK A   1     -12.625  14.010  63.070  1.00  0.00    -0.872 NA 
HETATM    2  C   UNK A   1     -11.719  13.649  64.200  1.00  0.00    -0.386 C  
HETATM    3  H2  UNK A   1     -12.215  14.744  62.493  1.00  0.00     0.000 HD 
HETATM    4  H1  UNK A   1     -12.892  13.206  62.502  1.00  0.00     0.000 HD 
HETATM    5  O   UNK A   1     -13.557  12.148  64.500  1.00  0.00    -0.477 OA 
HETATM    6  C   UNK A   1     -12.388  12.559  65.055  1.00  0.00    -0.453 C  
HETATM    7  O   UNK A   1     -11.954  12.130  66.112  1.00  0.00    -0.593 OA 
ENDROOT
BRANCH   2   8
HETATM    8  C   UNK A   1     -11.318  14.857  65.053  1.00  0.00    -0.398 C  
BRANCH   8   9
HETATM    9  C   UNK A   1      -9.808  15.027  65.244  1.00  0.00    -0.249 C  
BRANCH   9  10
HETATM   10  C   UNK A   1      -9.469  15.020  66.716  1.00  0.00    -0.246 C  
HETATM   11  O   UNK A   1     -10.215  14.530  67.559  1.00  0.00    -0.232 OA 
HETATM   12  N   UNK A   1      -8.256  15.575  67.030  1.00  0.00    -0.220 N  
HETATM   13  H   UNK A   1      -7.680  15.964  66.283  1.00  0.00     0.000 HD 
BRANCH  12  14
HETATM   14  C   UNK A   1      -7.764  15.624  68.403  1.00  0.00    -0.126 C  
BRANCH  14  15
HETATM   15  C   UNK A   1      -7.760  17.098  68.853  1.00  0.00    -0.230 C  
ATOM     16  H   GLY A   2      -5.934  17.393  67.880  1.00  0.00     0.000 HD 
ATOM     17  N   GLY A   2      -6.635  17.817  68.489  1.00  0.00    -0.205 N  
HETATM   18  O   UNK A   1      -8.723  17.617  69.412  1.00  0.00     0.181 OA 
BRANCH  17  19
ATOM     19  CA  GLY A   2      -6.445  19.191  68.976  1.00  0.00    -0.283 C  
ATOM     20  C   GLY A   2      -5.838  20.129  67.934  1.00  0.00    -0.214 C  
ATOM     21  O   GLY A   2      -5.576  19.527  66.750  1.00  0.00    -0.167 OA 
ATOM     22  OXT GLY A   2      -5.567  21.301  68.149  1.00  0.00    -0.316 OA 
ENDBRANCH  17  19
ENDBRANCH  14  15
BRANCH  14  23
HETATM   23  C   UNK A   1      -6.326  15.103  68.556  1.00  0.00    -0.092 C  
HETATM   24  S   UNK A   1      -5.903  14.412  70.188  1.00  0.00    -0.153 SA 
HETATM   25  H   UNK A   1      -4.603  13.941  70.326  1.00  0.00     0.000 H  
ENDBRANCH  14  23
ENDBRANCH  12  14
ENDBRANCH   9  10
ENDBRANCH   8   9
ENDBRANCH   2   8
TORSDOF 7
ENDMDL
MODEL      163
REMARK 921   NORMALIZED FREE ENERGY PREDICTED BY IDOCK:   -4.12 KCAL/MOL
REMARK 922        TOTAL FREE ENERGY PREDICTED BY IDOCK:   -6.37 KCAL/MOL
REMARK 923 INTER-LIGAND FREE ENERGY PREDICTED BY IDOCK:   -5.34 KCAL/MOL
REMARK 924 INTRA-LIGAND FREE ENERGY PREDICTED BY IDOCK:   -1.04 KCAL/MOL
REMARK 927      BINDING AFFINITY PREDICTED BY RF-SCORE:    0.00 PKD
ROOT
HETATM    1  N   UNK A   1     -11.614  12.755  67.983  1.00  0.00    -0.320 NA 
HETATM    2  C   UNK A   1     -10.583  13.325  67.067  1.00  0.00    -0.259 C  
HETATM    3  H2  UNK A   1     -11.185  12.154  68.686  1.00  0.00     0.000 HD 
HETATM    4  H1  UNK A   1     -12.195  13.470  68.421  1.00  0.00     0.000 HD 
HETATM    5  O   UNK A   1     -12.608  14.310  66.258  1.00  0.00    -0.416 OA 
HETATM    6  C   UNK A   1     -11.278  14.204  66.011  1.00  0.00    -0.319 C  
HETATM    7  O   UNK A   1     -10.725  14.720  65.053  1.00  0.00    -0.380 OA 
ENDROOT
BRANCH   2   8
HETATM    8  C   UNK A   1      -9.711  12.251  66.409  1.00  0.00    -0.243 C  
BRANCH   8   9
HETATM    9  C   UNK A   1     -10.464  10.978  66.010  1.00  0.00    -0.304 C  
BRANCH   9  10
HETATM   10  C   UNK A   1      -9.956   9.803  66.814  1.00  0.00    -0.218 C  
HETATM   11  O   UNK A   1     -10.126   8.641  66.456  1.00  0.00    -0.273 OA 
HETATM   12  N   UNK A   1      -9.271  10.137  67.952  1.00  0.00    -0.137 N  
HETATM   13  H   UNK A   1      -9.162  11.122  68.195  1.00  0.00     0.000 HD 
BRANCH  12  14
HETATM   14  C   UNK A   1      -8.692   9.123  68.828  1.00  0.00    -0.132 C  
BRANCH  14  15
HETATM   15  C   UNK A   1      -9.404   9.211  70.191  1.00  0.00    -0.209 C  
ATOM     16  H   GLY A   2     -11.176   8.537  69.310  1.00  0.00     0.000 HD 
ATOM     17  N   GLY A   2     -10.752   8.895  70.167  1.00  0.00    -0.221 N  
HETATM   18  O   UNK A   1      -8.802   9.452  71.234  1.00  0.00    -0.287 OA 
BRANCH  17  19
ATOM     19  CA  GLY A   2     -11.575   9.074  71.371  1.00  0.00    -0.326 C  
ATOM     20  C   GLY A   2     -12.523  10.269  71.290  1.00  0.00    -0.408 C  
ATOM     21  O   GLY A   2     -12.433  10.955  70.126  1.00  0.00    -0.314 OA 
ATOM     22  OXT GLY A   2     -13.266  10.611  72.198  1.00  0.00    -0.464 OA 
ENDBRANCH  17  19
ENDBRANCH  14  15
BRANCH  14  23
HETATM   23  C   UNK A   1      -7.191   9.327  69.089  1.00  0.00    -0.067 C  
HETATM   24  S   UNK A   1      -6.127   7.883  68.769  1.00  0.00    -0.040 SA 
HETATM   25  H   UNK A   1      -4.770   8.068  69.005  1.00  0.00     0.000 H  
ENDBRANCH  14  23
ENDBRANCH  12  14
ENDBRANCH   9  10
ENDBRANCH   8   9
ENDBRANCH   2   8
TORSDOF 7
ENDMDL
MODEL      164
REMARK 921   NORMALIZED FREE ENERGY PREDICTED BY IDOCK:   -4.12 KCAL/MOL
REMARK 922        TOTAL FREE ENERGY PREDICTED BY IDOCK:   -6.37 KCAL/MOL
REMARK 923 INTER-LIGAND FREE ENERGY PREDICTED BY IDOCK:   -5.68 KCAL/MOL
REMARK 924 INTRA-LIGAND FREE ENERGY PREDICTED BY IDOCK:   -0.69 KCAL/MOL
REMARK 927      BINDING AFFINITY PREDICTED BY RF-SCORE:    0.00 PKD
ROOT
HETATM    1  N   UNK A   1     -10.807  18.170  67.650  1.00  0.00    -0.334 NA 
HETATM    2  C   UNK A   1      -9.379  17.984  67.255  1.00  0.00    -0.256 C  
HETATM    3  H2  UNK A   1     -11.111  17.428  68.280  1.00  0.00     0.000 HD 
HETATM    4  H1  UNK A   1     -10.990  19.088  68.054  1.00  0.00     0.000 HD 
HETATM    5  O   UNK A   1      -9.972  20.017  66.142  1.00  0.00    -0.445 OA 
HETATM    6  C   UNK A   1      -8.972  19.110  66.289  1.00  0.00    -0.309 C  
HETATM    7  O   UNK A   1      -7.905  19.179  65.699  1.00  0.00    -0.451 OA 
ENDROOT
BRANCH   2   8
HETATM    8  C   UNK A   1      -9.103  16.605  66.649  1.00  0.00    -0.277 C  
BRANCH   8   9
HETATM    9  C   UNK A   1     -10.167  16.123  65.657  1.00  0.00    -0.390 C  
BRANCH   9  10
HETATM   10  C   UNK A   1     -10.611  14.723  66.014  1.00  0.00    -0.312 C  
HETATM   11  O   UNK A   1     -11.551  14.507  66.774  1.00  0.00    -0.357 OA 
HETATM   12  N   UNK A   1      -9.905  13.721  65.402  1.00  0.00    -0.536 N  
HETATM   13  H   UNK A   1      -9.135  13.966  64.779  1.00  0.00     0.000 HD 
BRANCH  12  14
HETATM   14  C   UNK A   1     -10.223  12.313  65.617  1.00  0.00    -0.261 C  
BRANCH  14  15
HETATM   15  C   UNK A   1      -8.944  11.606  66.103  1.00  0.00    -0.178 C  
ATOM     16  H   GLY A   2      -8.695  13.067  67.578  1.00  0.00     0.000 HD 
ATOM     17  N   GLY A   2      -8.278  12.247  67.135  1.00  0.00    -0.180 N  
HETATM   18  O   UNK A   1      -8.592  10.511  65.671  1.00  0.00    -0.163 OA 
BRANCH  17  19
ATOM     19  CA  GLY A   2      -6.973  11.752  67.594  1.00  0.00    -0.103 C  
ATOM     20  C   GLY A   2      -6.283  12.682  68.590  1.00  0.00    -0.070 C  
ATOM     21  O   GLY A   2      -6.993  13.801  68.868  1.00  0.00    -0.104 OA 
ATOM     22  OXT GLY A   2      -5.177  12.472  69.064  1.00  0.00    -0.065 OA 
ENDBRANCH  17  19
ENDBRANCH  14  15
BRANCH  14  23
HETATM   23  C   UNK A   1     -10.681  11.589  64.341  1.00  0.00    -0.344 C  
HETATM   24  S   UNK A   1     -12.221  12.208  63.588  1.00  0.00    -0.549 SA 
HETATM   25  H   UNK A   1     -12.636  11.554  62.435  1.00  0.00     0.000 H  
ENDBRANCH  14  23
ENDBRANCH  12  14
ENDBRANCH   9  10
ENDBRANCH   8   9
ENDBRANCH   2   8
TORSDOF 7
ENDMDL
MODEL      165
REMARK 921   NORMALIZED FREE ENERGY PREDICTED BY IDOCK:   -4.12 KCAL/MOL
REMARK 922        TOTAL FREE ENERGY PREDICTED BY IDOCK:   -6.37 KCAL/MOL
REMARK 923 INTER-LIGAND FREE ENERGY PREDICTED BY IDOCK:   -5.83 KCAL/MOL
REMARK 924 INTRA-LIGAND FREE ENERGY PREDICTED BY IDOCK:   -0.54 KCAL/MOL
REMARK 927      BINDING AFFINITY PREDICTED BY RF-SCORE:    0.00 PKD
ROOT
HETATM    1  N   UNK A   1      -9.848  13.542  65.378  1.00  0.00    -0.518 NA 
HETATM    2  C   UNK A   1     -10.860  12.457  65.211  1.00  0.00    -0.289 C  
HETATM    3  H2  UNK A   1      -8.951  13.162  65.678  1.00  0.00     0.000 HD 
HETATM    4  H1  UNK A   1      -9.740  14.116  64.542  1.00  0.00     0.000 HD 
HETATM    5  O   UNK A   1     -12.077  14.414  64.571  1.00  0.00    -0.445 OA 
HETATM    6  C   UNK A   1     -12.201  13.079  64.783  1.00  0.00    -0.435 C  
HETATM    7  O   UNK A   1     -13.254  12.471  64.673  1.00  0.00    -0.848 OA 
ENDROOT
BRANCH   2   8
HETATM    8  C   UNK A   1     -11.022  11.595  66.467  1.00  0.00    -0.349 C  
BRANCH   8   9
HETATM    9  C   UNK A   1      -9.729  10.936  66.957  1.00  0.00    -0.203 C  
BRANCH   9  10
HETATM   10  C   UNK A   1      -9.596   9.552  66.364  1.00  0.00    -0.213 C  
HETATM   11  O   UNK A   1      -9.597   9.355  65.152  1.00  0.00    -0.256 OA 
HETATM   12  N   UNK A   1      -9.447   8.545  67.280  1.00  0.00    -0.150 N  
HETATM   13  H   UNK A   1      -9.453   8.774  68.275  1.00  0.00     0.000 HD 
BRANCH  12  14
HETATM   14  C   UNK A   1      -9.279   7.153  66.875  1.00  0.00    -0.148 C  
BRANCH  14  15
HETATM   15  C   UNK A   1      -9.946   6.264  67.941  1.00  0.00    -0.133 C  
ATOM     16  H   GLY A   2     -10.858   7.949  68.777  1.00  0.00     0.000 HD 
ATOM     17  N   GLY A   2     -10.700   6.946  68.882  1.00  0.00    -0.225 N  
HETATM   18  O   UNK A   1      -9.889   5.037  67.905  1.00  0.00    -0.147 OA 
BRANCH  17  19
ATOM     19  CA  GLY A   2     -11.272   6.231  70.031  1.00  0.00    -0.412 C  
ATOM     20  C   GLY A   2     -11.904   7.154  71.071  1.00  0.00    -0.333 C  
ATOM     21  O   GLY A   2     -11.819   8.468  70.754  1.00  0.00    -0.262 OA 
ATOM     22  OXT GLY A   2     -12.402   6.762  72.116  1.00  0.00    -0.283 OA 
ENDBRANCH  17  19
ENDBRANCH  14  15
BRANCH  14  23
HETATM   23  C   UNK A   1      -7.808   6.718  66.780  1.00  0.00    -0.107 C  
HETATM   24  S   UNK A   1      -7.237   6.206  65.127  1.00  0.00    -0.073 SA 
HETATM   25  H   UNK A   1      -5.907   5.813  65.042  1.00  0.00     0.000 H  
ENDBRANCH  14  23
ENDBRANCH  12  14
ENDBRANCH   9  10
ENDBRANCH   8   9
ENDBRANCH   2   8
TORSDOF 7
ENDMDL
MODEL      166
REMARK 921   NORMALIZED FREE ENERGY PREDICTED BY IDOCK:   -4.10 KCAL/MOL
REMARK 922        TOTAL FREE ENERGY PREDICTED BY IDOCK:   -6.34 KCAL/MOL
REMARK 923 INTER-LIGAND FREE ENERGY PREDICTED BY IDOCK:   -5.70 KCAL/MOL
REMARK 924 INTRA-LIGAND FREE ENERGY PREDICTED BY IDOCK:   -0.65 KCAL/MOL
REMARK 927      BINDING AFFINITY PREDICTED BY RF-SCORE:    0.00 PKD
ROOT
HETATM    1  N   UNK A   1     -11.122   6.307  66.532  1.00  0.00    -0.723 NA 
HETATM    2  C   UNK A   1      -9.744   6.472  67.083  1.00  0.00    -0.143 C  
HETATM    3  H2  UNK A   1     -11.578   7.211  66.413  1.00  0.00     0.000 HD 
HETATM    4  H1  UNK A   1     -11.141   5.772  65.664  1.00  0.00     0.000 HD 
HETATM    5  O   UNK A   1      -9.913   4.104  66.787  1.00  0.00    -0.218 OA 
HETATM    6  C   UNK A   1      -9.106   5.084  67.268  1.00  0.00    -0.114 C  
HETATM    7  O   UNK A   1      -8.029   4.871  67.803  1.00  0.00    -0.093 OA 
ENDROOT
BRANCH   2   8
HETATM    8  C   UNK A   1      -9.716   7.275  68.387  1.00  0.00    -0.151 C  
BRANCH   8   9
HETATM    9  C   UNK A   1      -8.739   8.454  68.385  1.00  0.00    -0.136 C  
BRANCH   9  10
HETATM   10  C   UNK A   1      -9.457   9.723  68.782  1.00  0.00    -0.154 C  
HETATM   11  O   UNK A   1     -10.202   9.778  69.756  1.00  0.00    -0.209 OA 
HETATM   12  N   UNK A   1      -9.190  10.808  67.989  1.00  0.00    -0.147 N  
HETATM   13  H   UNK A   1      -8.560  10.698  67.194  1.00  0.00     0.000 HD 
BRANCH  12  14
HETATM   14  C   UNK A   1      -9.781  12.116  68.250  1.00  0.00    -0.216 C  
BRANCH  14  15
HETATM   15  C   UNK A   1     -11.018  12.267  67.344  1.00  0.00    -0.253 C  
ATOM     16  H   GLY A   2      -9.775  12.629  65.703  1.00  0.00     0.000 HD 
ATOM     17  N   GLY A   2     -10.742  12.599  66.028  1.00  0.00    -0.264 N  
HETATM   18  O   UNK A   1     -12.156  12.021  67.737  1.00  0.00    -0.537 OA 
BRANCH  17  19
ATOM     19  CA  GLY A   2     -11.837  12.908  65.098  1.00  0.00    -0.380 C  
ATOM     20  C   GLY A   2     -11.826  14.352  64.600  1.00  0.00    -0.451 C  
ATOM     21  O   GLY A   2     -10.813  15.093  65.109  1.00  0.00    -0.365 OA 
ATOM     22  OXT GLY A   2     -12.669  14.820  63.849  1.00  0.00    -0.794 OA 
ENDBRANCH  17  19
ENDBRANCH  14  15
BRANCH  14  23
HETATM   23  C   UNK A   1      -8.840  13.287  67.926  1.00  0.00    -0.192 C  
HETATM   24  S   UNK A   1      -7.092  12.847  67.655  1.00  0.00    -0.157 SA 
HETATM   25  H   UNK A   1      -6.241  13.906  67.362  1.00  0.00     0.000 H  
ENDBRANCH  14  23
ENDBRANCH  12  14
ENDBRANCH   9  10
ENDBRANCH   8   9
ENDBRANCH   2   8
TORSDOF 7
ENDMDL
MODEL      167
REMARK 921   NORMALIZED FREE ENERGY PREDICTED BY IDOCK:   -4.09 KCAL/MOL
REMARK 922        TOTAL FREE ENERGY PREDICTED BY IDOCK:   -6.33 KCAL/MOL
REMARK 923 INTER-LIGAND FREE ENERGY PREDICTED BY IDOCK:   -5.57 KCAL/MOL
REMARK 924 INTRA-LIGAND FREE ENERGY PREDICTED BY IDOCK:   -0.75 KCAL/MOL
REMARK 927      BINDING AFFINITY PREDICTED BY RF-SCORE:    0.00 PKD
ROOT
HETATM    1  N   UNK A   1     -10.755  13.580  65.639  1.00  0.00    -0.277 NA 
HETATM    2  C   UNK A   1     -11.120  12.718  64.476  1.00  0.00    -0.330 C  
HETATM    3  H2  UNK A   1      -9.749  13.561  65.805  1.00  0.00     0.000 HD 
HETATM    4  H1  UNK A   1     -11.091  14.538  65.544  1.00  0.00     0.000 HD 
HETATM    5  O   UNK A   1     -13.229  13.636  65.134  1.00  0.00    -0.739 OA 
HETATM    6  C   UNK A   1     -12.646  12.757  64.279  1.00  0.00    -0.324 C  
HETATM    7  O   UNK A   1     -13.270  12.072  63.484  1.00  0.00    -0.724 OA 
ENDROOT
BRANCH   2   8
HETATM    8  C   UNK A   1     -10.615  11.279  64.619  1.00  0.00    -0.392 C  
BRANCH   8   9
HETATM    9  C   UNK A   1      -9.662  11.054  65.797  1.00  0.00    -0.268 C  
BRANCH   9  10
HETATM   10  C   UNK A   1     -10.409  10.441  66.959  1.00  0.00    -0.240 C  
HETATM   11  O   UNK A   1     -11.503  10.857  67.328  1.00  0.00    -0.458 OA 
HETATM   12  N   UNK A   1      -9.785   9.371  67.544  1.00  0.00    -0.151 N  
HETATM   13  H   UNK A   1      -8.876   9.071  67.189  1.00  0.00     0.000 HD 
BRANCH  12  14
HETATM   14  C   UNK A   1     -10.383   8.648  68.661  1.00  0.00    -0.193 C  
BRANCH  14  15
HETATM   15  C   UNK A   1      -9.575   8.981  69.930  1.00  0.00    -0.183 C  
ATOM     16  H   GLY A   2      -7.864   8.153  69.059  1.00  0.00     0.000 HD 
ATOM     17  N   GLY A   2      -8.256   8.557  69.910  1.00  0.00    -0.118 N  
HETATM   18  O   UNK A   1     -10.039   9.651  70.849  1.00  0.00    -0.279 OA 
BRANCH  17  19
ATOM     19  CA  GLY A   2      -7.419   8.689  71.111  1.00  0.00    -0.095 C  
ATOM     20  C   GLY A   2      -7.359   7.418  71.955  1.00  0.00    -0.079 C  
ATOM     21  O   GLY A   2      -8.092   6.397  71.451  1.00  0.00    -0.111 OA 
ATOM     22  OXT GLY A   2      -6.748   7.329  73.010  1.00  0.00    -0.064 OA 
ENDBRANCH  17  19
ENDBRANCH  14  15
BRANCH  14  23
HETATM   23  C   UNK A   1     -10.345   7.121  68.490  1.00  0.00    -0.183 C  
HETATM   24  S   UNK A   1     -11.233   6.159  69.758  1.00  0.00    -0.365 SA 
HETATM   25  H   UNK A   1     -11.198   4.778  69.604  1.00  0.00     0.000 H  
ENDBRANCH  14  23
ENDBRANCH  12  14
ENDBRANCH   9  10
ENDBRANCH   8   9
ENDBRANCH   2   8
TORSDOF 7
ENDMDL
MODEL      168
REMARK 921   NORMALIZED FREE ENERGY PREDICTED BY IDOCK:   -4.08 KCAL/MOL
REMARK 922        TOTAL FREE ENERGY PREDICTED BY IDOCK:   -6.32 KCAL/MOL
REMARK 923 INTER-LIGAND FREE ENERGY PREDICTED BY IDOCK:   -5.49 KCAL/MOL
REMARK 924 INTRA-LIGAND FREE ENERGY PREDICTED BY IDOCK:   -0.83 KCAL/MOL
REMARK 927      BINDING AFFINITY PREDICTED BY RF-SCORE:    0.00 PKD
ROOT
HETATM    1  N   UNK A   1      -7.975  15.027  69.718  1.00  0.00    -0.396 NA 
HETATM    2  C   UNK A   1      -8.607  15.564  68.477  1.00  0.00    -0.176 C  
HETATM    3  H2  UNK A   1      -6.963  14.956  69.611  1.00  0.00     0.000 HD 
HETATM    4  H1  UNK A   1      -8.216  15.564  70.551  1.00  0.00     0.000 HD 
HETATM    5  O   UNK A   1     -10.477  15.291  69.945  1.00  0.00    -0.267 OA 
HETATM    6  C   UNK A   1     -10.132  15.631  68.676  1.00  0.00    -0.210 C  
HETATM    7  O   UNK A   1     -10.942  15.920  67.810  1.00  0.00    -0.321 OA 
ENDROOT
BRANCH   2   8
HETATM    8  C   UNK A   1      -8.245  14.757  67.227  1.00  0.00    -0.237 C  
BRANCH   8   9
HETATM    9  C   UNK A   1      -7.819  13.312  67.504  1.00  0.00    -0.173 C  
BRANCH   9  10
HETATM   10  C   UNK A   1      -8.948  12.365  67.170  1.00  0.00    -0.195 C  
HETATM   11  O   UNK A   1      -9.630  12.490  66.157  1.00  0.00    -0.249 OA 
HETATM   12  N   UNK A   1      -9.128  11.345  68.066  1.00  0.00    -0.164 N  
HETATM   13  H   UNK A   1      -8.526  11.294  68.888  1.00  0.00     0.000 HD 
BRANCH  12  14
HETATM   14  C   UNK A   1     -10.157  10.327  67.878  1.00  0.00    -0.170 C  
BRANCH  14  15
HETATM   15  C   UNK A   1     -11.371  10.715  68.743  1.00  0.00    -0.277 C  
ATOM     16  H   GLY A   2     -10.324  10.158  70.465  1.00  0.00     0.000 HD 
ATOM     17  N   GLY A   2     -11.223  10.473  70.099  1.00  0.00    -0.301 N  
HETATM   18  O   UNK A   1     -12.358  11.280  68.278  1.00  0.00    -0.542 OA 
BRANCH  17  19
ATOM     19  CA  GLY A   2     -12.357  10.667  71.013  1.00  0.00    -0.403 C  
ATOM     20  C   GLY A   2     -12.894   9.365  71.605  1.00  0.00    -0.378 C  
ATOM     21  O   GLY A   2     -12.235   8.262  71.177  1.00  0.00    -0.296 OA 
ATOM     22  OXT GLY A   2     -13.855   9.305  72.358  1.00  0.00    -0.470 OA 
ENDBRANCH  17  19
ENDBRANCH  14  15
BRANCH  14  23
HETATM   23  C   UNK A   1      -9.717   8.924  68.321  1.00  0.00    -0.157 C  
HETATM   24  S   UNK A   1      -7.969   8.760  68.812  1.00  0.00    -0.107 SA 
HETATM   25  H   UNK A   1      -7.571   7.490  69.213  1.00  0.00     0.000 H  
ENDBRANCH  14  23
ENDBRANCH  12  14
ENDBRANCH   9  10
ENDBRANCH   8   9
ENDBRANCH   2   8
TORSDOF 7
ENDMDL
MODEL      169
REMARK 921   NORMALIZED FREE ENERGY PREDICTED BY IDOCK:   -4.07 KCAL/MOL
REMARK 922        TOTAL FREE ENERGY PREDICTED BY IDOCK:   -6.30 KCAL/MOL
REMARK 923 INTER-LIGAND FREE ENERGY PREDICTED BY IDOCK:   -5.61 KCAL/MOL
REMARK 924 INTRA-LIGAND FREE ENERGY PREDICTED BY IDOCK:   -0.68 KCAL/MOL
REMARK 927      BINDING AFFINITY PREDICTED BY RF-SCORE:    0.00 PKD
ROOT
HETATM    1  N   UNK A   1     -12.768  10.284  70.121  1.00  0.00    -0.557 NA 
HETATM    2  C   UNK A   1     -11.690   9.385  70.629  1.00  0.00    -0.240 C  
HETATM    3  H2  UNK A   1     -12.530  10.657  69.202  1.00  0.00     0.000 HD 
HETATM    4  H1  UNK A   1     -13.684   9.836  70.106  1.00  0.00     0.000 HD 
HETATM    5  O   UNK A   1     -13.330   9.274  72.367  1.00  0.00    -0.445 OA 
HETATM    6  C   UNK A   1     -12.080   8.868  72.025  1.00  0.00    -0.371 C  
HETATM    7  O   UNK A   1     -11.362   8.203  72.754  1.00  0.00    -0.397 OA 
ENDROOT
BRANCH   2   8
HETATM    8  C   UNK A   1     -10.314  10.059  70.651  1.00  0.00    -0.153 C  
BRANCH   8   9
HETATM    9  C   UNK A   1      -9.449   9.779  69.418  1.00  0.00    -0.212 C  
BRANCH   9  10
HETATM   10  C   UNK A   1      -9.743  10.794  68.338  1.00  0.00    -0.174 C  
HETATM   11  O   UNK A   1     -10.107  10.467  67.212  1.00  0.00    -0.183 OA 
HETATM   12  N   UNK A   1      -9.601  12.101  68.722  1.00  0.00    -0.405 N  
HETATM   13  H   UNK A   1      -9.298  12.309  69.674  1.00  0.00     0.000 HD 
BRANCH  12  14
HETATM   14  C   UNK A   1      -9.872  13.206  67.808  1.00  0.00    -0.228 C  
BRANCH  14  15
HETATM   15  C   UNK A   1      -8.779  14.271  68.014  1.00  0.00    -0.177 C  
ATOM     16  H   GLY A   2     -10.181  15.781  67.662  1.00  0.00     0.000 HD 
ATOM     17  N   GLY A   2      -9.194  15.579  67.824  1.00  0.00    -0.180 N  
HETATM   18  O   UNK A   1      -7.650  13.988  68.408  1.00  0.00    -0.112 OA 
BRANCH  17  19
ATOM     19  CA  GLY A   2      -8.217  16.677  67.853  1.00  0.00    -0.180 C  
ATOM     20  C   GLY A   2      -8.137  17.457  66.543  1.00  0.00    -0.277 C  
ATOM     21  O   GLY A   2      -8.975  16.995  65.584  1.00  0.00    -0.492 OA 
ATOM     22  OXT GLY A   2      -7.364  18.383  66.348  1.00  0.00    -0.221 OA 
ENDBRANCH  17  19
ENDBRANCH  14  15
BRANCH  14  23
HETATM   23  C   UNK A   1     -11.224  13.892  68.063  1.00  0.00    -0.271 C  
HETATM   24  S   UNK A   1     -11.887  13.733  69.752  1.00  0.00    -0.335 SA 
HETATM   25  H   UNK A   1     -13.110  14.353  69.983  1.00  0.00     0.000 H  
ENDBRANCH  14  23
ENDBRANCH  12  14
ENDBRANCH   9  10
ENDBRANCH   8   9
ENDBRANCH   2   8
TORSDOF 7
ENDMDL
MODEL      170
REMARK 921   NORMALIZED FREE ENERGY PREDICTED BY IDOCK:   -4.06 KCAL/MOL
REMARK 922        TOTAL FREE ENERGY PREDICTED BY IDOCK:   -6.28 KCAL/MOL
REMARK 923 INTER-LIGAND FREE ENERGY PREDICTED BY IDOCK:   -5.84 KCAL/MOL
REMARK 924 INTRA-LIGAND FREE ENERGY PREDICTED BY IDOCK:   -0.44 KCAL/MOL
REMARK 927      BINDING AFFINITY PREDICTED BY RF-SCORE:    0.00 PKD
ROOT
HETATM    1  N   UNK A   1     -12.594  13.939  62.917  1.00  0.00    -0.788 NA 
HETATM    2  C   UNK A   1     -11.693  13.492  64.020  1.00  0.00    -0.395 C  
HETATM    3  H2  UNK A   1     -12.168  14.695  62.382  1.00  0.00     0.000 HD 
HETATM    4  H1  UNK A   1     -12.881  13.175  62.305  1.00  0.00     0.000 HD 
HETATM    5  O   UNK A   1     -13.565  12.019  64.240  1.00  0.00    -0.527 OA 
HETATM    6  C   UNK A   1     -12.386  12.370  64.814  1.00  0.00    -0.423 C  
HETATM    7  O   UNK A   1     -11.959  11.870  65.843  1.00  0.00    -0.480 OA 
ENDROOT
BRANCH   2   8
HETATM    8  C   UNK A   1     -11.263  14.639  64.940  1.00  0.00    -0.400 C  
BRANCH   8   9
HETATM    9  C   UNK A   1      -9.752  14.887  64.983  1.00  0.00     0.107 C  
BRANCH   9  10
HETATM   10  C   UNK A   1      -9.229  14.658  66.382  1.00  0.00    -0.249 C  
HETATM   11  O   UNK A   1      -9.862  14.029  67.224  1.00  0.00    -0.235 OA 
HETATM   12  N   UNK A   1      -7.985  15.180  66.624  1.00  0.00    -0.313 N  
HETATM   13  H   UNK A   1      -7.509  15.692  65.881  1.00  0.00     0.000 HD 
BRANCH  12  14
HETATM   14  C   UNK A   1      -7.323  15.026  67.915  1.00  0.00    -0.143 C  
BRANCH  14  15
HETATM   15  C   UNK A   1      -7.454  16.358  68.678  1.00  0.00    -0.194 C  
ATOM     16  H   GLY A   2      -9.125  16.856  67.526  1.00  0.00     0.000 HD 
ATOM     17  N   GLY A   2      -8.472  17.187  68.236  1.00  0.00    -0.228 N  
HETATM   18  O   UNK A   1      -6.768  16.623  69.662  1.00  0.00    -0.223 OA 
BRANCH  17  19
ATOM     19  CA  GLY A   2      -8.613  18.542  68.786  1.00  0.00    -0.238 C  
ATOM     20  C   GLY A   2     -10.036  19.091  68.697  1.00  0.00    -0.418 C  
ATOM     21  O   GLY A   2     -10.913  18.235  68.121  1.00  0.00    -0.186 OA 
ATOM     22  OXT GLY A   2     -10.357  20.211  69.065  1.00  0.00    -0.350 OA 
ENDBRANCH  17  19
ENDBRANCH  14  15
BRANCH  14  23
HETATM   23  C   UNK A   1      -5.822  14.718  67.798  1.00  0.00    -0.088 C  
HETATM   24  S   UNK A   1      -5.138  13.612  69.074  1.00  0.00    -0.071 SA 
HETATM   25  H   UNK A   1      -3.781  13.334  68.969  1.00  0.00     0.000 H  
ENDBRANCH  14  23
ENDBRANCH  12  14
ENDBRANCH   9  10
ENDBRANCH   8   9
ENDBRANCH   2   8
TORSDOF 7
ENDMDL
MODEL      171
REMARK 921   NORMALIZED FREE ENERGY PREDICTED BY IDOCK:   -4.06 KCAL/MOL
REMARK 922        TOTAL FREE ENERGY PREDICTED BY IDOCK:   -6.28 KCAL/MOL
REMARK 923 INTER-LIGAND FREE ENERGY PREDICTED BY IDOCK:   -5.70 KCAL/MOL
REMARK 924 INTRA-LIGAND FREE ENERGY PREDICTED BY IDOCK:   -0.58 KCAL/MOL
REMARK 927      BINDING AFFINITY PREDICTED BY RF-SCORE:    0.00 PKD
ROOT
HETATM    1  N   UNK A   1     -10.172  13.909  64.731  1.00  0.00    -0.583 NA 
HETATM    2  C   UNK A   1     -10.851  12.730  64.114  1.00  0.00    -0.406 C  
HETATM    3  H2  UNK A   1      -9.189  13.710  64.911  1.00  0.00     0.000 HD 
HETATM    4  H1  UNK A   1     -10.277  14.760  64.179  1.00  0.00     0.000 HD 
HETATM    5  O   UNK A   1     -12.600  14.361  64.196  1.00  0.00    -0.692 OA 
HETATM    6  C   UNK A   1     -12.335  13.066  63.883  1.00  0.00    -0.375 C  
HETATM    7  O   UNK A   1     -13.182  12.277  63.498  1.00  0.00    -0.716 OA 
ENDROOT
BRANCH   2   8
HETATM    8  C   UNK A   1     -10.694  11.452  64.943  1.00  0.00    -0.350 C  
BRANCH   8   9
HETATM    9  C   UNK A   1     -11.222  11.555  66.377  1.00  0.00    -0.307 C  
BRANCH   9  10
HETATM   10  C   UNK A   1     -10.325  10.783  67.317  1.00  0.00    -0.220 C  
HETATM   11  O   UNK A   1      -9.102  10.880  67.284  1.00  0.00    -0.141 OA 
HETATM   12  N   UNK A   1     -10.984   9.994  68.223  1.00  0.00    -0.381 N  
HETATM   13  H   UNK A   1     -12.003   9.957  68.201  1.00  0.00     0.000 HD 
BRANCH  12  14
HETATM   14  C   UNK A   1     -10.268   9.204  69.219  1.00  0.00    -0.210 C  
BRANCH  14  15
HETATM   15  C   UNK A   1     -10.142   7.765  68.683  1.00  0.00    -0.199 C  
ATOM     16  H   GLY A   2      -8.543   7.418  69.984  1.00  0.00     0.000 HD 
ATOM     17  N   GLY A   2      -9.097   7.031  69.219  1.00  0.00    -0.138 N  
HETATM   18  O   UNK A   1     -10.961   7.278  67.907  1.00  0.00    -0.144 OA 
BRANCH  17  19
ATOM     19  CA  GLY A   2      -8.784   5.696  68.691  1.00  0.00    -0.106 C  
ATOM     20  C   GLY A   2      -7.496   5.102  69.259  1.00  0.00    -0.058 C  
ATOM     21  O   GLY A   2      -6.868   5.914  70.143  1.00  0.00    -0.049 OA 
ATOM     22  OXT GLY A   2      -7.039   4.019  68.923  1.00  0.00    -0.049 OA 
ENDBRANCH  17  19
ENDBRANCH  14  15
BRANCH  14  23
HETATM   23  C   UNK A   1     -10.996   9.119  70.570  1.00  0.00    -0.258 C  
HETATM   24  S   UNK A   1     -12.510  10.123  70.718  1.00  0.00    -0.316 SA 
HETATM   25  H   UNK A   1     -13.168  10.047  71.940  1.00  0.00     0.000 H  
ENDBRANCH  14  23
ENDBRANCH  12  14
ENDBRANCH   9  10
ENDBRANCH   8   9
ENDBRANCH   2   8
TORSDOF 7
ENDMDL
MODEL      172
REMARK 921   NORMALIZED FREE ENERGY PREDICTED BY IDOCK:   -4.01 KCAL/MOL
REMARK 922        TOTAL FREE ENERGY PREDICTED BY IDOCK:   -6.22 KCAL/MOL
REMARK 923 INTER-LIGAND FREE ENERGY PREDICTED BY IDOCK:   -5.73 KCAL/MOL
REMARK 924 INTRA-LIGAND FREE ENERGY PREDICTED BY IDOCK:   -0.49 KCAL/MOL
REMARK 927      BINDING AFFINITY PREDICTED BY RF-SCORE:    0.00 PKD
ROOT
HETATM    1  N   UNK A   1     -12.402  13.820  63.055  1.00  0.00    -1.030 NA 
HETATM    2  C   UNK A   1     -11.738  13.917  64.388  1.00  0.00    -0.404 C  
HETATM    3  H2  UNK A   1     -12.593  12.848  62.812  1.00  0.00     0.000 HD 
HETATM    4  H1  UNK A   1     -13.248  14.385  62.991  1.00  0.00     0.000 HD 
HETATM    5  O   UNK A   1     -11.962  16.210  63.744  1.00  0.00    -0.926 OA 
HETATM    6  C   UNK A   1     -11.447  15.396  64.701  1.00  0.00    -0.337 C  
HETATM    7  O   UNK A   1     -10.813  15.799  65.662  1.00  0.00    -0.334 OA 
ENDROOT
BRANCH   2   8
HETATM    8  C   UNK A   1     -10.466  13.069  64.484  1.00  0.00    -0.413 C  
BRANCH   8   9
HETATM    9  C   UNK A   1     -10.698  11.624  64.937  1.00  0.00    -0.352 C  
BRANCH   9  10
HETATM   10  C   UNK A   1      -9.970  11.364  66.235  1.00  0.00    -0.224 C  
HETATM   11  O   UNK A   1      -8.959  11.984  66.555  1.00  0.00    -0.206 OA 
HETATM   12  N   UNK A   1     -10.540  10.409  67.035  1.00  0.00    -0.251 N  
HETATM   13  H   UNK A   1     -11.382   9.931  66.713  1.00  0.00     0.000 HD 
BRANCH  12  14
HETATM   14  C   UNK A   1      -9.978  10.057  68.334  1.00  0.00    -0.160 C  
BRANCH  14  15
HETATM   15  C   UNK A   1      -9.015   8.871  68.129  1.00  0.00    -0.137 C  
ATOM     16  H   GLY A   2      -7.584   9.826  69.316  1.00  0.00     0.000 HD 
ATOM     17  N   GLY A   2      -7.770   9.022  68.715  1.00  0.00    -0.094 N  
HETATM   18  O   UNK A   1      -9.358   7.835  67.566  1.00  0.00    -0.137 OA 
BRANCH  17  19
ATOM     19  CA  GLY A   2      -6.715   8.027  68.477  1.00  0.00    -0.066 C  
ATOM     20  C   GLY A   2      -6.643   6.944  69.551  1.00  0.00    -0.048 C  
ATOM     21  O   GLY A   2      -7.560   7.096  70.537  1.00  0.00    -0.086 OA 
ATOM     22  OXT GLY A   2      -5.814   6.046  69.559  1.00  0.00    -0.018 OA 
ENDBRANCH  17  19
ENDBRANCH  14  15
BRANCH  14  23
HETATM   23  C   UNK A   1     -11.035   9.608  69.355  1.00  0.00    -0.190 C  
HETATM   24  S   UNK A   1     -10.460   9.461  71.078  1.00  0.00    -0.314 SA 
HETATM   25  H   UNK A   1     -11.416   9.055  72.002  1.00  0.00     0.000 H  
ENDBRANCH  14  23
ENDBRANCH  12  14
ENDBRANCH   9  10
ENDBRANCH   8   9
ENDBRANCH   2   8
TORSDOF 7
ENDMDL
MODEL      173
REMARK 921   NORMALIZED FREE ENERGY PREDICTED BY IDOCK:   -4.00 KCAL/MOL
REMARK 922        TOTAL FREE ENERGY PREDICTED BY IDOCK:   -6.20 KCAL/MOL
REMARK 923 INTER-LIGAND FREE ENERGY PREDICTED BY IDOCK:   -5.49 KCAL/MOL
REMARK 924 INTRA-LIGAND FREE ENERGY PREDICTED BY IDOCK:   -0.72 KCAL/MOL
REMARK 927      BINDING AFFINITY PREDICTED BY RF-SCORE:    0.00 PKD
ROOT
HETATM    1  N   UNK A   1      -6.645  10.774  65.558  1.00  0.00    -0.333 NA 
HETATM    2  C   UNK A   1      -7.730   9.923  66.131  1.00  0.00    -0.107 C  
HETATM    3  H2  UNK A   1      -5.832  10.791  66.173  1.00  0.00     0.000 HD 
HETATM    4  H1  UNK A   1      -6.382  10.498  64.612  1.00  0.00     0.000 HD 
HETATM    5  O   UNK A   1      -8.666  10.638  64.048  1.00  0.00    -0.177 OA 
HETATM    6  C   UNK A   1      -8.943   9.948  65.184  1.00  0.00    -0.198 C  
HETATM    7  O   UNK A   1     -10.029   9.444  65.421  1.00  0.00    -0.235 OA 
ENDROOT
BRANCH   2   8
HETATM    8  C   UNK A   1      -8.125  10.338  67.551  1.00  0.00    -0.110 C  
BRANCH   8   9
HETATM    9  C   UNK A   1      -7.978  11.835  67.841  1.00  0.00    -0.141 C  
BRANCH   9  10
HETATM   10  C   UNK A   1      -9.341  12.472  67.982  1.00  0.00    -0.205 C  
HETATM   11  O   UNK A   1     -10.371  11.901  67.635  1.00  0.00    -0.196 OA 
HETATM   12  N   UNK A   1      -9.338  13.717  68.553  1.00  0.00    -0.305 N  
HETATM   13  H   UNK A   1      -8.448  14.138  68.822  1.00  0.00     0.000 HD 
BRANCH  12  14
HETATM   14  C   UNK A   1     -10.573  14.460  68.786  1.00  0.00    -0.254 C  
BRANCH  14  15
HETATM   15  C   UNK A   1     -10.944  15.186  67.479  1.00  0.00    -0.310 C  
ATOM     16  H   GLY A   2      -9.209  16.343  67.627  1.00  0.00     0.000 HD 
ATOM     17  N   GLY A   2     -10.073  16.196  67.104  1.00  0.00    -0.263 N  
HETATM   18  O   UNK A   1     -11.889  14.835  66.777  1.00  0.00    -0.353 OA 
BRANCH  17  19
ATOM     19  CA  GLY A   2     -10.389  17.056  65.955  1.00  0.00    -0.315 C  
ATOM     20  C   GLY A   2     -10.318  18.548  66.273  1.00  0.00    -0.427 C  
ATOM     21  O   GLY A   2      -9.984  18.814  67.558  1.00  0.00    -0.312 OA 
ATOM     22  OXT GLY A   2     -10.580  19.429  65.467  1.00  0.00    -0.493 OA 
ENDBRANCH  17  19
ENDBRANCH  14  15
BRANCH  14  23
HETATM   23  C   UNK A   1     -10.441  15.534  69.878  1.00  0.00    -0.313 C  
HETATM   24  S   UNK A   1     -11.815  15.622  71.072  1.00  0.00    -0.442 SA 
HETATM   25  H   UNK A   1     -11.697  16.593  72.059  1.00  0.00     0.000 H  
ENDBRANCH  14  23
ENDBRANCH  12  14
ENDBRANCH   9  10
ENDBRANCH   8   9
ENDBRANCH   2   8
TORSDOF 7
ENDMDL
MODEL      174
REMARK 921   NORMALIZED FREE ENERGY PREDICTED BY IDOCK:   -4.00 KCAL/MOL
REMARK 922        TOTAL FREE ENERGY PREDICTED BY IDOCK:   -6.20 KCAL/MOL
REMARK 923 INTER-LIGAND FREE ENERGY PREDICTED BY IDOCK:   -5.74 KCAL/MOL
REMARK 924 INTRA-LIGAND FREE ENERGY PREDICTED BY IDOCK:   -0.47 KCAL/MOL
REMARK 927      BINDING AFFINITY PREDICTED BY RF-SCORE:    0.00 PKD
ROOT
HETATM    1  N   UNK A   1     -10.000  13.488  65.490  1.00  0.00    -0.457 NA 
HETATM    2  C   UNK A   1     -11.046  12.425  65.422  1.00  0.00    -0.306 C  
HETATM    3  H2  UNK A   1      -9.243  13.215  66.116  1.00  0.00     0.000 HD 
HETATM    4  H1  UNK A   1      -9.638  13.748  64.572  1.00  0.00     0.000 HD 
HETATM    5  O   UNK A   1     -11.873  14.076  63.900  1.00  0.00    -0.349 OA 
HETATM    6  C   UNK A   1     -12.177  12.890  64.488  1.00  0.00    -0.426 C  
HETATM    7  O   UNK A   1     -13.229  12.297  64.309  1.00  0.00    -0.785 OA 
ENDROOT
BRANCH   2   8
HETATM    8  C   UNK A   1     -11.589  12.035  66.800  1.00  0.00    -0.391 C  
BRANCH   8   9
HETATM    9  C   UNK A   1     -10.516  11.620  67.812  1.00  0.00    -0.213 C  
BRANCH   9  10
HETATM   10  C   UNK A   1     -10.409  10.114  67.865  1.00  0.00    -0.194 C  
HETATM   11  O   UNK A   1     -10.179   9.436  66.867  1.00  0.00    -0.224 OA 
HETATM   12  N   UNK A   1     -10.560   9.570  69.113  1.00  0.00    -0.219 N  
HETATM   13  H   UNK A   1     -10.748  10.186  69.904  1.00  0.00     0.000 HD 
BRANCH  12  14
HETATM   14  C   UNK A   1     -10.459   8.132  69.344  1.00  0.00    -0.220 C  
BRANCH  14  15
HETATM   15  C   UNK A   1     -11.205   7.808  70.653  1.00  0.00    -0.268 C  
ATOM     16  H   GLY A   2      -9.803   6.319  71.085  1.00  0.00     0.000 HD 
ATOM     17  N   GLY A   2     -10.679   6.752  71.379  1.00  0.00    -0.222 N  
HETATM   18  O   UNK A   1     -12.138   8.493  71.065  1.00  0.00    -0.282 OA 
BRANCH  17  19
ATOM     19  CA  GLY A   2     -11.379   6.254  72.571  1.00  0.00    -0.275 C  
ATOM     20  C   GLY A   2     -10.630   5.137  73.295  1.00  0.00    -0.239 C  
ATOM     21  O   GLY A   2      -9.458   4.799  72.707  1.00  0.00    -0.131 OA 
ATOM     22  OXT GLY A   2     -11.056   4.562  74.286  1.00  0.00    -0.277 OA 
ENDBRANCH  17  19
ENDBRANCH  14  15
BRANCH  14  23
HETATM   23  C   UNK A   1      -9.012   7.642  69.516  1.00  0.00    -0.139 C  
HETATM   24  S   UNK A   1      -8.407   6.494  68.237  1.00  0.00    -0.116 SA 
HETATM   25  H   UNK A   1      -7.099   6.051  68.393  1.00  0.00     0.000 H  
ENDBRANCH  14  23
ENDBRANCH  12  14
ENDBRANCH   9  10
ENDBRANCH   8   9
ENDBRANCH   2   8
TORSDOF 7
ENDMDL
MODEL      175
REMARK 921   NORMALIZED FREE ENERGY PREDICTED BY IDOCK:   -3.96 KCAL/MOL
REMARK 922        TOTAL FREE ENERGY PREDICTED BY IDOCK:   -6.14 KCAL/MOL
REMARK 923 INTER-LIGAND FREE ENERGY PREDICTED BY IDOCK:   -5.83 KCAL/MOL
REMARK 924 INTRA-LIGAND FREE ENERGY PREDICTED BY IDOCK:   -0.31 KCAL/MOL
REMARK 927      BINDING AFFINITY PREDICTED BY RF-SCORE:    0.00 PKD
ROOT
HETATM    1  N   UNK A   1     -10.035  11.988  63.657  1.00  0.00    -0.517 NA 
HETATM    2  C   UNK A   1     -10.826  12.654  64.734  1.00  0.00    -0.302 C  
HETATM    3  H2  UNK A   1      -9.036  12.042  63.852  1.00  0.00     0.000 HD 
HETATM    4  H1  UNK A   1     -10.323  11.023  63.492  1.00  0.00     0.000 HD 
HETATM    5  O   UNK A   1     -12.526  11.828  63.266  1.00  0.00    -0.543 OA 
HETATM    6  C   UNK A   1     -12.323  12.569  64.386  1.00  0.00    -0.455 C  
HETATM    7  O   UNK A   1     -13.221  13.115  65.008  1.00  0.00    -0.694 OA 
ENDROOT
BRANCH   2   8
HETATM    8  C   UNK A   1     -10.395  14.103  64.981  1.00  0.00    -0.443 C  
BRANCH   8   9
HETATM    9  C   UNK A   1     -10.210  14.467  66.457  1.00  0.00    -0.282 C  
BRANCH   9  10
HETATM   10  C   UNK A   1      -9.467  13.364  67.174  1.00  0.00    -0.244 C  
HETATM   11  O   UNK A   1      -9.958  12.746  68.115  1.00  0.00    -0.218 OA 
HETATM   12  N   UNK A   1      -8.220  13.091  66.676  1.00  0.00    -0.398 N  
HETATM   13  H   UNK A   1      -7.869  13.639  65.891  1.00  0.00     0.000 HD 
BRANCH  12  14
HETATM   14  C   UNK A   1      -7.381  12.037  67.236  1.00  0.00    -0.151 C  
BRANCH  14  15
HETATM   15  C   UNK A   1      -7.938  10.682  66.758  1.00  0.00    -0.132 C  
ATOM     16  H   GLY A   2      -8.382  10.166  68.735  1.00  0.00     0.000 HD 
ATOM     17  N   GLY A   2      -8.362   9.835  67.769  1.00  0.00    -0.114 N  
HETATM   18  O   UNK A   1      -8.081  10.412  65.569  1.00  0.00    -0.149 OA 
BRANCH  17  19
ATOM     19  CA  GLY A   2      -8.783   8.463  67.456  1.00  0.00    -0.136 C  
ATOM     20  C   GLY A   2     -10.300   8.289  67.397  1.00  0.00    -0.280 C  
ATOM     21  O   GLY A   2     -10.987   9.428  67.649  1.00  0.00    -0.223 OA 
ATOM     22  OXT GLY A   2     -10.854   7.220  67.187  1.00  0.00    -0.337 OA 
ENDBRANCH  17  19
ENDBRANCH  14  15
BRANCH  14  23
HETATM   23  C   UNK A   1      -7.381  12.008  68.773  1.00  0.00    -0.098 C  
HETATM   24  S   UNK A   1      -6.120  13.043  69.585  1.00  0.00    -0.116 SA 
HETATM   25  H   UNK A   1      -6.121  13.017  70.974  1.00  0.00     0.000 H  
ENDBRANCH  14  23
ENDBRANCH  12  14
ENDBRANCH   9  10
ENDBRANCH   8   9
ENDBRANCH   2   8
TORSDOF 7
ENDMDL
MODEL      176
REMARK 921   NORMALIZED FREE ENERGY PREDICTED BY IDOCK:   -3.95 KCAL/MOL
REMARK 922        TOTAL FREE ENERGY PREDICTED BY IDOCK:   -6.14 KCAL/MOL
REMARK 923 INTER-LIGAND FREE ENERGY PREDICTED BY IDOCK:   -6.28 KCAL/MOL
REMARK 924 INTRA-LIGAND FREE ENERGY PREDICTED BY IDOCK:    0.14 KCAL/MOL
REMARK 927      BINDING AFFINITY PREDICTED BY RF-SCORE:    0.00 PKD
ROOT
HETATM    1  N   UNK A   1      -8.391  10.992  66.907  1.00  0.00    -0.133 NA 
HETATM    2  C   UNK A   1      -8.983   9.755  67.498  1.00  0.00    -0.131 C  
HETATM    3  H2  UNK A   1      -7.857  11.510  67.604  1.00  0.00     0.000 HD 
HETATM    4  H1  UNK A   1      -7.827  10.806  66.079  1.00  0.00     0.000 HD 
HETATM    5  O   UNK A   1      -9.675   9.629  65.211  1.00  0.00    -0.300 OA 
HETATM    6  C   UNK A   1      -9.799   9.022  66.419  1.00  0.00    -0.286 C  
HETATM    7  O   UNK A   1     -10.496   8.038  66.612  1.00  0.00    -0.303 OA 
ENDROOT
BRANCH   2   8
HETATM    8  C   UNK A   1      -9.832  10.035  68.742  1.00  0.00    -0.173 C  
BRANCH   8   9
HETATM    9  C   UNK A   1     -11.257  10.510  68.444  1.00  0.00    -0.339 C  
BRANCH   9  10
HETATM   10  C   UNK A   1     -11.260  11.994  68.155  1.00  0.00    -0.260 C  
HETATM   11  O   UNK A   1     -12.014  12.500  67.330  1.00  0.00    -0.456 OA 
HETATM   12  N   UNK A   1     -10.378  12.728  68.905  1.00  0.00    -0.425 N  
HETATM   13  H   UNK A   1      -9.779  12.248  69.576  1.00  0.00     0.000 HD 
BRANCH  12  14
HETATM   14  C   UNK A   1     -10.273  14.177  68.770  1.00  0.00    -0.215 C  
BRANCH  14  15
HETATM   15  C   UNK A   1     -11.543  14.803  69.378  1.00  0.00    -0.310 C  
ATOM     16  H   GLY A   2     -11.412  13.495  71.002  1.00  0.00     0.000 HD 
ATOM     17  N   GLY A   2     -11.978  14.216  70.554  1.00  0.00    -0.319 N  
HETATM   18  O   UNK A   1     -12.074  15.805  68.904  1.00  0.00    -0.333 OA 
BRANCH  17  19
ATOM     19  CA  GLY A   2     -13.252  14.628  71.159  1.00  0.00    -0.372 C  
ATOM     20  C   GLY A   2     -13.096  15.686  72.250  1.00  0.00    -0.456 C  
ATOM     21  O   GLY A   2     -11.810  16.051  72.471  1.00  0.00    -0.468 OA 
ATOM     22  OXT GLY A   2     -14.027  16.135  72.901  1.00  0.00    -0.480 OA 
ENDBRANCH  17  19
ENDBRANCH  14  15
BRANCH  14  23
HETATM   23  C   UNK A   1     -10.192  14.649  67.310  1.00  0.00    -0.241 C  
HETATM   24  S   UNK A   1      -8.657  15.513  66.840  1.00  0.00    -0.277 SA 
HETATM   25  H   UNK A   1      -8.584  15.940  65.520  1.00  0.00     0.000 H  
ENDBRANCH  14  23
ENDBRANCH  12  14
ENDBRANCH   9  10
ENDBRANCH   8   9
ENDBRANCH   2   8
TORSDOF 7
ENDMDL
MODEL      177
REMARK 921   NORMALIZED FREE ENERGY PREDICTED BY IDOCK:   -3.94 KCAL/MOL
REMARK 922        TOTAL FREE ENERGY PREDICTED BY IDOCK:   -6.12 KCAL/MOL
REMARK 923 INTER-LIGAND FREE ENERGY PREDICTED BY IDOCK:   -5.63 KCAL/MOL
REMARK 924 INTRA-LIGAND FREE ENERGY PREDICTED BY IDOCK:   -0.48 KCAL/MOL
REMARK 927      BINDING AFFINITY PREDICTED BY RF-SCORE:    0.00 PKD
ROOT
HETATM    1  N   UNK A   1     -12.159  14.113  67.366  1.00  0.00    -0.538 NA 
HETATM    2  C   UNK A   1     -11.566  13.758  66.043  1.00  0.00    -0.346 C  
HETATM    3  H2  UNK A   1     -11.435  14.199  68.079  1.00  0.00     0.000 HD 
HETATM    4  H1  UNK A   1     -12.737  14.952  67.330  1.00  0.00     0.000 HD 
HETATM    5  O   UNK A   1     -13.897  13.950  65.540  1.00  0.00    -0.081 OA 
HETATM    6  C   UNK A   1     -12.695  13.614  65.006  1.00  0.00    -0.336 C  
HETATM    7  O   UNK A   1     -12.550  13.223  63.859  1.00  0.00    -0.661 OA 
ENDROOT
BRANCH   2   8
HETATM    8  C   UNK A   1     -10.698  12.497  66.098  1.00  0.00    -0.290 C  
BRANCH   8   9
HETATM    9  C   UNK A   1     -11.371  11.291  66.761  1.00  0.00    -0.187 C  
BRANCH   9  10
HETATM   10  C   UNK A   1     -10.977  11.214  68.218  1.00  0.00    -0.226 C  
HETATM   11  O   UNK A   1      -9.815  11.351  68.591  1.00  0.00    -0.200 OA 
HETATM   12  N   UNK A   1     -12.017  11.010  69.086  1.00  0.00    -0.396 N  
HETATM   13  H   UNK A   1     -12.961  10.906  68.713  1.00  0.00     0.000 HD 
BRANCH  12  14
HETATM   14  C   UNK A   1     -11.812  10.938  70.529  1.00  0.00    -0.360 C  
BRANCH  14  15
HETATM   15  C   UNK A   1     -11.340   9.511  70.870  1.00  0.00    -0.341 C  
ATOM     16  H   GLY A   2     -10.004  10.287  72.277  1.00  0.00     0.000 HD 
ATOM     17  N   GLY A   2     -10.318   9.441  71.802  1.00  0.00    -0.139 N  
HETATM   18  O   UNK A   1     -11.892   8.510  70.419  1.00  0.00    -0.101 OA 
BRANCH  17  19
ATOM     19  CA  GLY A   2      -9.685   8.151  72.109  1.00  0.00    -0.244 C  
ATOM     20  C   GLY A   2      -8.160   8.185  72.026  1.00  0.00    -0.138 C  
ATOM     21  O   GLY A   2      -7.663   9.395  71.677  1.00  0.00    -0.294 OA 
ATOM     22  OXT GLY A   2      -7.447   7.210  72.209  1.00  0.00    -0.083 OA 
ENDBRANCH  17  19
ENDBRANCH  14  15
BRANCH  14  23
HETATM   23  C   UNK A   1     -13.091  11.196  71.340  1.00  0.00    -0.321 C  
HETATM   24  S   UNK A   1     -13.200  12.825  72.150  1.00  0.00    -0.353 SA 
HETATM   25  H   UNK A   1     -14.356  13.059  72.884  1.00  0.00     0.000 H  
ENDBRANCH  14  23
ENDBRANCH  12  14
ENDBRANCH   9  10
ENDBRANCH   8   9
ENDBRANCH   2   8
TORSDOF 7
ENDMDL
MODEL      178
REMARK 921   NORMALIZED FREE ENERGY PREDICTED BY IDOCK:   -3.94 KCAL/MOL
REMARK 922        TOTAL FREE ENERGY PREDICTED BY IDOCK:   -6.12 KCAL/MOL
REMARK 923 INTER-LIGAND FREE ENERGY PREDICTED BY IDOCK:   -5.39 KCAL/MOL
REMARK 924 INTRA-LIGAND FREE ENERGY PREDICTED BY IDOCK:   -0.72 KCAL/MOL
REMARK 927      BINDING AFFINITY PREDICTED BY RF-SCORE:    0.00 PKD
ROOT
HETATM    1  N   UNK A   1     -10.571  16.223  68.015  1.00  0.00    -0.296 NA 
HETATM    2  C   UNK A   1      -9.551  16.684  67.027  1.00  0.00    -0.244 C  
HETATM    3  H2  UNK A   1     -10.445  15.235  68.234  1.00  0.00     0.000 HD 
HETATM    4  H1  UNK A   1     -10.584  16.787  68.864  1.00  0.00     0.000 HD 
HETATM    5  O   UNK A   1     -10.787  18.682  67.478  1.00  0.00    -0.435 OA 
HETATM    6  C   UNK A   1      -9.794  18.170  66.707  1.00  0.00    -0.337 C  
HETATM    7  O   UNK A   1      -9.201  18.811  65.854  1.00  0.00    -0.457 OA 
ENDROOT
BRANCH   2   8
HETATM    8  C   UNK A   1      -9.531  15.837  65.751  1.00  0.00    -0.334 C  
BRANCH   8   9
HETATM    9  C   UNK A   1     -10.696  14.850  65.625  1.00  0.00    -0.352 C  
BRANCH   9  10
HETATM   10  C   UNK A   1     -10.214  13.443  65.890  1.00  0.00    -0.299 C  
HETATM   11  O   UNK A   1     -10.085  12.614  64.994  1.00  0.00    -0.282 OA 
HETATM   12  N   UNK A   1      -9.908  13.177  67.199  1.00  0.00    -0.231 N  
HETATM   13  H   UNK A   1     -10.035  13.909  67.897  1.00  0.00     0.000 HD 
BRANCH  12  14
HETATM   14  C   UNK A   1      -9.403  11.874  67.622  1.00  0.00    -0.183 C  
BRANCH  14  15
HETATM   15  C   UNK A   1     -10.423  11.266  68.603  1.00  0.00    -0.203 C  
ATOM     16  H   GLY A   2      -8.858  10.528  69.775  1.00  0.00     0.000 HD 
ATOM     17  N   GLY A   2      -9.871  10.543  69.647  1.00  0.00    -0.144 N  
HETATM   18  O   UNK A   1     -11.630  11.484  68.518  1.00  0.00    -0.263 OA 
BRANCH  17  19
ATOM     19  CA  GLY A   2     -10.737   9.797  70.570  1.00  0.00    -0.317 C  
ATOM     20  C   GLY A   2     -11.024   8.367  70.117  1.00  0.00    -0.215 C  
ATOM     21  O   GLY A   2     -10.436   8.042  68.941  1.00  0.00    -0.217 OA 
ATOM     22  OXT GLY A   2     -11.750   7.594  70.723  1.00  0.00    -0.287 OA 
ENDBRANCH  17  19
ENDBRANCH  14  15
BRANCH  14  23
HETATM   23  C   UNK A   1      -8.058  11.951  68.360  1.00  0.00    -0.155 C  
HETATM   24  S   UNK A   1      -6.620  12.415  67.341  1.00  0.00    -0.142 SA 
HETATM   25  H   UNK A   1      -5.403  12.485  68.008  1.00  0.00     0.000 H  
ENDBRANCH  14  23
ENDBRANCH  12  14
ENDBRANCH   9  10
ENDBRANCH   8   9
ENDBRANCH   2   8
TORSDOF 7
ENDMDL
MODEL      179
REMARK 921   NORMALIZED FREE ENERGY PREDICTED BY IDOCK:   -3.94 KCAL/MOL
REMARK 922        TOTAL FREE ENERGY PREDICTED BY IDOCK:   -6.11 KCAL/MOL
REMARK 923 INTER-LIGAND FREE ENERGY PREDICTED BY IDOCK:   -5.53 KCAL/MOL
REMARK 924 INTRA-LIGAND FREE ENERGY PREDICTED BY IDOCK:   -0.58 KCAL/MOL
REMARK 927      BINDING AFFINITY PREDICTED BY RF-SCORE:    0.00 PKD
ROOT
HETATM    1  N   UNK A   1     -12.926   8.676  73.075  1.00  0.00    -0.684 NA 
HETATM    2  C   UNK A   1     -11.815   7.998  72.343  1.00  0.00    -0.372 C  
HETATM    3  H2  UNK A   1     -12.561   9.290  73.803  1.00  0.00     0.000 HD 
HETATM    4  H1  UNK A   1     -13.560   9.180  72.455  1.00  0.00     0.000 HD 
HETATM    5  O   UNK A   1     -13.761   7.188  71.212  1.00  0.00    -0.343 OA 
HETATM    6  C   UNK A   1     -12.410   7.064  71.274  1.00  0.00    -0.383 C  
HETATM    7  O   UNK A   1     -11.770   6.287  70.585  1.00  0.00    -0.343 OA 
ENDROOT
BRANCH   2   8
HETATM    8  C   UNK A   1     -10.863   7.240  73.274  1.00  0.00    -0.404 C  
BRANCH   8   9
HETATM    9  C   UNK A   1      -9.512   6.881  72.646  1.00  0.00    -0.159 C  
BRANCH   9  10
HETATM   10  C   UNK A   1      -8.960   8.069  71.892  1.00  0.00    -0.149 C  
HETATM   11  O   UNK A   1      -8.313   8.954  72.445  1.00  0.00    -0.386 OA 
HETATM   12  N   UNK A   1      -9.210   8.063  70.545  1.00  0.00    -0.153 N  
HETATM   13  H   UNK A   1      -9.752   7.297  70.145  1.00  0.00     0.000 HD 
BRANCH  12  14
HETATM   14  C   UNK A   1      -8.724   9.122  69.667  1.00  0.00    -0.145 C  
BRANCH  14  15
HETATM   15  C   UNK A   1      -9.741   9.295  68.523  1.00  0.00    -0.150 C  
ATOM     16  H   GLY A   2      -8.771  11.046  67.922  1.00  0.00     0.000 HD 
ATOM     17  N   GLY A   2      -9.579  10.442  67.765  1.00  0.00    -0.151 N  
HETATM   18  O   UNK A   1     -10.574   8.435  68.248  1.00  0.00    -0.192 OA 
BRANCH  17  19
ATOM     19  CA  GLY A   2     -10.566  10.794  66.735  1.00  0.00    -0.250 C  
ATOM     20  C   GLY A   2     -11.305  12.100  67.019  1.00  0.00    -0.337 C  
ATOM     21  O   GLY A   2     -10.924  12.699  68.173  1.00  0.00    -0.216 OA 
ATOM     22  OXT GLY A   2     -12.189  12.552  66.306  1.00  0.00    -0.600 OA 
ENDBRANCH  17  19
ENDBRANCH  14  15
BRANCH  14  23
HETATM   23  C   UNK A   1      -7.367   8.803  69.020  1.00  0.00    -0.073 C  
HETATM   24  S   UNK A   1      -6.057  10.045  69.272  1.00  0.00    -0.041 SA 
HETATM   25  H   UNK A   1      -4.830   9.756  68.687  1.00  0.00     0.000 H  
ENDBRANCH  14  23
ENDBRANCH  12  14
ENDBRANCH   9  10
ENDBRANCH   8   9
ENDBRANCH   2   8
TORSDOF 7
ENDMDL
MODEL      180
REMARK 921   NORMALIZED FREE ENERGY PREDICTED BY IDOCK:   -3.93 KCAL/MOL
REMARK 922        TOTAL FREE ENERGY PREDICTED BY IDOCK:   -6.10 KCAL/MOL
REMARK 923 INTER-LIGAND FREE ENERGY PREDICTED BY IDOCK:   -5.26 KCAL/MOL
REMARK 924 INTRA-LIGAND FREE ENERGY PREDICTED BY IDOCK:   -0.84 KCAL/MOL
REMARK 927      BINDING AFFINITY PREDICTED BY RF-SCORE:    0.00 PKD
ROOT
HETATM    1  N   UNK A   1     -10.975   8.556  68.013  1.00  0.00    -0.471 NA 
HETATM    2  C   UNK A   1      -9.839   8.371  67.062  1.00  0.00    -0.230 C  
HETATM    3  H2  UNK A   1     -11.025   9.521  68.338  1.00  0.00     0.000 HD 
HETATM    4  H1  UNK A   1     -11.869   8.255  67.625  1.00  0.00     0.000 HD 
HETATM    5  O   UNK A   1     -10.838   6.198  67.117  1.00  0.00    -0.308 OA 
HETATM    6  C   UNK A   1      -9.787   6.898  66.618  1.00  0.00    -0.153 C  
HETATM    7  O   UNK A   1      -8.908   6.402  65.932  1.00  0.00    -0.157 OA 
ENDROOT
BRANCH   2   8
HETATM    8  C   UNK A   1      -8.496   8.822  67.644  1.00  0.00    -0.125 C  
BRANCH   8   9
HETATM    9  C   UNK A   1      -7.937  10.109  67.029  1.00  0.00    -0.110 C  
BRANCH   9  10
HETATM   10  C   UNK A   1      -8.523  11.314  67.728  1.00  0.00    -0.126 C  
HETATM   11  O   UNK A   1      -9.154  11.222  68.777  1.00  0.00    -0.174 OA 
HETATM   12  N   UNK A   1      -8.272  12.514  67.115  1.00  0.00    -0.236 N  
HETATM   13  H   UNK A   1      -7.740  12.524  66.245  1.00  0.00     0.000 HD 
BRANCH  12  14
HETATM   14  C   UNK A   1      -8.743  13.777  67.673  1.00  0.00    -0.185 C  
BRANCH  14  15
HETATM   15  C   UNK A   1     -10.097  14.109  67.018  1.00  0.00    -0.261 C  
ATOM     16  H   GLY A   2      -9.261  13.795  65.128  1.00  0.00     0.000 HD 
ATOM     17  N   GLY A   2     -10.093  14.103  65.633  1.00  0.00    -0.326 N  
HETATM   18  O   UNK A   1     -11.123  14.276  67.673  1.00  0.00    -0.277 OA 
BRANCH  17  19
ATOM     19  CA  GLY A   2     -11.282  14.539  64.887  1.00  0.00    -0.391 C  
ATOM     20  C   GLY A   2     -11.852  13.463  63.966  1.00  0.00    -0.445 C  
ATOM     21  O   GLY A   2     -11.158  12.301  63.994  1.00  0.00    -0.323 OA 
ATOM     22  OXT GLY A   2     -12.816  13.635  63.233  1.00  0.00    -0.567 OA 
ENDBRANCH  17  19
ENDBRANCH  14  15
BRANCH  14  23
HETATM   23  C   UNK A   1      -7.803  14.958  67.390  1.00  0.00    -0.199 C  
HETATM   24  S   UNK A   1      -8.064  16.443  68.414  1.00  0.00    -0.198 SA 
HETATM   25  H   UNK A   1      -7.213  17.511  68.158  1.00  0.00     0.000 H  
ENDBRANCH  14  23
ENDBRANCH  12  14
ENDBRANCH   9  10
ENDBRANCH   8   9
ENDBRANCH   2   8
TORSDOF 7
ENDMDL
MODEL      181
REMARK 921   NORMALIZED FREE ENERGY PREDICTED BY IDOCK:   -3.92 KCAL/MOL
REMARK 922        TOTAL FREE ENERGY PREDICTED BY IDOCK:   -6.09 KCAL/MOL
REMARK 923 INTER-LIGAND FREE ENERGY PREDICTED BY IDOCK:   -5.27 KCAL/MOL
REMARK 924 INTRA-LIGAND FREE ENERGY PREDICTED BY IDOCK:   -0.83 KCAL/MOL
REMARK 927      BINDING AFFINITY PREDICTED BY RF-SCORE:    0.00 PKD
ROOT
HETATM    1  N   UNK A   1      -7.964   9.107  68.302  1.00  0.00    -0.103 NA 
HETATM    2  C   UNK A   1      -9.289   8.896  68.956  1.00  0.00    -0.144 C  
HETATM    3  H2  UNK A   1      -7.583  10.022  68.538  1.00  0.00     0.000 HD 
HETATM    4  H1  UNK A   1      -7.294   8.367  68.515  1.00  0.00     0.000 HD 
HETATM    5  O   UNK A   1      -8.932   6.825  67.811  1.00  0.00    -0.118 OA 
HETATM    6  C   UNK A   1      -9.837   7.515  68.553  1.00  0.00    -0.165 C  
HETATM    7  O   UNK A   1     -10.947   7.091  68.830  1.00  0.00    -0.194 OA 
ENDROOT
BRANCH   2   8
HETATM    8  C   UNK A   1     -10.295  10.006  68.635  1.00  0.00    -0.211 C  
BRANCH   8   9
HETATM    9  C   UNK A   1     -10.593  10.183  67.143  1.00  0.00    -0.308 C  
BRANCH   9  10
HETATM   10  C   UNK A   1      -9.851  11.383  66.605  1.00  0.00    -0.205 C  
HETATM   11  O   UNK A   1      -8.678  11.323  66.247  1.00  0.00    -0.179 OA 
HETATM   12  N   UNK A   1     -10.595  12.531  66.521  1.00  0.00    -0.239 N  
HETATM   13  H   UNK A   1     -11.566  12.516  66.833  1.00  0.00     0.000 HD 
BRANCH  12  14
HETATM   14  C   UNK A   1     -10.037  13.774  65.998  1.00  0.00    -0.311 C  
BRANCH  14  15
HETATM   15  C   UNK A   1      -9.839  14.740  67.181  1.00  0.00    -0.232 C  
ATOM     16  H   GLY A   2     -11.467  15.876  66.528  1.00  0.00     0.000 HD 
ATOM     17  N   GLY A   2     -10.705  15.821  67.205  1.00  0.00    -0.318 N  
HETATM   18  O   UNK A   1      -9.036  14.519  68.084  1.00  0.00    -0.169 OA 
BRANCH  17  19
ATOM     19  CA  GLY A   2     -10.530  16.887  68.200  1.00  0.00    -0.350 C  
ATOM     20  C   GLY A   2     -10.495  18.289  67.592  1.00  0.00    -0.411 C  
ATOM     21  O   GLY A   2     -10.624  18.299  66.244  1.00  0.00    -0.384 OA 
ATOM     22  OXT GLY A   2     -10.322  19.309  68.243  1.00  0.00    -0.404 OA 
ENDBRANCH  17  19
ENDBRANCH  14  15
BRANCH  14  23
HETATM   23  C   UNK A   1     -10.957  14.478  64.989  1.00  0.00    -0.398 C  
HETATM   24  S   UNK A   1     -12.060  13.391  64.028  1.00  0.00    -0.423 SA 
HETATM   25  H   UNK A   1     -12.892  14.028  63.116  1.00  0.00     0.000 H  
ENDBRANCH  14  23
ENDBRANCH  12  14
ENDBRANCH   9  10
ENDBRANCH   8   9
ENDBRANCH   2   8
TORSDOF 7
ENDMDL
MODEL      182
REMARK 921   NORMALIZED FREE ENERGY PREDICTED BY IDOCK:   -3.92 KCAL/MOL
REMARK 922        TOTAL FREE ENERGY PREDICTED BY IDOCK:   -6.09 KCAL/MOL
REMARK 923 INTER-LIGAND FREE ENERGY PREDICTED BY IDOCK:   -5.41 KCAL/MOL
REMARK 924 INTRA-LIGAND FREE ENERGY PREDICTED BY IDOCK:   -0.68 KCAL/MOL
REMARK 927      BINDING AFFINITY PREDICTED BY RF-SCORE:    0.00 PKD
ROOT
HETATM    1  N   UNK A   1      -9.950  11.715  69.105  1.00  0.00    -0.418 NA 
HETATM    2  C   UNK A   1     -10.867  10.651  68.598  1.00  0.00    -0.227 C  
HETATM    3  H2  UNK A   1     -10.366  12.639  68.992  1.00  0.00     0.000 HD 
HETATM    4  H1  UNK A   1      -9.660  11.561  70.071  1.00  0.00     0.000 HD 
HETATM    5  O   UNK A   1      -9.006   9.393  69.420  1.00  0.00    -0.141 OA 
HETATM    6  C   UNK A   1     -10.191   9.279  68.766  1.00  0.00    -0.205 C  
HETATM    7  O   UNK A   1     -10.633   8.222  68.347  1.00  0.00    -0.186 OA 
ENDROOT
BRANCH   2   8
HETATM    8  C   UNK A   1     -11.303  10.882  67.148  1.00  0.00    -0.168 C  
BRANCH   8   9
HETATM    9  C   UNK A   1     -10.171  10.783  66.121  1.00  0.00    -0.308 C  
BRANCH   9  10
HETATM   10  C   UNK A   1     -10.041  12.085  65.367  1.00  0.00    -0.256 C  
HETATM   11  O   UNK A   1      -9.992  12.131  64.141  1.00  0.00    -0.296 OA 
HETATM   12  N   UNK A   1     -10.010  13.206  66.154  1.00  0.00    -0.287 N  
HETATM   13  H   UNK A   1     -10.055  13.102  67.168  1.00  0.00     0.000 HD 
BRANCH  12  14
HETATM   14  C   UNK A   1      -9.914  14.546  65.583  1.00  0.00    -0.347 C  
BRANCH  14  15
HETATM   15  C   UNK A   1      -9.364  15.487  66.671  1.00  0.00    -0.266 C  
ATOM     16  H   GLY A   2      -7.969  16.247  65.312  1.00  0.00     0.000 HD 
ATOM     17  N   GLY A   2      -8.280  16.258  66.284  1.00  0.00    -0.318 N  
HETATM   18  O   UNK A   1      -9.903  15.611  67.768  1.00  0.00    -0.219 OA 
BRANCH  17  19
ATOM     19  CA  GLY A   2      -7.577  17.092  67.269  1.00  0.00    -0.167 C  
ATOM     20  C   GLY A   2      -7.573  18.579  66.917  1.00  0.00    -0.221 C  
ATOM     21  O   GLY A   2      -8.213  18.863  65.758  1.00  0.00    -0.458 OA 
ATOM     22  OXT GLY A   2      -7.012  19.435  67.585  1.00  0.00    -0.218 OA 
ENDBRANCH  17  19
ENDBRANCH  14  15
BRANCH  14  23
HETATM   23  C   UNK A   1     -11.268  15.117  65.135  1.00  0.00    -0.389 C  
HETATM   24  S   UNK A   1     -12.738  14.180  65.665  1.00  0.00    -0.322 SA 
HETATM   25  H   UNK A   1     -13.963  14.696  65.260  1.00  0.00     0.000 H  
ENDBRANCH  14  23
ENDBRANCH  12  14
ENDBRANCH   9  10
ENDBRANCH   8   9
ENDBRANCH   2   8
TORSDOF 7
ENDMDL
MODEL      183
REMARK 921   NORMALIZED FREE ENERGY PREDICTED BY IDOCK:   -3.91 KCAL/MOL
REMARK 922        TOTAL FREE ENERGY PREDICTED BY IDOCK:   -6.08 KCAL/MOL
REMARK 923 INTER-LIGAND FREE ENERGY PREDICTED BY IDOCK:   -6.23 KCAL/MOL
REMARK 924 INTRA-LIGAND FREE ENERGY PREDICTED BY IDOCK:    0.15 KCAL/MOL
REMARK 927      BINDING AFFINITY PREDICTED BY RF-SCORE:    0.00 PKD
ROOT
HETATM    1  N   UNK A   1     -13.425   9.653  70.763  1.00  0.00    -0.596 NA 
HETATM    2  C   UNK A   1     -11.958   9.667  70.489  1.00  0.00    -0.172 C  
HETATM    3  H2  UNK A   1     -13.944  10.074  69.993  1.00  0.00     0.000 HD 
HETATM    4  H1  UNK A   1     -13.780   8.720  70.976  1.00  0.00     0.000 HD 
HETATM    5  O   UNK A   1     -12.086   8.561  72.606  1.00  0.00    -0.378 OA 
HETATM    6  C   UNK A   1     -11.215   9.046  71.685  1.00  0.00    -0.361 C  
HETATM    7  O   UNK A   1     -10.002   9.013  71.818  1.00  0.00    -0.325 OA 
ENDROOT
BRANCH   2   8
HETATM    8  C   UNK A   1     -11.425  11.068  70.170  1.00  0.00    -0.383 C  
BRANCH   8   9
HETATM    9  C   UNK A   1     -11.929  11.653  68.848  1.00  0.00    -0.355 C  
BRANCH   9  10
HETATM   10  C   UNK A   1     -10.997  12.746  68.377  1.00  0.00    -0.254 C  
HETATM   11  O   UNK A   1     -10.537  12.771  67.239  1.00  0.00    -0.231 OA 
HETATM   12  N   UNK A   1     -10.732  13.717  69.307  1.00  0.00    -0.429 N  
HETATM   13  H   UNK A   1     -11.147  13.641  70.236  1.00  0.00     0.000 HD 
BRANCH  12  14
HETATM   14  C   UNK A   1      -9.874  14.858  69.005  1.00  0.00    -0.220 C  
BRANCH  14  15
HETATM   15  C   UNK A   1     -10.653  15.806  68.074  1.00  0.00    -0.279 C  
ATOM     16  H   GLY A   2      -8.980  15.966  66.832  1.00  0.00     0.000 HD 
ATOM     17  N   GLY A   2      -9.925  16.307  67.008  1.00  0.00    -0.249 N  
HETATM   18  O   UNK A   1     -11.854  16.027  68.215  1.00  0.00    -0.250 OA 
BRANCH  17  19
ATOM     19  CA  GLY A   2     -10.510  17.328  66.128  1.00  0.00    -0.278 C  
ATOM     20  C   GLY A   2      -9.964  18.733  66.376  1.00  0.00    -0.392 C  
ATOM     21  O   GLY A   2      -9.043  18.789  67.368  1.00  0.00    -0.273 OA 
ATOM     22  OXT GLY A   2     -10.344  19.727  65.777  1.00  0.00    -0.476 OA 
ENDBRANCH  17  19
ENDBRANCH  14  15
BRANCH  14  23
HETATM   23  C   UNK A   1      -8.579  14.471  68.273  1.00  0.00    -0.171 C  
HETATM   24  S   UNK A   1      -7.028  14.967  69.091  1.00  0.00    -0.152 SA 
HETATM   25  H   UNK A   1      -5.857  14.617  68.429  1.00  0.00     0.000 H  
ENDBRANCH  14  23
ENDBRANCH  12  14
ENDBRANCH   9  10
ENDBRANCH   8   9
ENDBRANCH   2   8
TORSDOF 7
ENDMDL
MODEL      184
REMARK 921   NORMALIZED FREE ENERGY PREDICTED BY IDOCK:   -3.90 KCAL/MOL
REMARK 922        TOTAL FREE ENERGY PREDICTED BY IDOCK:   -6.06 KCAL/MOL
REMARK 923 INTER-LIGAND FREE ENERGY PREDICTED BY IDOCK:   -5.32 KCAL/MOL
REMARK 924 INTRA-LIGAND FREE ENERGY PREDICTED BY IDOCK:   -0.74 KCAL/MOL
REMARK 927      BINDING AFFINITY PREDICTED BY RF-SCORE:    0.00 PKD
ROOT
HETATM    1  N   UNK A   1     -12.533  14.949  68.896  1.00  0.00    -0.553 NA 
HETATM    2  C   UNK A   1     -11.129  14.798  68.409  1.00  0.00    -0.263 C  
HETATM    3  H2  UNK A   1     -13.199  14.635  68.191  1.00  0.00     0.000 HD 
HETATM    4  H1  UNK A   1     -12.696  14.480  69.787  1.00  0.00     0.000 HD 
HETATM    5  O   UNK A   1     -10.829  15.648  70.626  1.00  0.00    -0.324 OA 
HETATM    6  C   UNK A   1     -10.162  15.306  69.493  1.00  0.00    -0.260 C  
HETATM    7  O   UNK A   1      -8.954  15.421  69.359  1.00  0.00    -0.250 OA 
ENDROOT
BRANCH   2   8
HETATM    8  C   UNK A   1     -10.884  15.503  67.072  1.00  0.00    -0.314 C  
BRANCH   8   9
HETATM    9  C   UNK A   1     -10.067  14.688  66.064  1.00  0.00    -0.330 C  
BRANCH   9  10
HETATM   10  C   UNK A   1     -10.759  13.375  65.778  1.00  0.00    -0.274 C  
HETATM   11  O   UNK A   1     -11.944  13.313  65.465  1.00  0.00    -0.360 OA 
HETATM   12  N   UNK A   1      -9.955  12.269  65.867  1.00  0.00    -0.251 N  
HETATM   13  H   UNK A   1      -8.976  12.387  66.130  1.00  0.00     0.000 HD 
BRANCH  12  14
HETATM   14  C   UNK A   1     -10.459  10.927  65.595  1.00  0.00    -0.208 C  
BRANCH  14  15
HETATM   15  C   UNK A   1     -10.313  10.096  66.883  1.00  0.00    -0.236 C  
ATOM     16  H   GLY A   2      -9.929  11.841  67.968  1.00  0.00     0.000 HD 
ATOM     17  N   GLY A   2      -9.970  10.822  68.012  1.00  0.00    -0.161 N  
HETATM   18  O   UNK A   1     -10.572   8.896  66.925  1.00  0.00    -0.263 OA 
BRANCH  17  19
ATOM     19  CA  GLY A   2      -9.665  10.131  69.272  1.00  0.00    -0.224 C  
ATOM     20  C   GLY A   2      -8.170  10.044  69.574  1.00  0.00    -0.167 C  
ATOM     21  O   GLY A   2      -7.391  10.614  68.624  1.00  0.00    -0.083 OA 
ATOM     22  OXT GLY A   2      -7.704   9.479  70.552  1.00  0.00    -0.149 OA 
ENDBRANCH  17  19
ENDBRANCH  14  15
BRANCH  14  23
HETATM   23  C   UNK A   1      -9.677  10.193  64.494  1.00  0.00    -0.293 C  
HETATM   24  S   UNK A   1      -9.496  11.090  62.918  1.00  0.00    -0.353 SA 
HETATM   25  H   UNK A   1      -8.789  10.427  61.922  1.00  0.00     0.000 H  
ENDBRANCH  14  23
ENDBRANCH  12  14
ENDBRANCH   9  10
ENDBRANCH   8   9
ENDBRANCH   2   8
TORSDOF 7
ENDMDL
MODEL      185
REMARK 921   NORMALIZED FREE ENERGY PREDICTED BY IDOCK:   -3.89 KCAL/MOL
REMARK 922        TOTAL FREE ENERGY PREDICTED BY IDOCK:   -6.05 KCAL/MOL
REMARK 923 INTER-LIGAND FREE ENERGY PREDICTED BY IDOCK:   -5.40 KCAL/MOL
REMARK 924 INTRA-LIGAND FREE ENERGY PREDICTED BY IDOCK:   -0.65 KCAL/MOL
REMARK 927      BINDING AFFINITY PREDICTED BY RF-SCORE:    0.00 PKD
ROOT
HETATM    1  N   UNK A   1     -11.729  12.129  70.314  1.00  0.00    -0.534 NA 
HETATM    2  C   UNK A   1     -12.135  10.724  70.612  1.00  0.00    -0.370 C  
HETATM    3  H2  UNK A   1     -11.070  12.162  69.536  1.00  0.00     0.000 HD 
HETATM    4  H1  UNK A   1     -12.525  12.744  70.143  1.00  0.00     0.000 HD 
HETATM    5  O   UNK A   1     -13.416  11.987  72.189  1.00  0.00    -0.476 OA 
HETATM    6  C   UNK A   1     -13.107  10.721  71.804  1.00  0.00    -0.468 C  
HETATM    7  O   UNK A   1     -13.533   9.722  72.362  1.00  0.00    -0.413 OA 
ENDROOT
BRANCH   2   8
HETATM    8  C   UNK A   1     -10.939   9.801  70.869  1.00  0.00    -0.411 C  
BRANCH   8   9
HETATM    9  C   UNK A   1     -11.050   8.421  70.212  1.00  0.00    -0.216 C  
BRANCH   9  10
HETATM   10  C   UNK A   1      -9.915   8.220  69.234  1.00  0.00    -0.192 C  
HETATM   11  O   UNK A   1      -9.040   7.377  69.410  1.00  0.00    -0.140 OA 
HETATM   12  N   UNK A   1      -9.958   9.028  68.129  1.00  0.00    -0.167 N  
HETATM   13  H   UNK A   1     -10.713   9.708  68.040  1.00  0.00     0.000 HD 
BRANCH  12  14
HETATM   14  C   UNK A   1      -8.953   8.944  67.074  1.00  0.00    -0.127 C  
BRANCH  14  15
HETATM   15  C   UNK A   1      -8.781  10.350  66.469  1.00  0.00    -0.136 C  
ATOM     16  H   GLY A   2     -10.458  11.012  67.526  1.00  0.00     0.000 HD 
ATOM     17  N   GLY A   2      -9.757  11.264  66.829  1.00  0.00    -0.191 N  
HETATM   18  O   UNK A   1      -7.803  10.661  65.793  1.00  0.00    -0.156 OA 
BRANCH  17  19
ATOM     19  CA  GLY A   2      -9.786  12.597  66.210  1.00  0.00    -0.262 C  
ATOM     20  C   GLY A   2     -10.656  12.669  64.957  1.00  0.00    -0.303 C  
ATOM     21  O   GLY A   2     -11.240  11.490  64.634  1.00  0.00    -0.287 OA 
ATOM     22  OXT GLY A   2     -10.786  13.674  64.275  1.00  0.00    -0.398 OA 
ENDBRANCH  17  19
ENDBRANCH  14  15
BRANCH  14  23
HETATM   23  C   UNK A   1      -9.351   8.004  65.926  1.00  0.00    -0.024 C  
HETATM   24  S   UNK A   1      -8.131   6.721  65.493  1.00  0.00    -0.131 SA 
HETATM   25  H   UNK A   1      -8.491   5.871  64.454  1.00  0.00     0.000 H  
ENDBRANCH  14  23
ENDBRANCH  12  14
ENDBRANCH   9  10
ENDBRANCH   8   9
ENDBRANCH   2   8
TORSDOF 7
ENDMDL
MODEL      186
REMARK 921   NORMALIZED FREE ENERGY PREDICTED BY IDOCK:   -3.89 KCAL/MOL
REMARK 922        TOTAL FREE ENERGY PREDICTED BY IDOCK:   -6.05 KCAL/MOL
REMARK 923 INTER-LIGAND FREE ENERGY PREDICTED BY IDOCK:   -5.03 KCAL/MOL
REMARK 924 INTRA-LIGAND FREE ENERGY PREDICTED BY IDOCK:   -1.02 KCAL/MOL
REMARK 927      BINDING AFFINITY PREDICTED BY RF-SCORE:    0.00 PKD
ROOT
HETATM    1  N   UNK A   1      -9.555   6.182  66.895  1.00  0.00    -0.137 NA 
HETATM    2  C   UNK A   1      -9.507   5.337  68.124  1.00  0.00    -0.123 C  
HETATM    3  H2  UNK A   1      -9.582   7.173  67.134  1.00  0.00     0.000 HD 
HETATM    4  H1  UNK A   1      -8.791   5.984  66.248  1.00  0.00     0.000 HD 
HETATM    5  O   UNK A   1      -9.416   3.716  66.368  1.00  0.00    -0.183 OA 
HETATM    6  C   UNK A   1      -9.492   3.853  67.717  1.00  0.00    -0.179 C  
HETATM    7  O   UNK A   1      -9.567   2.911  68.490  1.00  0.00    -0.169 OA 
ENDROOT
BRANCH   2   8
HETATM    8  C   UNK A   1     -10.654   5.634  69.096  1.00  0.00    -0.334 C  
BRANCH   8   9
HETATM    9  C   UNK A   1     -10.291   6.595  70.232  1.00  0.00    -0.235 C  
BRANCH   9  10
HETATM   10  C   UNK A   1     -10.739   7.997  69.888  1.00  0.00    -0.242 C  
HETATM   11  O   UNK A   1     -11.630   8.572  70.507  1.00  0.00    -0.240 OA 
HETATM   12  N   UNK A   1     -10.055   8.583  68.856  1.00  0.00    -0.198 N  
HETATM   13  H   UNK A   1      -9.323   8.053  68.382  1.00  0.00     0.000 HD 
BRANCH  12  14
HETATM   14  C   UNK A   1     -10.344   9.943  68.414  1.00  0.00    -0.198 C  
BRANCH  14  15
HETATM   15  C   UNK A   1     -10.508   9.920  66.883  1.00  0.00    -0.215 C  
ATOM     16  H   GLY A   2     -10.354  12.004  66.833  1.00  0.00     0.000 HD 
ATOM     17  N   GLY A   2     -10.536  11.167  66.279  1.00  0.00    -0.260 N  
HETATM   18  O   UNK A   1     -10.521   8.875  66.237  1.00  0.00    -0.170 OA 
BRANCH  17  19
ATOM     19  CA  GLY A   2     -10.828  11.288  64.844  1.00  0.00    -0.229 C  
ATOM     20  C   GLY A   2     -12.032  12.176  64.539  1.00  0.00    -0.337 C  
ATOM     21  O   GLY A   2     -12.622  12.689  65.645  1.00  0.00    -0.611 OA 
ATOM     22  OXT GLY A   2     -12.461  12.377  63.412  1.00  0.00    -0.625 OA 
ENDBRANCH  17  19
ENDBRANCH  14  15
BRANCH  14  23
HETATM   23  C   UNK A   1      -9.219  10.940  68.732  1.00  0.00    -0.183 C  
HETATM   24  S   UNK A   1      -7.710  10.226  69.463  1.00  0.00    -0.163 SA 
HETATM   25  H   UNK A   1      -6.692  11.127  69.751  1.00  0.00     0.000 H  
ENDBRANCH  14  23
ENDBRANCH  12  14
ENDBRANCH   9  10
ENDBRANCH   8   9
ENDBRANCH   2   8
TORSDOF 7
ENDMDL
MODEL      187
REMARK 921   NORMALIZED FREE ENERGY PREDICTED BY IDOCK:   -3.89 KCAL/MOL
REMARK 922        TOTAL FREE ENERGY PREDICTED BY IDOCK:   -6.04 KCAL/MOL
REMARK 923 INTER-LIGAND FREE ENERGY PREDICTED BY IDOCK:   -5.70 KCAL/MOL
REMARK 924 INTRA-LIGAND FREE ENERGY PREDICTED BY IDOCK:   -0.35 KCAL/MOL
REMARK 927      BINDING AFFINITY PREDICTED BY RF-SCORE:    0.00 PKD
ROOT
HETATM    1  N   UNK A   1     -12.238  14.471  67.700  1.00  0.00    -0.614 NA 
HETATM    2  C   UNK A   1     -11.706  13.262  67.003  1.00  0.00    -0.389 C  
HETATM    3  H2  UNK A   1     -11.820  14.572  68.624  1.00  0.00     0.000 HD 
HETATM    4  H1  UNK A   1     -12.127  15.325  67.153  1.00  0.00     0.000 HD 
HETATM    5  O   UNK A   1     -13.185  14.200  65.373  1.00  0.00    -0.741 OA 
HETATM    6  C   UNK A   1     -12.380  13.136  65.625  1.00  0.00    -0.461 C  
HETATM    7  O   UNK A   1     -12.244  12.195  64.860  1.00  0.00    -0.358 OA 
ENDROOT
BRANCH   2   8
HETATM    8  C   UNK A   1     -11.873  11.979  67.823  1.00  0.00    -0.308 C  
BRANCH   8   9
HETATM    9  C   UNK A   1     -10.986  10.816  67.370  1.00  0.00    -0.361 C  
BRANCH   9  10
HETATM   10  C   UNK A   1      -9.988  10.473  68.452  1.00  0.00    -0.164 C  
HETATM   11  O   UNK A   1      -9.138  11.271  68.837  1.00  0.00    -0.149 OA 
HETATM   12  N   UNK A   1     -10.127   9.219  68.986  1.00  0.00    -0.192 N  
HETATM   13  H   UNK A   1     -10.855   8.603  68.624  1.00  0.00     0.000 HD 
BRANCH  12  14
HETATM   14  C   UNK A   1      -9.261   8.740  70.059  1.00  0.00    -0.168 C  
BRANCH  14  15
HETATM   15  C   UNK A   1      -9.002   7.239  69.825  1.00  0.00    -0.142 C  
ATOM     16  H   GLY A   2     -10.518   7.200  68.386  1.00  0.00     0.000 HD 
ATOM     17  N   GLY A   2      -9.853   6.634  68.915  1.00  0.00    -0.138 N  
HETATM   18  O   UNK A   1      -8.056   6.647  70.337  1.00  0.00    -0.113 OA 
BRANCH  17  19
ATOM     19  CA  GLY A   2      -9.801   5.181  68.707  1.00  0.00    -0.168 C  
ATOM     20  C   GLY A   2      -9.706   4.777  67.237  1.00  0.00    -0.182 C  
ATOM     21  O   GLY A   2      -9.693   5.830  66.385  1.00  0.00    -0.155 OA 
ATOM     22  OXT GLY A   2      -9.689   3.619  66.848  1.00  0.00    -0.196 OA 
ENDBRANCH  17  19
ENDBRANCH  14  15
BRANCH  14  23
HETATM   23  C   UNK A   1      -9.888   8.877  71.456  1.00  0.00    -0.314 C  
HETATM   24  S   UNK A   1     -11.603   9.490  71.498  1.00  0.00    -0.382 SA 
HETATM   25  H   UNK A   1     -12.170   9.614  72.761  1.00  0.00     0.000 H  
ENDBRANCH  14  23
ENDBRANCH  12  14
ENDBRANCH   9  10
ENDBRANCH   8   9
ENDBRANCH   2   8
TORSDOF 7
ENDMDL
MODEL      188
REMARK 921   NORMALIZED FREE ENERGY PREDICTED BY IDOCK:   -3.87 KCAL/MOL
REMARK 922        TOTAL FREE ENERGY PREDICTED BY IDOCK:   -6.02 KCAL/MOL
REMARK 923 INTER-LIGAND FREE ENERGY PREDICTED BY IDOCK:   -5.45 KCAL/MOL
REMARK 924 INTRA-LIGAND FREE ENERGY PREDICTED BY IDOCK:   -0.56 KCAL/MOL
REMARK 927      BINDING AFFINITY PREDICTED BY RF-SCORE:    0.00 PKD
ROOT
HETATM    1  N   UNK A   1      -9.409   6.283  65.911  1.00  0.00    -0.363 NA 
HETATM    2  C   UNK A   1      -9.861   6.962  67.161  1.00  0.00    -0.165 C  
HETATM    3  H2  UNK A   1      -8.927   6.937  65.295  1.00  0.00     0.000 HD 
HETATM    4  H1  UNK A   1      -8.834   5.461  66.092  1.00  0.00     0.000 HD 
HETATM    5  O   UNK A   1     -10.553   4.699  67.511  1.00  0.00     0.070 OA 
HETATM    6  C   UNK A   1     -10.603   5.946  68.047  1.00  0.00    -0.252 C  
HETATM    7  O   UNK A   1     -11.190   6.213  69.083  1.00  0.00    -0.386 OA 
ENDROOT
BRANCH   2   8
HETATM    8  C   UNK A   1     -10.726   8.197  66.889  1.00  0.00    -0.186 C  
BRANCH   8   9
HETATM    9  C   UNK A   1     -10.374   9.419  67.743  1.00  0.00    -0.291 C  
BRANCH   9  10
HETATM   10  C   UNK A   1      -9.847  10.531  66.865  1.00  0.00    -0.193 C  
HETATM   11  O   UNK A   1      -8.913  11.250  67.207  1.00  0.00    -0.146 OA 
HETATM   12  N   UNK A   1     -10.472  10.651  65.652  1.00  0.00    -0.207 N  
HETATM   13  H   UNK A   1     -11.242  10.021  65.425  1.00  0.00     0.000 HD 
BRANCH  12  14
HETATM   14  C   UNK A   1     -10.068  11.656  64.674  1.00  0.00    -0.262 C  
BRANCH  14  15
HETATM   15  C   UNK A   1     -10.933  12.911  64.897  1.00  0.00    -0.301 C  
ATOM     16  H   GLY A   2      -9.345  14.119  64.275  1.00  0.00     0.000 HD 
ATOM     17  N   GLY A   2     -10.289  14.114  64.664  1.00  0.00    -0.384 N  
HETATM   18  O   UNK A   1     -12.129  12.846  65.172  1.00  0.00    -0.389 OA 
BRANCH  17  19
ATOM     19  CA  GLY A   2     -10.959  15.385  64.974  1.00  0.00    -0.436 C  
ATOM     20  C   GLY A   2     -10.191  16.252  65.969  1.00  0.00    -0.358 C  
ATOM     21  O   GLY A   2      -9.032  15.694  66.394  1.00  0.00    -0.275 OA 
ATOM     22  OXT GLY A   2     -10.592  17.329  66.386  1.00  0.00    -0.281 OA 
ENDBRANCH  17  19
ENDBRANCH  14  15
BRANCH  14  23
HETATM   23  C   UNK A   1     -10.284  11.213  63.218  1.00  0.00    -0.350 C  
HETATM   24  S   UNK A   1      -8.986  10.143  62.515  1.00  0.00    -0.299 SA 
HETATM   25  H   UNK A   1      -9.181   9.742  61.199  1.00  0.00     0.000 H  
ENDBRANCH  14  23
ENDBRANCH  12  14
ENDBRANCH   9  10
ENDBRANCH   8   9
ENDBRANCH   2   8
TORSDOF 7
ENDMDL
MODEL      189
REMARK 921   NORMALIZED FREE ENERGY PREDICTED BY IDOCK:   -3.86 KCAL/MOL
REMARK 922        TOTAL FREE ENERGY PREDICTED BY IDOCK:   -6.01 KCAL/MOL
REMARK 923 INTER-LIGAND FREE ENERGY PREDICTED BY IDOCK:   -6.07 KCAL/MOL
REMARK 924 INTRA-LIGAND FREE ENERGY PREDICTED BY IDOCK:    0.06 KCAL/MOL
REMARK 927      BINDING AFFINITY PREDICTED BY RF-SCORE:    0.00 PKD
ROOT
HETATM    1  N   UNK A   1      -9.043  10.947  66.765  1.00  0.00    -0.150 NA 
HETATM    2  C   UNK A   1     -10.535  10.901  66.798  1.00  0.00    -0.251 C  
HETATM    3  H2  UNK A   1      -8.656  10.036  66.524  1.00  0.00     0.000 HD 
HETATM    4  H1  UNK A   1      -8.683  11.673  66.145  1.00  0.00     0.000 HD 
HETATM    5  O   UNK A   1     -10.069  13.195  67.292  1.00  0.00    -0.229 OA 
HETATM    6  C   UNK A   1     -11.074  12.288  67.190  1.00  0.00    -0.278 C  
HETATM    7  O   UNK A   1     -12.246  12.550  67.413  1.00  0.00    -0.430 OA 
ENDROOT
BRANCH   2   8
HETATM    8  C   UNK A   1     -11.077   9.812  67.729  1.00  0.00    -0.142 C  
BRANCH   8   9
HETATM    9  C   UNK A   1     -10.163   8.592  67.879  1.00  0.00    -0.273 C  
BRANCH   9  10
HETATM   10  C   UNK A   1     -10.315   7.997  69.260  1.00  0.00    -0.220 C  
HETATM   11  O   UNK A   1      -9.514   8.220  70.163  1.00  0.00    -0.165 OA 
HETATM   12  N   UNK A   1     -11.428   7.216  69.431  1.00  0.00    -0.505 N  
HETATM   13  H   UNK A   1     -12.058   7.070  68.641  1.00  0.00     0.000 HD 
BRANCH  12  14
HETATM   14  C   UNK A   1     -11.739   6.588  70.711  1.00  0.00    -0.366 C  
BRANCH  14  15
HETATM   15  C   UNK A   1     -12.109   7.702  71.709  1.00  0.00    -0.305 C  
ATOM     16  H   GLY A   2     -13.771   8.198  70.541  1.00  0.00     0.000 HD 
ATOM     17  N   GLY A   2     -13.214   8.459  71.355  1.00  0.00    -0.266 N  
HETATM   18  O   UNK A   1     -11.525   7.847  72.780  1.00  0.00    -0.390 OA 
BRANCH  17  19
ATOM     19  CA  GLY A   2     -13.587   9.639  72.149  1.00  0.00    -0.389 C  
ATOM     20  C   GLY A   2     -13.047  10.951  71.582  1.00  0.00    -0.433 C  
ATOM     21  O   GLY A   2     -12.316  10.794  70.453  1.00  0.00    -0.306 OA 
ATOM     22  OXT GLY A   2     -13.214  12.040  72.111  1.00  0.00    -0.495 OA 
ENDBRANCH  17  19
ENDBRANCH  14  15
BRANCH  14  23
HETATM   23  C   UNK A   1     -10.556   5.816  71.315  1.00  0.00    -0.257 C  
HETATM   24  S   UNK A   1      -9.845   4.506  70.266  1.00  0.00    -0.216 SA 
HETATM   25  H   UNK A   1      -8.775   3.808  70.813  1.00  0.00     0.000 H  
ENDBRANCH  14  23
ENDBRANCH  12  14
ENDBRANCH   9  10
ENDBRANCH   8   9
ENDBRANCH   2   8
TORSDOF 7
ENDMDL
MODEL      190
REMARK 921   NORMALIZED FREE ENERGY PREDICTED BY IDOCK:   -3.86 KCAL/MOL
REMARK 922        TOTAL FREE ENERGY PREDICTED BY IDOCK:   -6.00 KCAL/MOL
REMARK 923 INTER-LIGAND FREE ENERGY PREDICTED BY IDOCK:   -5.52 KCAL/MOL
REMARK 924 INTRA-LIGAND FREE ENERGY PREDICTED BY IDOCK:   -0.48 KCAL/MOL
REMARK 927      BINDING AFFINITY PREDICTED BY RF-SCORE:    0.00 PKD
ROOT
HETATM    1  N   UNK A   1     -11.396  15.536  64.177  1.00  0.00    -0.709 NA 
HETATM    2  C   UNK A   1     -11.130  15.335  65.632  1.00  0.00    -0.308 C  
HETATM    3  H2  UNK A   1     -11.749  14.681  63.749  1.00  0.00     0.000 HD 
HETATM    4  H1  UNK A   1     -12.020  16.321  63.992  1.00  0.00     0.000 HD 
HETATM    5  O   UNK A   1     -10.581  17.642  65.311  1.00  0.00    -0.663 OA 
HETATM    6  C   UNK A   1     -10.577  16.642  66.229  1.00  0.00    -0.205 C  
HETATM    7  O   UNK A   1     -10.157  16.771  67.368  1.00  0.00    -0.263 OA 
ENDROOT
BRANCH   2   8
HETATM    8  C   UNK A   1     -10.192  14.157  65.909  1.00  0.00    -0.332 C  
BRANCH   8   9
HETATM    9  C   UNK A   1     -10.904  12.831  66.197  1.00  0.00    -0.303 C  
BRANCH   9  10
HETATM   10  C   UNK A   1     -10.728  12.452  67.649  1.00  0.00    -0.221 C  
HETATM   11  O   UNK A   1      -9.999  13.084  68.408  1.00  0.00    -0.231 OA 
HETATM   12  N   UNK A   1     -11.465  11.371  68.055  1.00  0.00    -0.300 N  
HETATM   13  H   UNK A   1     -12.054  10.889  67.376  1.00  0.00     0.000 HD 
BRANCH  12  14
HETATM   14  C   UNK A   1     -11.430  10.890  69.432  1.00  0.00    -0.302 C  
BRANCH  14  15
HETATM   15  C   UNK A   1     -10.516   9.651  69.480  1.00  0.00    -0.224 C  
ATOM     16  H   GLY A   2      -9.909  10.171  71.411  1.00  0.00     0.000 HD 
ATOM     17  N   GLY A   2      -9.761   9.526  70.634  1.00  0.00    -0.267 N  
HETATM   18  O   UNK A   1     -10.524   8.793  68.601  1.00  0.00    -0.211 OA 
BRANCH  17  19
ATOM     19  CA  GLY A   2      -8.748   8.467  70.745  1.00  0.00    -0.160 C  
ATOM     20  C   GLY A   2      -7.313   8.987  70.677  1.00  0.00    -0.098 C  
ATOM     21  O   GLY A   2      -7.229  10.329  70.521  1.00  0.00    -0.297 OA 
ATOM     22  OXT GLY A   2      -6.326   8.267  70.714  1.00  0.00    -0.035 OA 
ENDBRANCH  17  19
ENDBRANCH  14  15
BRANCH  14  23
HETATM   23  C   UNK A   1     -12.806  10.455  69.961  1.00  0.00     0.074 C  
HETATM   24  S   UNK A   1     -12.953  10.323  71.773  1.00  0.00    -0.465 SA 
HETATM   25  H   UNK A   1     -14.197   9.930  72.251  1.00  0.00     0.000 H  
ENDBRANCH  14  23
ENDBRANCH  12  14
ENDBRANCH   9  10
ENDBRANCH   8   9
ENDBRANCH   2   8
TORSDOF 7
ENDMDL
MODEL      191
REMARK 921   NORMALIZED FREE ENERGY PREDICTED BY IDOCK:   -3.84 KCAL/MOL
REMARK 922        TOTAL FREE ENERGY PREDICTED BY IDOCK:   -5.97 KCAL/MOL
REMARK 923 INTER-LIGAND FREE ENERGY PREDICTED BY IDOCK:   -5.53 KCAL/MOL
REMARK 924 INTRA-LIGAND FREE ENERGY PREDICTED BY IDOCK:   -0.45 KCAL/MOL
REMARK 927      BINDING AFFINITY PREDICTED BY RF-SCORE:    0.00 PKD
ROOT
HETATM    1  N   UNK A   1     -11.537   8.011  73.024  1.00  0.00    -0.537 NA 
HETATM    2  C   UNK A   1     -11.954   7.898  71.595  1.00  0.00    -0.294 C  
HETATM    3  H2  UNK A   1     -11.818   8.910  73.415  1.00  0.00     0.000 HD 
HETATM    4  H1  UNK A   1     -11.878   7.241  73.599  1.00  0.00     0.000 HD 
HETATM    5  O   UNK A   1     -10.931   5.776  72.014  1.00  0.00    -0.245 OA 
HETATM    6  C   UNK A   1     -11.490   6.539  71.040  1.00  0.00    -0.336 C  
HETATM    7  O   UNK A   1     -11.578   6.189  69.874  1.00  0.00    -0.404 OA 
ENDROOT
BRANCH   2   8
HETATM    8  C   UNK A   1     -11.441   9.055  70.731  1.00  0.00    -0.331 C  
BRANCH   8   9
HETATM    9  C   UNK A   1      -9.970   9.414  70.959  1.00  0.00    -0.334 C  
BRANCH   9  10
HETATM   10  C   UNK A   1      -9.494  10.359  69.879  1.00  0.00     0.099 C  
HETATM   11  O   UNK A   1      -8.324  10.394  69.508  1.00  0.00    -0.162 OA 
HETATM   12  N   UNK A   1     -10.472  11.146  69.331  1.00  0.00    -0.407 N  
HETATM   13  H   UNK A   1     -11.427  11.068  69.682  1.00  0.00     0.000 HD 
BRANCH  12  14
HETATM   14  C   UNK A   1     -10.186  12.094  68.259  1.00  0.00    -0.208 C  
BRANCH  14  15
HETATM   15  C   UNK A   1     -10.961  13.392  68.554  1.00  0.00    -0.268 C  
ATOM     16  H   GLY A   2      -9.331  14.519  67.888  1.00  0.00     0.000 HD 
ATOM     17  N   GLY A   2     -10.255  14.560  68.321  1.00  0.00    -0.229 N  
HETATM   18  O   UNK A   1     -12.145  13.392  68.882  1.00  0.00    -0.331 OA 
BRANCH  17  19
ATOM     19  CA  GLY A   2     -10.830  15.860  68.694  1.00  0.00    -0.291 C  
ATOM     20  C   GLY A   2     -10.536  16.969  67.686  1.00  0.00    -0.333 C  
ATOM     21  O   GLY A   2      -9.792  16.560  66.631  1.00  0.00    -0.244 OA 
ATOM     22  OXT GLY A   2     -10.893  18.130  67.827  1.00  0.00    -0.385 OA 
ENDBRANCH  17  19
ENDBRANCH  14  15
BRANCH  14  23
HETATM   23  C   UNK A   1     -10.638  11.603  66.874  1.00  0.00    -0.241 C  
HETATM   24  S   UNK A   1     -10.641   9.797  66.635  1.00  0.00    -0.046 SA 
HETATM   25  H   UNK A   1     -11.050   9.353  65.384  1.00  0.00     0.000 H  
ENDBRANCH  14  23
ENDBRANCH  12  14
ENDBRANCH   9  10
ENDBRANCH   8   9
ENDBRANCH   2   8
TORSDOF 7
ENDMDL
MODEL      192
REMARK 921   NORMALIZED FREE ENERGY PREDICTED BY IDOCK:   -3.84 KCAL/MOL
REMARK 922        TOTAL FREE ENERGY PREDICTED BY IDOCK:   -5.97 KCAL/MOL
REMARK 923 INTER-LIGAND FREE ENERGY PREDICTED BY IDOCK:   -5.20 KCAL/MOL
REMARK 924 INTRA-LIGAND FREE ENERGY PREDICTED BY IDOCK:   -0.77 KCAL/MOL
REMARK 927      BINDING AFFINITY PREDICTED BY RF-SCORE:    0.00 PKD
ROOT
HETATM    1  N   UNK A   1      -9.171   7.234  70.129  1.00  0.00    -0.152 NA 
HETATM    2  C   UNK A   1     -10.045   6.897  71.291  1.00  0.00    -0.190 C  
HETATM    3  H2  UNK A   1      -9.119   8.243  69.992  1.00  0.00     0.000 HD 
HETATM    4  H1  UNK A   1      -8.239   6.827  70.202  1.00  0.00     0.000 HD 
HETATM    5  O   UNK A   1      -9.288   4.748  70.561  1.00  0.00    -0.134 OA 
HETATM    6  C   UNK A   1     -10.115   5.367  71.443  1.00  0.00    -0.202 C  
HETATM    7  O   UNK A   1     -10.834   4.771  72.228  1.00  0.00    -0.165 OA 
ENDROOT
BRANCH   2   8
HETATM    8  C   UNK A   1     -11.446   7.508  71.180  1.00  0.00    -0.295 C  
BRANCH   8   9
HETATM    9  C   UNK A   1     -11.557   8.942  71.705  1.00  0.00    -0.408 C  
BRANCH   9  10
HETATM   10  C   UNK A   1     -11.921   9.880  70.577  1.00  0.00    -0.239 C  
HETATM   11  O   UNK A   1     -12.902  10.618  70.629  1.00  0.00    -0.355 OA 
HETATM   12  N   UNK A   1     -11.059   9.863  69.513  1.00  0.00    -0.294 N  
HETATM   13  H   UNK A   1     -10.261   9.228  69.531  1.00  0.00     0.000 HD 
BRANCH  12  14
HETATM   14  C   UNK A   1     -11.251  10.728  68.353  1.00  0.00    -0.284 C  
BRANCH  14  15
HETATM   15  C   UNK A   1     -10.647  10.017  67.127  1.00  0.00    -0.232 C  
ATOM     16  H   GLY A   2     -10.502  11.851  66.134  1.00  0.00     0.000 HD 
ATOM     17  N   GLY A   2     -10.385  10.841  66.044  1.00  0.00    -0.251 N  
HETATM   18  O   UNK A   1     -10.336   8.829  67.141  1.00  0.00    -0.257 OA 
BRANCH  17  19
ATOM     19  CA  GLY A   2      -9.940  10.266  64.768  1.00  0.00    -0.321 C  
ATOM     20  C   GLY A   2     -10.148  11.195  63.574  1.00  0.00    -0.385 C  
ATOM     21  O   GLY A   2     -10.713  12.382  63.902  1.00  0.00    -0.357 OA 
ATOM     22  OXT GLY A   2      -9.879  10.894  62.421  1.00  0.00    -0.115 OA 
ENDBRANCH  17  19
ENDBRANCH  14  15
BRANCH  14  23
HETATM   23  C   UNK A   1     -10.545  12.086  68.481  1.00  0.00    -0.231 C  
HETATM   24  S   UNK A   1     -11.557  13.446  69.151  1.00  0.00    -0.332 SA 
HETATM   25  H   UNK A   1     -10.918  14.674  69.266  1.00  0.00     0.000 H  
ENDBRANCH  14  23
ENDBRANCH  12  14
ENDBRANCH   9  10
ENDBRANCH   8   9
ENDBRANCH   2   8
TORSDOF 7
ENDMDL
MODEL      193
REMARK 921   NORMALIZED FREE ENERGY PREDICTED BY IDOCK:   -3.81 KCAL/MOL
REMARK 922        TOTAL FREE ENERGY PREDICTED BY IDOCK:   -5.94 KCAL/MOL
REMARK 923 INTER-LIGAND FREE ENERGY PREDICTED BY IDOCK:   -5.29 KCAL/MOL
REMARK 924 INTRA-LIGAND FREE ENERGY PREDICTED BY IDOCK:   -0.65 KCAL/MOL
REMARK 927      BINDING AFFINITY PREDICTED BY RF-SCORE:    0.00 PKD
ROOT
HETATM    1  N   UNK A   1     -10.932  17.074  68.858  1.00  0.00    -0.257 NA 
HETATM    2  C   UNK A   1     -10.200  16.974  67.561  1.00  0.00    -0.323 C  
HETATM    3  H2  UNK A   1     -10.894  16.192  69.368  1.00  0.00     0.000 HD 
HETATM    4  H1  UNK A   1     -10.604  17.846  69.440  1.00  0.00     0.000 HD 
HETATM    5  O   UNK A   1     -10.932  19.252  67.578  1.00  0.00    -0.465 OA 
HETATM    6  C   UNK A   1     -10.305  18.318  66.817  1.00  0.00    -0.384 C  
HETATM    7  O   UNK A   1      -9.909  18.525  65.682  1.00  0.00    -0.428 OA 
ENDROOT
BRANCH   2   8
HETATM    8  C   UNK A   1     -10.693  15.816  66.687  1.00  0.00    -0.287 C  
BRANCH   8   9
HETATM    9  C   UNK A   1      -9.595  14.845  66.243  1.00  0.00    -0.334 C  
BRANCH   9  10
HETATM   10  C   UNK A   1      -9.377  13.789  67.302  1.00  0.00    -0.239 C  
HETATM   11  O   UNK A   1      -8.467  13.862  68.123  1.00  0.00    -0.155 OA 
HETATM   12  N   UNK A   1     -10.288  12.766  67.292  1.00  0.00    -0.231 N  
HETATM   13  H   UNK A   1     -11.023  12.763  66.584  1.00  0.00     0.000 HD 
BRANCH  12  14
HETATM   14  C   UNK A   1     -10.236  11.680  68.265  1.00  0.00    -0.199 C  
BRANCH  14  15
HETATM   15  C   UNK A   1      -9.853  10.389  67.515  1.00  0.00    -0.172 C  
ATOM     16  H   GLY A   2     -11.740   9.589  67.927  1.00  0.00     0.000 HD 
ATOM     17  N   GLY A   2     -10.820   9.397  67.529  1.00  0.00    -0.221 N  
HETATM   18  O   UNK A   1      -8.809  10.284  66.878  1.00  0.00    -0.132 OA 
BRANCH  17  19
ATOM     19  CA  GLY A   2     -10.525   8.070  66.971  1.00  0.00    -0.340 C  
ATOM     20  C   GLY A   2     -10.479   6.963  68.023  1.00  0.00    -0.211 C  
ATOM     21  O   GLY A   2     -10.711   7.402  69.283  1.00  0.00    -0.223 OA 
ATOM     22  OXT GLY A   2     -10.214   5.797  67.772  1.00  0.00    -0.158 OA 
ENDBRANCH  17  19
ENDBRANCH  14  15
BRANCH  14  23
HETATM   23  C   UNK A   1     -11.582  11.417  68.958  1.00  0.00    -0.317 C  
HETATM   24  S   UNK A   1     -12.037  12.589  70.277  1.00  0.00    -0.208 SA 
HETATM   25  H   UNK A   1     -13.255  12.351  70.904  1.00  0.00     0.000 H  
ENDBRANCH  14  23
ENDBRANCH  12  14
ENDBRANCH   9  10
ENDBRANCH   8   9
ENDBRANCH   2   8
TORSDOF 7
ENDMDL
MODEL      194
REMARK 921   NORMALIZED FREE ENERGY PREDICTED BY IDOCK:   -3.81 KCAL/MOL
REMARK 922        TOTAL FREE ENERGY PREDICTED BY IDOCK:   -5.93 KCAL/MOL
REMARK 923 INTER-LIGAND FREE ENERGY PREDICTED BY IDOCK:   -5.38 KCAL/MOL
REMARK 924 INTRA-LIGAND FREE ENERGY PREDICTED BY IDOCK:   -0.55 KCAL/MOL
REMARK 927      BINDING AFFINITY PREDICTED BY RF-SCORE:    0.00 PKD
ROOT
HETATM    1  N   UNK A   1      -7.090  10.297  68.933  1.00  0.00    -0.071 NA 
HETATM    2  C   UNK A   1      -8.011   9.484  69.782  1.00  0.00    -0.133 C  
HETATM    3  H2  UNK A   1      -7.340  11.285  68.965  1.00  0.00     0.000 HD 
HETATM    4  H1  UNK A   1      -6.107  10.162  69.171  1.00  0.00     0.000 HD 
HETATM    5  O   UNK A   1      -6.480   7.846  68.948  1.00  0.00    -0.045 OA 
HETATM    6  C   UNK A   1      -7.611   8.001  69.683  1.00  0.00    -0.096 C  
HETATM    7  O   UNK A   1      -8.234   7.072  70.170  1.00  0.00    -0.128 OA 
ENDROOT
BRANCH   2   8
HETATM    8  C   UNK A   1      -9.486   9.687  69.424  1.00  0.00    -0.201 C  
BRANCH   8   9
HETATM    9  C   UNK A   1      -9.758  10.876  68.497  1.00  0.00    -0.183 C  
BRANCH   9  10
HETATM   10  C   UNK A   1     -11.137  11.435  68.761  1.00  0.00    -0.235 C  
HETATM   11  O   UNK A   1     -12.054  11.326  67.952  1.00  0.00    -0.634 OA 
HETATM   12  N   UNK A   1     -11.289  12.042  69.980  1.00  0.00    -0.507 N  
HETATM   13  H   UNK A   1     -10.488  12.098  70.609  1.00  0.00     0.000 HD 
BRANCH  12  14
HETATM   14  C   UNK A   1     -12.564  12.610  70.403  1.00  0.00    -0.041 C  
BRANCH  14  15
HETATM   15  C   UNK A   1     -12.360  14.121  70.624  1.00  0.00    -0.365 C  
ATOM     16  H   GLY A   2     -11.075  14.190  68.977  1.00  0.00     0.000 HD 
ATOM     17  N   GLY A   2     -11.466  14.723  69.754  1.00  0.00    -0.277 N  
HETATM   18  O   UNK A   1     -13.011  14.759  71.448  1.00  0.00    -0.304 OA 
BRANCH  17  19
ATOM     19  CA  GLY A   2     -11.078  16.127  69.947  1.00  0.00    -0.357 C  
ATOM     20  C   GLY A   2     -10.753  16.855  68.644  1.00  0.00    -0.345 C  
ATOM     21  O   GLY A   2     -10.873  16.075  67.543  1.00  0.00    -0.317 OA 
ATOM     22  OXT GLY A   2     -10.376  18.016  68.589  1.00  0.00    -0.369 OA 
ENDBRANCH  17  19
ENDBRANCH  14  15
BRANCH  14  23
HETATM   23  C   UNK A   1     -13.083  12.027  71.727  1.00  0.00    -0.355 C  
HETATM   24  S   UNK A   1     -13.233  10.212  71.788  1.00  0.00    -0.422 SA 
HETATM   25  H   UNK A   1     -13.702   9.684  72.985  1.00  0.00     0.000 H  
ENDBRANCH  14  23
ENDBRANCH  12  14
ENDBRANCH   9  10
ENDBRANCH   8   9
ENDBRANCH   2   8
TORSDOF 7
ENDMDL
MODEL      195
REMARK 921   NORMALIZED FREE ENERGY PREDICTED BY IDOCK:   -3.80 KCAL/MOL
REMARK 922        TOTAL FREE ENERGY PREDICTED BY IDOCK:   -5.92 KCAL/MOL
REMARK 923 INTER-LIGAND FREE ENERGY PREDICTED BY IDOCK:   -6.34 KCAL/MOL
REMARK 924 INTRA-LIGAND FREE ENERGY PREDICTED BY IDOCK:    0.42 KCAL/MOL
REMARK 927      BINDING AFFINITY PREDICTED BY RF-SCORE:    0.00 PKD
ROOT
HETATM    1  N   UNK A   1     -10.843  16.839  69.699  1.00  0.00    -0.376 NA 
HETATM    2  C   UNK A   1     -11.712  15.655  69.433  1.00  0.00    -0.383 C  
HETATM    3  H2  UNK A   1     -10.352  17.129  68.853  1.00  0.00     0.000 HD 
HETATM    4  H1  UNK A   1     -11.353  17.621  70.110  1.00  0.00     0.000 HD 
HETATM    5  O   UNK A   1     -12.139  16.114  71.742  1.00  0.00    -0.472 OA 
HETATM    6  C   UNK A   1     -12.411  15.239  70.740  1.00  0.00    -0.402 C  
HETATM    7  O   UNK A   1     -13.100  14.241  70.882  1.00  0.00    -0.350 OA 
ENDROOT
BRANCH   2   8
HETATM    8  C   UNK A   1     -10.946  14.480  68.816  1.00  0.00    -0.262 C  
BRANCH   8   9
HETATM    9  C   UNK A   1     -11.473  13.098  69.215  1.00  0.00    -0.348 C  
BRANCH   9  10
HETATM   10  C   UNK A   1     -11.696  12.253  67.982  1.00  0.00    -0.356 C  
HETATM   11  O   UNK A   1     -12.014  11.069  68.047  1.00  0.00    -0.623 OA 
HETATM   12  N   UNK A   1     -11.545  12.917  66.793  1.00  0.00    -0.341 N  
HETATM   13  H   UNK A   1     -11.281  13.903  66.805  1.00  0.00     0.000 HD 
BRANCH  12  14
HETATM   14  C   UNK A   1     -11.751  12.254  65.510  1.00  0.00    -0.377 C  
BRANCH  14  15
HETATM   15  C   UNK A   1     -10.392  11.703  65.037  1.00  0.00    -0.281 C  
ATOM     16  H   GLY A   2     -11.376  10.338  63.796  1.00  0.00     0.000 HD 
ATOM     17  N   GLY A   2     -10.469  10.636  64.157  1.00  0.00    -0.255 N  
HETATM   18  O   UNK A   1      -9.325  12.228  65.345  1.00  0.00    -0.055 OA 
BRANCH  17  19
ATOM     19  CA  GLY A   2      -9.249   9.930  63.742  1.00  0.00    -0.243 C  
ATOM     20  C   GLY A   2      -8.720   8.956  64.793  1.00  0.00    -0.127 C  
ATOM     21  O   GLY A   2      -9.465   8.920  65.923  1.00  0.00    -0.237 OA 
ATOM     22  OXT GLY A   2      -7.698   8.299  64.659  1.00  0.00    -0.102 OA 
ENDBRANCH  17  19
ENDBRANCH  14  15
BRANCH  14  23
HETATM   23  C   UNK A   1     -12.261  13.199  64.410  1.00  0.00    -0.398 C  
HETATM   24  S   UNK A   1     -11.823  14.957  64.609  1.00  0.00    -0.352 SA 
HETATM   25  H   UNK A   1     -12.285  15.811  63.615  1.00  0.00     0.000 H  
ENDBRANCH  14  23
ENDBRANCH  12  14
ENDBRANCH   9  10
ENDBRANCH   8   9
ENDBRANCH   2   8
TORSDOF 7
ENDMDL
MODEL      196
REMARK 921   NORMALIZED FREE ENERGY PREDICTED BY IDOCK:   -3.80 KCAL/MOL
REMARK 922        TOTAL FREE ENERGY PREDICTED BY IDOCK:   -5.91 KCAL/MOL
REMARK 923 INTER-LIGAND FREE ENERGY PREDICTED BY IDOCK:   -5.20 KCAL/MOL
REMARK 924 INTRA-LIGAND FREE ENERGY PREDICTED BY IDOCK:   -0.71 KCAL/MOL
REMARK 927      BINDING AFFINITY PREDICTED BY RF-SCORE:    0.00 PKD
ROOT
HETATM    1  N   UNK A   1      -8.243   9.730  70.594  1.00  0.00    -0.389 NA 
HETATM    2  C   UNK A   1      -8.531   9.495  69.148  1.00  0.00    -0.131 C  
HETATM    3  H2  UNK A   1      -9.106   9.867  71.120  1.00  0.00     0.000 HD 
HETATM    4  H1  UNK A   1      -7.676   8.991  71.011  1.00  0.00     0.000 HD 
HETATM    5  O   UNK A   1      -6.147   9.314  69.246  1.00  0.00    -0.040 OA 
HETATM    6  C   UNK A   1      -7.202   9.318  68.391  1.00  0.00    -0.076 C  
HETATM    7  O   UNK A   1      -7.091   9.222  67.180  1.00  0.00    -0.084 OA 
ENDROOT
BRANCH   2   8
HETATM    8  C   UNK A   1      -9.382  10.604  68.522  1.00  0.00    -0.170 C  
BRANCH   8   9
HETATM    9  C   UNK A   1     -10.336  10.129  67.422  1.00  0.00    -0.289 C  
BRANCH   9  10
HETATM   10  C   UNK A   1     -10.166  10.981  66.185  1.00  0.00    -0.247 C  
HETATM   11  O   UNK A   1      -9.694  10.537  65.142  1.00  0.00    -0.236 OA 
HETATM   12  N   UNK A   1     -10.604  12.273  66.312  1.00  0.00    -0.245 N  
HETATM   13  H   UNK A   1     -10.988  12.581  67.205  1.00  0.00     0.000 HD 
BRANCH  12  14
HETATM   14  C   UNK A   1     -10.538  13.220  65.204  1.00  0.00    -0.330 C  
BRANCH  14  15
HETATM   15  C   UNK A   1     -10.042  14.568  65.762  1.00  0.00    -0.342 C  
ATOM     16  H   GLY A   2      -9.843  13.712  67.658  1.00  0.00     0.000 HD 
ATOM     17  N   GLY A   2      -9.791  14.580  67.124  1.00  0.00    -0.241 N  
HETATM   18  O   UNK A   1      -9.802  15.532  65.038  1.00  0.00    -0.290 OA 
BRANCH  17  19
ATOM     19  CA  GLY A   2      -9.448  15.838  67.802  1.00  0.00    -0.212 C  
ATOM     20  C   GLY A   2     -10.577  16.388  68.672  1.00  0.00    -0.305 C  
ATOM     21  O   GLY A   2     -11.694  15.623  68.659  1.00  0.00    -0.366 OA 
ATOM     22  OXT GLY A   2     -10.508  17.440  69.291  1.00  0.00    -0.341 OA 
ENDBRANCH  17  19
ENDBRANCH  14  15
BRANCH  14  23
HETATM   23  C   UNK A   1     -11.899  13.480  64.540  1.00  0.00    -0.405 C  
HETATM   24  S   UNK A   1     -12.535  12.136  63.485  1.00  0.00    -0.460 SA 
HETATM   25  H   UNK A   1     -13.766  12.371  62.885  1.00  0.00     0.000 H  
ENDBRANCH  14  23
ENDBRANCH  12  14
ENDBRANCH   9  10
ENDBRANCH   8   9
ENDBRANCH   2   8
TORSDOF 7
ENDMDL
MODEL      197
REMARK 921   NORMALIZED FREE ENERGY PREDICTED BY IDOCK:   -3.79 KCAL/MOL
REMARK 922        TOTAL FREE ENERGY PREDICTED BY IDOCK:   -5.91 KCAL/MOL
REMARK 923 INTER-LIGAND FREE ENERGY PREDICTED BY IDOCK:   -5.18 KCAL/MOL
REMARK 924 INTRA-LIGAND FREE ENERGY PREDICTED BY IDOCK:   -0.73 KCAL/MOL
REMARK 927      BINDING AFFINITY PREDICTED BY RF-SCORE:    0.00 PKD
ROOT
HETATM    1  N   UNK A   1     -12.572  12.589  65.646  1.00  0.00    -0.517 NA 
HETATM    2  C   UNK A   1     -12.412  14.061  65.837  1.00  0.00    -0.481 C  
HETATM    3  H2  UNK A   1     -12.806  12.130  66.526  1.00  0.00     0.000 HD 
HETATM    4  H1  UNK A   1     -13.250  12.355  64.921  1.00  0.00     0.000 HD 
HETATM    5  O   UNK A   1     -12.057  13.794  63.486  1.00  0.00    -0.463 OA 
HETATM    6  C   UNK A   1     -12.036  14.707  64.492  1.00  0.00    -0.460 C  
HETATM    7  O   UNK A   1     -11.727  15.877  64.336  1.00  0.00    -0.377 OA 
ENDROOT
BRANCH   2   8
HETATM    8  C   UNK A   1     -11.394  14.413  66.926  1.00  0.00    -0.357 C  
BRANCH   8   9
HETATM    9  C   UNK A   1     -11.126  13.290  67.933  1.00  0.00    -0.287 C  
BRANCH   9  10
HETATM   10  C   UNK A   1      -9.804  12.624  67.627  1.00  0.00    -0.210 C  
HETATM   11  O   UNK A   1      -9.501  12.258  66.495  1.00  0.00    -0.226 OA 
HETATM   12  N   UNK A   1      -8.965  12.490  68.701  1.00  0.00    -0.388 N  
HETATM   13  H   UNK A   1      -9.275  12.816  69.617  1.00  0.00     0.000 HD 
BRANCH  12  14
HETATM   14  C   UNK A   1      -7.640  11.892  68.573  1.00  0.00    -0.127 C  
BRANCH  14  15
HETATM   15  C   UNK A   1      -7.719  10.446  69.099  1.00  0.00    -0.126 C  
ATOM     16  H   GLY A   2      -9.483  10.911  70.118  1.00  0.00     0.000 HD 
ATOM     17  N   GLY A   2      -8.776  10.193  69.957  1.00  0.00    -0.079 N  
HETATM   18  O   UNK A   1      -6.956   9.563  68.713  1.00  0.00    -0.065 OA 
BRANCH  17  19
ATOM     19  CA  GLY A   2      -8.883   8.894  70.635  1.00  0.00    -0.198 C  
ATOM     20  C   GLY A   2     -10.243   8.222  70.455  1.00  0.00    -0.198 C  
ATOM     21  O   GLY A   2     -11.110   8.945  69.707  1.00  0.00    -0.200 OA 
ATOM     22  OXT GLY A   2     -10.548   7.155  70.967  1.00  0.00    -0.219 OA 
ENDBRANCH  17  19
ENDBRANCH  14  15
BRANCH  14  23
HETATM   23  C   UNK A   1      -6.563  12.614  69.398  1.00  0.00    -0.067 C  
HETATM   24  S   UNK A   1      -6.552  14.432  69.270  1.00  0.00    -0.129 SA 
HETATM   25  H   UNK A   1      -5.578  15.084  70.016  1.00  0.00     0.000 H  
ENDBRANCH  14  23
ENDBRANCH  12  14
ENDBRANCH   9  10
ENDBRANCH   8   9
ENDBRANCH   2   8
TORSDOF 7
ENDMDL
MODEL      198
REMARK 921   NORMALIZED FREE ENERGY PREDICTED BY IDOCK:   -3.79 KCAL/MOL
REMARK 922        TOTAL FREE ENERGY PREDICTED BY IDOCK:   -5.90 KCAL/MOL
REMARK 923 INTER-LIGAND FREE ENERGY PREDICTED BY IDOCK:   -5.38 KCAL/MOL
REMARK 924 INTRA-LIGAND FREE ENERGY PREDICTED BY IDOCK:   -0.52 KCAL/MOL
REMARK 927      BINDING AFFINITY PREDICTED BY RF-SCORE:    0.00 PKD
ROOT
HETATM    1  N   UNK A   1     -12.286  10.840  69.026  1.00  0.00    -0.768 NA 
HETATM    2  C   UNK A   1     -10.824  10.608  68.837  1.00  0.00    -0.231 C  
HETATM    3  H2  UNK A   1     -12.668  11.399  68.264  1.00  0.00     0.000 HD 
HETATM    4  H1  UNK A   1     -12.813   9.975  69.144  1.00  0.00     0.000 HD 
HETATM    5  O   UNK A   1     -11.291   9.402  70.849  1.00  0.00    -0.270 OA 
HETATM    6  C   UNK A   1     -10.286   9.783  70.020  1.00  0.00    -0.263 C  
HETATM    7  O   UNK A   1      -9.110   9.522  70.218  1.00  0.00    -0.225 OA 
ENDROOT
BRANCH   2   8
HETATM    8  C   UNK A   1     -10.032  11.907  68.660  1.00  0.00    -0.163 C  
BRANCH   8   9
HETATM    9  C   UNK A   1      -8.987  11.868  67.541  1.00  0.00    -0.171 C  
BRANCH   9  10
HETATM   10  C   UNK A   1      -9.303  12.917  66.500  1.00  0.00    -0.222 C  
HETATM   11  O   UNK A   1      -9.707  12.626  65.377  1.00  0.00    -0.187 OA 
HETATM   12  N   UNK A   1      -9.131  14.211  66.915  1.00  0.00    -0.241 N  
HETATM   13  H   UNK A   1      -8.794  14.387  67.862  1.00  0.00     0.000 HD 
BRANCH  12  14
HETATM   14  C   UNK A   1      -9.418  15.344  66.042  1.00  0.00    -0.346 C  
BRANCH  14  15
HETATM   15  C   UNK A   1      -8.597  16.548  66.543  1.00  0.00    -0.286 C  
ATOM     16  H   GLY A   2      -8.070  15.477  68.259  1.00  0.00     0.000 HD 
ATOM     17  N   GLY A   2      -8.017  16.382  67.790  1.00  0.00    -0.147 N  
HETATM   18  O   UNK A   1      -8.396  17.542  65.850  1.00  0.00    -0.538 OA 
BRANCH  17  19
ATOM     19  CA  GLY A   2      -7.327  17.504  68.441  1.00  0.00    -0.230 C  
ATOM     20  C   GLY A   2      -6.231  17.067  69.410  1.00  0.00    -0.232 C  
ATOM     21  O   GLY A   2      -6.094  15.723  69.503  1.00  0.00    -0.130 OA 
ATOM     22  OXT GLY A   2      -5.563  17.843  70.078  1.00  0.00    -0.220 OA 
ENDBRANCH  17  19
ENDBRANCH  14  15
BRANCH  14  23
HETATM   23  C   UNK A   1     -10.895  15.768  66.057  1.00  0.00    -0.255 C  
HETATM   24  S   UNK A   1     -11.899  15.188  64.651  1.00  0.00    -0.253 SA 
HETATM   25  H   UNK A   1     -13.235  15.571  64.664  1.00  0.00     0.000 H  
ENDBRANCH  14  23
ENDBRANCH  12  14
ENDBRANCH   9  10
ENDBRANCH   8   9
ENDBRANCH   2   8
TORSDOF 7
ENDMDL
MODEL      199
REMARK 921   NORMALIZED FREE ENERGY PREDICTED BY IDOCK:   -3.78 KCAL/MOL
REMARK 922        TOTAL FREE ENERGY PREDICTED BY IDOCK:   -5.90 KCAL/MOL
REMARK 923 INTER-LIGAND FREE ENERGY PREDICTED BY IDOCK:   -5.32 KCAL/MOL
REMARK 924 INTRA-LIGAND FREE ENERGY PREDICTED BY IDOCK:   -0.58 KCAL/MOL
REMARK 927      BINDING AFFINITY PREDICTED BY RF-SCORE:    0.00 PKD
ROOT
HETATM    1  N   UNK A   1     -11.525  10.232  69.541  1.00  0.00    -0.362 NA 
HETATM    2  C   UNK A   1     -11.013   9.769  68.217  1.00  0.00    -0.164 C  
HETATM    3  H2  UNK A   1     -12.306  10.878  69.424  1.00  0.00     0.000 HD 
HETATM    4  H1  UNK A   1     -11.778   9.463  70.160  1.00  0.00     0.000 HD 
HETATM    5  O   UNK A   1      -9.631   8.576  69.763  1.00  0.00    -0.168 OA 
HETATM    6  C   UNK A   1      -9.823   8.819  68.441  1.00  0.00    -0.171 C  
HETATM    7  O   UNK A   1      -9.116   8.358  67.559  1.00  0.00    -0.133 OA 
ENDROOT
BRANCH   2   8
HETATM    8  C   UNK A   1     -10.633  10.925  67.287  1.00  0.00    -0.296 C  
BRANCH   8   9
HETATM    9  C   UNK A   1      -9.816  12.035  67.954  1.00  0.00    -0.196 C  
BRANCH   9  10
HETATM   10  C   UNK A   1     -10.495  13.370  67.754  1.00  0.00    -0.243 C  
HETATM   11  O   UNK A   1     -11.245  13.589  66.807  1.00  0.00    -0.298 OA 
HETATM   12  N   UNK A   1     -10.231  14.302  68.724  1.00  0.00    -0.234 N  
HETATM   13  H   UNK A   1      -9.600  14.058  69.487  1.00  0.00     0.000 HD 
BRANCH  12  14
HETATM   14  C   UNK A   1     -10.828  15.633  68.695  1.00  0.00    -0.273 C  
BRANCH  14  15
HETATM   15  C   UNK A   1      -9.686  16.664  68.629  1.00  0.00    -0.248 C  
ATOM     16  H   GLY A   2     -11.006  18.169  69.230  1.00  0.00     0.000 HD 
ATOM     17  N   GLY A   2     -10.059  17.968  68.908  1.00  0.00    -0.376 N  
HETATM   18  O   UNK A   1      -8.517  16.340  68.433  1.00  0.00    -0.180 OA 
BRANCH  17  19
ATOM     19  CA  GLY A   2      -9.095  19.065  68.743  1.00  0.00    -0.333 C  
ATOM     20  C   GLY A   2      -9.171  19.743  67.376  1.00  0.00    -0.338 C  
ATOM     21  O   GLY A   2     -10.108  19.209  66.557  1.00  0.00    -0.347 OA 
ATOM     22  OXT GLY A   2      -8.433  20.651  67.025  1.00  0.00    -0.276 OA 
ENDBRANCH  17  19
ENDBRANCH  14  15
BRANCH  14  23
HETATM   23  C   UNK A   1     -11.657  15.957  69.948  1.00  0.00    -0.336 C  
HETATM   24  S   UNK A   1     -12.695  14.602  70.585  1.00  0.00    -0.350 SA 
HETATM   25  H   UNK A   1     -13.444  14.895  71.718  1.00  0.00     0.000 H  
ENDBRANCH  14  23
ENDBRANCH  12  14
ENDBRANCH   9  10
ENDBRANCH   8   9
ENDBRANCH   2   8
TORSDOF 7
ENDMDL
MODEL      200
REMARK 921   NORMALIZED FREE ENERGY PREDICTED BY IDOCK:   -3.78 KCAL/MOL
REMARK 922        TOTAL FREE ENERGY PREDICTED BY IDOCK:   -5.89 KCAL/MOL
REMARK 923 INTER-LIGAND FREE ENERGY PREDICTED BY IDOCK:   -6.14 KCAL/MOL
REMARK 924 INTRA-LIGAND FREE ENERGY PREDICTED BY IDOCK:    0.24 KCAL/MOL
REMARK 927      BINDING AFFINITY PREDICTED BY RF-SCORE:    0.00 PKD
ROOT
HETATM    1  N   UNK A   1     -11.788   8.100  72.781  1.00  0.00    -0.557 NA 
HETATM    2  C   UNK A   1     -11.242   8.330  71.411  1.00  0.00    -0.255 C  
HETATM    3  H2  UNK A   1     -12.749   7.760  72.739  1.00  0.00     0.000 HD 
HETATM    4  H1  UNK A   1     -11.205   7.478  73.342  1.00  0.00     0.000 HD 
HETATM    5  O   UNK A   1      -9.386   8.880  72.816  1.00  0.00    -0.227 OA 
HETATM    6  C   UNK A   1      -9.803   8.864  71.524  1.00  0.00    -0.314 C  
HETATM    7  O   UNK A   1      -9.123   9.255  70.589  1.00  0.00    -0.226 OA 
ENDROOT
BRANCH   2   8
HETATM    8  C   UNK A   1     -12.117   9.264  70.569  1.00  0.00    -0.062 C  
BRANCH   8   9
HETATM    9  C   UNK A   1     -11.772  10.750  70.704  1.00  0.00    -0.442 C  
BRANCH   9  10
HETATM   10  C   UNK A   1     -11.426  11.327  69.351  1.00  0.00    -0.301 C  
HETATM   11  O   UNK A   1     -12.128  11.143  68.361  1.00  0.00    -0.605 OA 
HETATM   12  N   UNK A   1     -10.289  12.090  69.325  1.00  0.00    -0.421 N  
HETATM   13  H   UNK A   1      -9.749  12.207  70.183  1.00  0.00     0.000 HD 
BRANCH  12  14
HETATM   14  C   UNK A   1      -9.828  12.742  68.103  1.00  0.00    -0.226 C  
BRANCH  14  15
HETATM   15  C   UNK A   1     -10.659  14.025  67.907  1.00  0.00    -0.244 C  
ATOM     16  H   GLY A   2      -9.269  15.101  69.038  1.00  0.00     0.000 HD 
ATOM     17  N   GLY A   2     -10.170  15.144  68.561  1.00  0.00    -0.226 N  
HETATM   18  O   UNK A   1     -11.629  14.072  67.154  1.00  0.00    -0.332 OA 
BRANCH  17  19
ATOM     19  CA  GLY A   2     -10.944  16.393  68.568  1.00  0.00    -0.350 C  
ATOM     20  C   GLY A   2     -10.320  17.502  67.723  1.00  0.00    -0.367 C  
ATOM     21  O   GLY A   2      -9.162  17.139  67.121  1.00  0.00    -0.228 OA 
ATOM     22  OXT GLY A   2     -10.787  18.627  67.625  1.00  0.00    -0.418 OA 
ENDBRANCH  17  19
ENDBRANCH  14  15
BRANCH  14  23
HETATM   23  C   UNK A   1     -10.019  11.884  66.843  1.00  0.00    -0.200 C  
HETATM   24  S   UNK A   1      -8.843  10.507  66.636  1.00  0.00    -0.137 SA 
HETATM   25  H   UNK A   1      -9.016   9.731  65.497  1.00  0.00     0.000 H  
ENDBRANCH  14  23
ENDBRANCH  12  14
ENDBRANCH   9  10
ENDBRANCH   8   9
ENDBRANCH   2   8
TORSDOF 7
ENDMDL
MODEL      201
REMARK 921   NORMALIZED FREE ENERGY PREDICTED BY IDOCK:   -3.78 KCAL/MOL
REMARK 922        TOTAL FREE ENERGY PREDICTED BY IDOCK:   -5.89 KCAL/MOL
REMARK 923 INTER-LIGAND FREE ENERGY PREDICTED BY IDOCK:   -5.19 KCAL/MOL
REMARK 924 INTRA-LIGAND FREE ENERGY PREDICTED BY IDOCK:   -0.70 KCAL/MOL
REMARK 927      BINDING AFFINITY PREDICTED BY RF-SCORE:    0.00 PKD
ROOT
HETATM    1  N   UNK A   1     -11.873  13.593  63.905  1.00  0.00    -0.628 NA 
HETATM    2  C   UNK A   1     -12.090  12.419  64.802  1.00  0.00    -0.416 C  
HETATM    3  H2  UNK A   1     -11.915  13.316  62.924  1.00  0.00     0.000 HD 
HETATM    4  H1  UNK A   1     -12.517  14.361  64.094  1.00  0.00     0.000 HD 
HETATM    5  O   UNK A   1     -11.847  14.227  66.350  1.00  0.00    -0.383 OA 
HETATM    6  C   UNK A   1     -11.993  12.880  66.267  1.00  0.00    -0.408 C  
HETATM    7  O   UNK A   1     -12.013  12.141  67.238  1.00  0.00    -0.573 OA 
ENDROOT
BRANCH   2   8
HETATM    8  C   UNK A   1     -11.123  11.265  64.517  1.00  0.00    -0.245 C  
BRANCH   8   9
HETATM    9  C   UNK A   1      -9.673  11.535  64.929  1.00  0.00    -0.264 C  
BRANCH   9  10
HETATM   10  C   UNK A   1      -9.217  10.500  65.931  1.00  0.00    -0.179 C  
HETATM   11  O   UNK A   1      -8.380  10.747  66.795  1.00  0.00    -0.128 OA 
HETATM   12  N   UNK A   1      -9.831   9.281  65.818  1.00  0.00    -0.408 N  
HETATM   13  H   UNK A   1     -10.520   9.138  65.080  1.00  0.00     0.000 HD 
BRANCH  12  14
HETATM   14  C   UNK A   1      -9.526   8.178  66.725  1.00  0.00    -0.198 C  
BRANCH  14  15
HETATM   15  C   UNK A   1      -8.425   7.319  66.074  1.00  0.00    -0.145 C  
ATOM     16  H   GLY A   2      -9.885   6.076  65.242  1.00  0.00     0.000 HD 
ATOM     17  N   GLY A   2      -8.882   6.214  65.376  1.00  0.00    -0.067 N  
HETATM   18  O   UNK A   1      -7.240   7.642  66.095  1.00  0.00    -0.068 OA 
BRANCH  17  19
ATOM     19  CA  GLY A   2      -7.930   5.239  64.828  1.00  0.00    -0.107 C  
ATOM     20  C   GLY A   2      -8.251   3.794  65.205  1.00  0.00    -0.097 C  
ATOM     21  O   GLY A   2      -9.353   3.668  65.983  1.00  0.00    -0.157 OA 
ATOM     22  OXT GLY A   2      -7.564   2.837  64.881  1.00  0.00    -0.073 OA 
ENDBRANCH  17  19
ENDBRANCH  14  15
BRANCH  14  23
HETATM   23  C   UNK A   1     -10.725   7.253  66.986  1.00  0.00    -0.336 C  
HETATM   24  S   UNK A   1     -10.730   6.398  68.595  1.00  0.00    -0.313 SA 
HETATM   25  H   UNK A   1     -11.814   5.561  68.831  1.00  0.00     0.000 H  
ENDBRANCH  14  23
ENDBRANCH  12  14
ENDBRANCH   9  10
ENDBRANCH   8   9
ENDBRANCH   2   8
TORSDOF 7
ENDMDL
MODEL      202
REMARK 921   NORMALIZED FREE ENERGY PREDICTED BY IDOCK:   -3.78 KCAL/MOL
REMARK 922        TOTAL FREE ENERGY PREDICTED BY IDOCK:   -5.89 KCAL/MOL
REMARK 923 INTER-LIGAND FREE ENERGY PREDICTED BY IDOCK:   -5.25 KCAL/MOL
REMARK 924 INTRA-LIGAND FREE ENERGY PREDICTED BY IDOCK:   -0.64 KCAL/MOL
REMARK 927      BINDING AFFINITY PREDICTED BY RF-SCORE:    0.00 PKD
ROOT
HETATM    1  N   UNK A   1      -6.853   9.991  63.591  1.00  0.00    -0.129 NA 
HETATM    2  C   UNK A   1      -7.237   9.439  64.923  1.00  0.00    -0.106 C  
HETATM    3  H2  UNK A   1      -6.371  10.884  63.691  1.00  0.00     0.000 HD 
HETATM    4  H1  UNK A   1      -6.300   9.339  63.035  1.00  0.00     0.000 HD 
HETATM    5  O   UNK A   1      -7.993   7.744  63.414  1.00  0.00    -0.139 OA 
HETATM    6  C   UNK A   1      -7.982   8.108  64.722  1.00  0.00    -0.147 C  
HETATM    7  O   UNK A   1      -8.523   7.464  65.608  1.00  0.00    -0.136 OA 
ENDROOT
BRANCH   2   8
HETATM    8  C   UNK A   1      -8.068  10.420  65.758  1.00  0.00    -0.155 C  
BRANCH   8   9
HETATM    9  C   UNK A   1      -7.808  10.350  67.266  1.00  0.00    -0.106 C  
BRANCH   9  10
HETATM   10  C   UNK A   1      -8.820  11.193  68.006  1.00  0.00    -0.142 C  
HETATM   11  O   UNK A   1      -9.555  10.727  68.871  1.00  0.00    -0.188 OA 
HETATM   12  N   UNK A   1      -8.830  12.518  67.657  1.00  0.00    -0.169 N  
HETATM   13  H   UNK A   1      -8.193  12.845  66.931  1.00  0.00     0.000 HD 
BRANCH  12  14
HETATM   14  C   UNK A   1      -9.729  13.475  68.295  1.00  0.00    -0.224 C  
BRANCH  14  15
HETATM   15  C   UNK A   1     -10.903  13.738  67.333  1.00  0.00    -0.277 C  
ATOM     16  H   GLY A   2      -9.559  13.934  65.744  1.00  0.00     0.000 HD 
ATOM     17  N   GLY A   2     -10.537  14.013  66.026  1.00  0.00    -0.291 N  
HETATM   18  O   UNK A   1     -12.076  13.621  67.679  1.00  0.00    -0.355 OA 
BRANCH  17  19
ATOM     19  CA  GLY A   2     -11.552  14.418  65.043  1.00  0.00    -0.374 C  
ATOM     20  C   GLY A   2     -11.396  15.859  64.564  1.00  0.00    -0.309 C  
ATOM     21  O   GLY A   2     -10.355  16.511  65.134  1.00  0.00    -0.618 OA 
ATOM     22  OXT GLY A   2     -12.157  16.401  63.776  1.00  0.00    -0.927 OA 
ENDBRANCH  17  19
ENDBRANCH  14  15
BRANCH  14  23
HETATM   23  C   UNK A   1      -9.069  14.833  68.583  1.00  0.00    -0.186 C  
HETATM   24  S   UNK A   1     -10.187  16.150  69.161  1.00  0.00    -0.273 SA 
HETATM   25  H   UNK A   1      -9.591  17.378  69.422  1.00  0.00     0.000 H  
ENDBRANCH  14  23
ENDBRANCH  12  14
ENDBRANCH   9  10
ENDBRANCH   8   9
ENDBRANCH   2   8
TORSDOF 7
ENDMDL
MODEL      203
REMARK 921   NORMALIZED FREE ENERGY PREDICTED BY IDOCK:   -3.78 KCAL/MOL
REMARK 922        TOTAL FREE ENERGY PREDICTED BY IDOCK:   -5.89 KCAL/MOL
REMARK 923 INTER-LIGAND FREE ENERGY PREDICTED BY IDOCK:   -6.09 KCAL/MOL
REMARK 924 INTRA-LIGAND FREE ENERGY PREDICTED BY IDOCK:    0.20 KCAL/MOL
REMARK 927      BINDING AFFINITY PREDICTED BY RF-SCORE:    0.00 PKD
ROOT
HETATM    1  N   UNK A   1      -5.203  14.366  69.854  1.00  0.00    -0.092 NA 
HETATM    2  C   UNK A   1      -6.680  14.538  69.727  1.00  0.00    -0.150 C  
HETATM    3  H2  UNK A   1      -4.813  15.034  70.518  1.00  0.00     0.000 HD 
HETATM    4  H1  UNK A   1      -4.934  13.412  70.096  1.00  0.00     0.000 HD 
HETATM    5  O   UNK A   1      -6.239  12.692  68.271  1.00  0.00    -0.061 OA 
HETATM    6  C   UNK A   1      -7.220  13.528  68.699  1.00  0.00    -0.107 C  
HETATM    7  O   UNK A   1      -8.369  13.489  68.289  1.00  0.00    -0.156 OA 
ENDROOT
BRANCH   2   8
HETATM    8  C   UNK A   1      -7.084  15.970  69.362  1.00  0.00    -0.217 C  
BRANCH   8   9
HETATM    9  C   UNK A   1      -6.719  16.390  67.935  1.00  0.00    -0.150 C  
BRANCH   9  10
HETATM   10  C   UNK A   1      -7.973  16.682  67.144  1.00  0.00    -0.182 C  
HETATM   11  O   UNK A   1      -7.939  17.079  65.983  1.00  0.00    -0.435 OA 
HETATM   12  N   UNK A   1      -9.144  16.441  67.813  1.00  0.00    -0.199 N  
HETATM   13  H   UNK A   1      -9.106  16.109  68.777  1.00  0.00     0.000 HD 
BRANCH  12  14
HETATM   14  C   UNK A   1     -10.446  16.646  67.184  1.00  0.00    -0.300 C  
BRANCH  14  15
HETATM   15  C   UNK A   1     -10.934  15.285  66.652  1.00  0.00    -0.297 C  
ATOM     16  H   GLY A   2      -9.607  15.436  65.044  1.00  0.00     0.000 HD 
ATOM     17  N   GLY A   2     -10.364  14.888  65.453  1.00  0.00    -0.359 N  
HETATM   18  O   UNK A   1     -11.701  14.566  67.287  1.00  0.00    -0.380 OA 
BRANCH  17  19
ATOM     19  CA  GLY A   2     -10.846  13.680  64.769  1.00  0.00    -0.394 C  
ATOM     20  C   GLY A   2     -12.077  13.922  63.898  1.00  0.00    -0.345 C  
ATOM     21  O   GLY A   2     -12.510  15.205  63.916  1.00  0.00    -0.768 OA 
ATOM     22  OXT GLY A   2     -12.654  13.043  63.275  1.00  0.00    -0.696 OA 
ENDBRANCH  17  19
ENDBRANCH  14  15
BRANCH  14  23
HETATM   23  C   UNK A   1     -10.401  17.609  65.988  1.00  0.00    -0.304 C  
HETATM   24  S   UNK A   1     -10.514  19.382  66.394  1.00  0.00    -0.497 SA 
HETATM   25  H   UNK A   1     -10.473  20.253  65.312  1.00  0.00     0.000 H  
ENDBRANCH  14  23
ENDBRANCH  12  14
ENDBRANCH   9  10
ENDBRANCH   8   9
ENDBRANCH   2   8
TORSDOF 7
ENDMDL
MODEL      204
REMARK 921   NORMALIZED FREE ENERGY PREDICTED BY IDOCK:   -3.78 KCAL/MOL
REMARK 922        TOTAL FREE ENERGY PREDICTED BY IDOCK:   -5.89 KCAL/MOL
REMARK 923 INTER-LIGAND FREE ENERGY PREDICTED BY IDOCK:   -5.19 KCAL/MOL
REMARK 924 INTRA-LIGAND FREE ENERGY PREDICTED BY IDOCK:   -0.70 KCAL/MOL
REMARK 927      BINDING AFFINITY PREDICTED BY RF-SCORE:    0.00 PKD
ROOT
HETATM    1  N   UNK A   1     -12.869   9.884  70.407  1.00  0.00    -0.552 NA 
HETATM    2  C   UNK A   1     -11.612   9.134  70.698  1.00  0.00    -0.235 C  
HETATM    3  H2  UNK A   1     -12.837  10.302  69.478  1.00  0.00     0.000 HD 
HETATM    4  H1  UNK A   1     -13.707   9.313  70.522  1.00  0.00     0.000 HD 
HETATM    5  O   UNK A   1     -12.913   8.765  72.672  1.00  0.00    -0.389 OA 
HETATM    6  C   UNK A   1     -11.694   8.542  72.117  1.00  0.00    -0.378 C  
HETATM    7  O   UNK A   1     -10.783   7.970  72.694  1.00  0.00    -0.307 OA 
ENDROOT
BRANCH   2   8
HETATM    8  C   UNK A   1     -10.353   9.990  70.527  1.00  0.00    -0.215 C  
BRANCH   8   9
HETATM    9  C   UNK A   1      -9.967  10.267  69.070  1.00  0.00    -0.223 C  
BRANCH   9  10
HETATM   10  C   UNK A   1     -10.789  11.412  68.525  1.00  0.00    -0.211 C  
HETATM   11  O   UNK A   1     -11.764  11.233  67.801  1.00  0.00    -0.549 OA 
HETATM   12  N   UNK A   1     -10.379  12.657  68.925  1.00  0.00    -0.421 N  
HETATM   13  H   UNK A   1      -9.562  12.740  69.529  1.00  0.00     0.000 HD 
BRANCH  12  14
HETATM   14  C   UNK A   1     -11.080  13.868  68.510  1.00  0.00    -0.265 C  
BRANCH  14  15
HETATM   15  C   UNK A   1     -10.089  15.044  68.604  1.00  0.00    -0.233 C  
ATOM     16  H   GLY A   2      -8.537  13.789  67.986  1.00  0.00     0.000 HD 
ATOM     17  N   GLY A   2      -8.771  14.722  68.324  1.00  0.00    -0.163 N  
HETATM   18  O   UNK A   1     -10.455  16.197  68.819  1.00  0.00    -0.237 OA 
BRANCH  17  19
ATOM     19  CA  GLY A   2      -7.710  15.720  68.514  1.00  0.00    -0.137 C  
ATOM     20  C   GLY A   2      -6.754  15.385  69.657  1.00  0.00    -0.184 C  
ATOM     21  O   GLY A   2      -7.058  14.230  70.297  1.00  0.00     0.100 OA 
ATOM     22  OXT GLY A   2      -5.826  16.101  70.001  1.00  0.00    -0.175 OA 
ENDBRANCH  17  19
ENDBRANCH  14  15
BRANCH  14  23
HETATM   23  C   UNK A   1     -12.279  14.216  69.405  1.00  0.00    -0.287 C  
HETATM   24  S   UNK A   1     -12.057  13.904  71.186  1.00  0.00    -0.126 SA 
HETATM   25  H   UNK A   1     -13.142  14.219  71.995  1.00  0.00     0.000 H  
ENDBRANCH  14  23
ENDBRANCH  12  14
ENDBRANCH   9  10
ENDBRANCH   8   9
ENDBRANCH   2   8
TORSDOF 7
ENDMDL
MODEL      205
REMARK 921   NORMALIZED FREE ENERGY PREDICTED BY IDOCK:   -3.77 KCAL/MOL
REMARK 922        TOTAL FREE ENERGY PREDICTED BY IDOCK:   -5.88 KCAL/MOL
REMARK 923 INTER-LIGAND FREE ENERGY PREDICTED BY IDOCK:   -5.22 KCAL/MOL
REMARK 924 INTRA-LIGAND FREE ENERGY PREDICTED BY IDOCK:   -0.66 KCAL/MOL
REMARK 927      BINDING AFFINITY PREDICTED BY RF-SCORE:    0.00 PKD
ROOT
HETATM    1  N   UNK A   1     -11.270  16.411  68.633  1.00  0.00    -0.353 NA 
HETATM    2  C   UNK A   1     -10.436  16.312  67.398  1.00  0.00    -0.304 C  
HETATM    3  H2  UNK A   1     -11.332  15.510  69.105  1.00  0.00     0.000 HD 
HETATM    4  H1  UNK A   1     -10.946  17.137  69.273  1.00  0.00     0.000 HD 
HETATM    5  O   UNK A   1     -11.022  18.631  67.453  1.00  0.00    -0.399 OA 
HETATM    6  C   UNK A   1     -10.391  17.687  66.708  1.00  0.00    -0.331 C  
HETATM    7  O   UNK A   1      -9.885  17.910  65.620  1.00  0.00    -0.512 OA 
ENDROOT
BRANCH   2   8
HETATM    8  C   UNK A   1     -10.923  15.223  66.437  1.00  0.00    -0.299 C  
BRANCH   8   9
HETATM    9  C   UNK A   1      -9.809  14.354  65.845  1.00  0.00    -0.336 C  
BRANCH   9  10
HETATM   10  C   UNK A   1      -9.429  13.264  66.820  1.00  0.00    -0.257 C  
HETATM   11  O   UNK A   1      -8.508  13.392  67.622  1.00  0.00    -0.161 OA 
HETATM   12  N   UNK A   1     -10.209  12.139  66.757  1.00  0.00    -0.202 N  
HETATM   13  H   UNK A   1     -10.961  12.094  66.069  1.00  0.00     0.000 HD 
BRANCH  12  14
HETATM   14  C   UNK A   1      -9.993  11.002  67.647  1.00  0.00    -0.173 C  
BRANCH  14  15
HETATM   15  C   UNK A   1      -9.773   9.752  66.775  1.00  0.00    -0.194 C  
ATOM     16  H   GLY A   2      -8.040  10.609  65.981  1.00  0.00     0.000 HD 
ATOM     17  N   GLY A   2      -8.681   9.817  65.926  1.00  0.00    -0.135 N  
HETATM   18  O   UNK A   1     -10.458   8.739  66.891  1.00  0.00    -0.285 OA 
BRANCH  17  19
ATOM     19  CA  GLY A   2      -8.443   8.750  64.944  1.00  0.00    -0.171 C  
ATOM     20  C   GLY A   2      -8.732   9.170  63.504  1.00  0.00    -0.128 C  
ATOM     21  O   GLY A   2      -9.163  10.448  63.388  1.00  0.00    -0.231 OA 
ATOM     22  OXT GLY A   2      -8.632   8.421  62.543  1.00  0.00    -0.167 OA 
ENDBRANCH  17  19
ENDBRANCH  14  15
BRANCH  14  23
HETATM   23  C   UNK A   1     -11.192  10.708  68.562  1.00  0.00    -0.282 C  
HETATM   24  S   UNK A   1     -11.842  12.130  69.500  1.00  0.00    -0.300 SA 
HETATM   25  H   UNK A   1     -12.926  11.864  70.327  1.00  0.00     0.000 H  
ENDBRANCH  14  23
ENDBRANCH  12  14
ENDBRANCH   9  10
ENDBRANCH   8   9
ENDBRANCH   2   8
TORSDOF 7
ENDMDL
MODEL      206
REMARK 921   NORMALIZED FREE ENERGY PREDICTED BY IDOCK:   -3.76 KCAL/MOL
REMARK 922        TOTAL FREE ENERGY PREDICTED BY IDOCK:   -5.87 KCAL/MOL
REMARK 923 INTER-LIGAND FREE ENERGY PREDICTED BY IDOCK:   -5.05 KCAL/MOL
REMARK 924 INTRA-LIGAND FREE ENERGY PREDICTED BY IDOCK:   -0.82 KCAL/MOL
REMARK 927      BINDING AFFINITY PREDICTED BY RF-SCORE:    0.00 PKD
ROOT
HETATM    1  N   UNK A   1      -8.783  12.932  68.710  1.00  0.00    -0.377 NA 
HETATM    2  C   UNK A   1      -9.625  11.831  68.154  1.00  0.00    -0.193 C  
HETATM    3  H2  UNK A   1      -9.230  13.359  69.521  1.00  0.00     0.000 HD 
HETATM    4  H1  UNK A   1      -7.834  12.633  68.931  1.00  0.00     0.000 HD 
HETATM    5  O   UNK A   1      -7.700  11.789  66.735  1.00  0.00    -0.149 OA 
HETATM    6  C   UNK A   1      -8.926  11.235  66.920  1.00  0.00    -0.162 C  
HETATM    7  O   UNK A   1      -9.408  10.396  66.176  1.00  0.00    -0.162 OA 
ENDROOT
BRANCH   2   8
HETATM    8  C   UNK A   1     -11.051  12.281  67.822  1.00  0.00    -0.304 C  
BRANCH   8   9
HETATM    9  C   UNK A   1     -12.150  11.358  68.358  1.00  0.00    -0.118 C  
BRANCH   9  10
HETATM   10  C   UNK A   1     -12.035  11.233  69.859  1.00  0.00    -0.365 C  
HETATM   11  O   UNK A   1     -12.063  12.210  70.603  1.00  0.00    -0.365 OA 
HETATM   12  N   UNK A   1     -11.928   9.949  70.323  1.00  0.00    -0.436 N  
HETATM   13  H   UNK A   1     -11.912   9.179  69.654  1.00  0.00     0.000 HD 
BRANCH  12  14
HETATM   14  C   UNK A   1     -11.835   9.651  71.749  1.00  0.00    -0.320 C  
BRANCH  14  15
HETATM   15  C   UNK A   1     -10.652   8.685  71.956  1.00  0.00    -0.351 C  
ATOM     16  H   GLY A   2     -10.034   9.018  69.987  1.00  0.00     0.000 HD 
ATOM     17  N   GLY A   2      -9.867   8.474  70.835  1.00  0.00    -0.180 N  
HETATM   18  O   UNK A   1     -10.374   8.211  73.055  1.00  0.00    -0.321 OA 
BRANCH  17  19
ATOM     19  CA  GLY A   2      -8.794   7.471  70.861  1.00  0.00    -0.144 C  
ATOM     20  C   GLY A   2      -8.477   6.880  69.488  1.00  0.00    -0.133 C  
ATOM     21  O   GLY A   2      -9.245   7.382  68.492  1.00  0.00    -0.143 OA 
ATOM     22  OXT GLY A   2      -7.644   6.007  69.299  1.00  0.00    -0.089 OA 
ENDBRANCH  17  19
ENDBRANCH  14  15
BRANCH  14  23
HETATM   23  C   UNK A   1     -13.086   8.958  72.311  1.00  0.00    -0.436 C  
HETATM   24  S   UNK A   1     -13.577   7.412  71.480  1.00  0.00    -0.303 SA 
HETATM   25  H   UNK A   1     -14.709   6.786  71.988  1.00  0.00     0.000 H  
ENDBRANCH  14  23
ENDBRANCH  12  14
ENDBRANCH   9  10
ENDBRANCH   8   9
ENDBRANCH   2   8
TORSDOF 7
ENDMDL
MODEL      207
REMARK 921   NORMALIZED FREE ENERGY PREDICTED BY IDOCK:   -3.76 KCAL/MOL
REMARK 922        TOTAL FREE ENERGY PREDICTED BY IDOCK:   -5.86 KCAL/MOL
REMARK 923 INTER-LIGAND FREE ENERGY PREDICTED BY IDOCK:   -5.87 KCAL/MOL
REMARK 924 INTRA-LIGAND FREE ENERGY PREDICTED BY IDOCK:    0.01 KCAL/MOL
REMARK 927      BINDING AFFINITY PREDICTED BY RF-SCORE:    0.00 PKD
ROOT
HETATM    1  N   UNK A   1      -7.493  16.888  66.581  1.00  0.00    -0.239 NA 
HETATM    2  C   UNK A   1      -8.509  17.724  67.287  1.00  0.00    -0.231 C  
HETATM    3  H2  UNK A   1      -7.942  16.170  66.014  1.00  0.00     0.000 HD 
HETATM    4  H1  UNK A   1      -6.843  17.441  66.023  1.00  0.00     0.000 HD 
HETATM    5  O   UNK A   1      -6.445  18.732  67.954  1.00  0.00    -0.205 OA 
HETATM    6  C   UNK A   1      -7.788  18.776  68.148  1.00  0.00    -0.288 C  
HETATM    7  O   UNK A   1      -8.333  19.537  68.931  1.00  0.00    -0.360 OA 
ENDROOT
BRANCH   2   8
HETATM    8  C   UNK A   1      -9.485  16.893  68.127  1.00  0.00    -0.251 C  
BRANCH   8   9
HETATM    9  C   UNK A   1      -8.861  15.665  68.795  1.00  0.00    -0.208 C  
BRANCH   9  10
HETATM   10  C   UNK A   1      -9.749  14.458  68.595  1.00  0.00    -0.216 C  
HETATM   11  O   UNK A   1      -9.295  13.334  68.405  1.00  0.00    -0.205 OA 
HETATM   12  N   UNK A   1     -11.093  14.714  68.671  1.00  0.00    -0.251 N  
HETATM   13  H   UNK A   1     -11.408  15.671  68.833  1.00  0.00     0.000 HD 
BRANCH  12  14
HETATM   14  C   UNK A   1     -12.087  13.655  68.527  1.00  0.00    -0.286 C  
BRANCH  14  15
HETATM   15  C   UNK A   1     -12.130  12.862  69.847  1.00  0.00    -0.265 C  
ATOM     16  H   GLY A   2     -11.820  11.085  68.790  1.00  0.00     0.000 HD 
ATOM     17  N   GLY A   2     -12.018  11.488  69.707  1.00  0.00    -0.334 N  
HETATM   18  O   UNK A   1     -12.167  13.411  70.945  1.00  0.00    -0.354 OA 
BRANCH  17  19
ATOM     19  CA  GLY A   2     -12.184  10.610  70.873  1.00  0.00    -0.395 C  
ATOM     20  C   GLY A   2     -10.992   9.686  71.115  1.00  0.00    -0.360 C  
ATOM     21  O   GLY A   2      -9.997   9.835  70.209  1.00  0.00    -0.248 OA 
ATOM     22  OXT GLY A   2     -10.946   8.855  72.010  1.00  0.00    -0.352 OA 
ENDBRANCH  17  19
ENDBRANCH  14  15
BRANCH  14  23
HETATM   23  C   UNK A   1     -11.755  12.654  67.409  1.00  0.00    -0.369 C  
HETATM   24  S   UNK A   1     -12.067  13.232  65.709  1.00  0.00    -0.457 SA 
HETATM   25  H   UNK A   1     -11.767  12.327  64.699  1.00  0.00     0.000 H  
ENDBRANCH  14  23
ENDBRANCH  12  14
ENDBRANCH   9  10
ENDBRANCH   8   9
ENDBRANCH   2   8
TORSDOF 7
ENDMDL
MODEL      208
REMARK 921   NORMALIZED FREE ENERGY PREDICTED BY IDOCK:   -3.75 KCAL/MOL
REMARK 922        TOTAL FREE ENERGY PREDICTED BY IDOCK:   -5.86 KCAL/MOL
REMARK 923 INTER-LIGAND FREE ENERGY PREDICTED BY IDOCK:   -5.20 KCAL/MOL
REMARK 924 INTRA-LIGAND FREE ENERGY PREDICTED BY IDOCK:   -0.65 KCAL/MOL
REMARK 927      BINDING AFFINITY PREDICTED BY RF-SCORE:    0.00 PKD
ROOT
HETATM    1  N   UNK A   1     -12.390  13.251  67.585  1.00  0.00    -0.115 NA 
HETATM    2  C   UNK A   1     -11.126  13.289  66.792  1.00  0.00    -0.292 C  
HETATM    3  H2  UNK A   1     -12.203  13.397  68.577  1.00  0.00     0.000 HD 
HETATM    4  H1  UNK A   1     -13.091  13.910  67.246  1.00  0.00     0.000 HD 
HETATM    5  O   UNK A   1     -12.795  12.964  65.109  1.00  0.00    -0.702 OA 
HETATM    6  C   UNK A   1     -11.454  13.041  65.309  1.00  0.00    -0.309 C  
HETATM    7  O   UNK A   1     -10.628  12.899  64.421  1.00  0.00    -0.351 OA 
ENDROOT
BRANCH   2   8
HETATM    8  C   UNK A   1     -10.073  12.299  67.301  1.00  0.00    -0.212 C  
BRANCH   8   9
HETATM    9  C   UNK A   1     -10.551  10.845  67.374  1.00  0.00    -0.285 C  
BRANCH   9  10
HETATM   10  C   UNK A   1     -10.214  10.256  68.724  1.00  0.00    -0.192 C  
HETATM   11  O   UNK A   1      -9.081  10.302  69.195  1.00  0.00    -0.171 OA 
HETATM   12  N   UNK A   1     -11.273   9.696  69.389  1.00  0.00    -0.420 N  
HETATM   13  H   UNK A   1     -12.191   9.691  68.944  1.00  0.00     0.000 HD 
BRANCH  12  14
HETATM   14  C   UNK A   1     -11.124   9.107  70.715  1.00  0.00    -0.275 C  
BRANCH  14  15
HETATM   15  C   UNK A   1     -10.737   7.627  70.536  1.00  0.00    -0.236 C  
ATOM     16  H   GLY A   2      -8.974   7.956  71.610  1.00  0.00     0.000 HD 
ATOM     17  N   GLY A   2      -9.505   7.277  71.063  1.00  0.00    -0.159 N  
HETATM   18  O   UNK A   1     -11.504   6.801  70.047  1.00  0.00    -0.338 OA 
BRANCH  17  19
ATOM     19  CA  GLY A   2      -8.959   5.932  70.836  1.00  0.00    -0.146 C  
ATOM     20  C   GLY A   2      -7.866   5.889  69.769  1.00  0.00    -0.100 C  
ATOM     21  O   GLY A   2      -7.600   7.096  69.217  1.00  0.00    -0.097 OA 
ATOM     22  OXT GLY A   2      -7.309   4.863  69.407  1.00  0.00    -0.055 OA 
ENDBRANCH  17  19
ENDBRANCH  14  15
BRANCH  14  23
HETATM   23  C   UNK A   1     -12.417   9.138  71.545  1.00  0.00    -0.346 C  
HETATM   24  S   UNK A   1     -13.160  10.784  71.794  1.00  0.00    -0.400 SA 
HETATM   25  H   UNK A   1     -14.329  10.812  72.544  1.00  0.00     0.000 H  
ENDBRANCH  14  23
ENDBRANCH  12  14
ENDBRANCH   9  10
ENDBRANCH   8   9
ENDBRANCH   2   8
TORSDOF 7
ENDMDL
MODEL      209
REMARK 921   NORMALIZED FREE ENERGY PREDICTED BY IDOCK:   -3.74 KCAL/MOL
REMARK 922        TOTAL FREE ENERGY PREDICTED BY IDOCK:   -5.83 KCAL/MOL
REMARK 923 INTER-LIGAND FREE ENERGY PREDICTED BY IDOCK:   -5.51 KCAL/MOL
REMARK 924 INTRA-LIGAND FREE ENERGY PREDICTED BY IDOCK:   -0.32 KCAL/MOL
REMARK 927      BINDING AFFINITY PREDICTED BY RF-SCORE:    0.00 PKD
ROOT
HETATM    1  N   UNK A   1      -8.202  13.107  68.518  1.00  0.00    -0.286 NA 
HETATM    2  C   UNK A   1      -8.445  11.859  67.737  1.00  0.00    -0.154 C  
HETATM    3  H2  UNK A   1      -8.995  13.320  69.122  1.00  0.00     0.000 HD 
HETATM    4  H1  UNK A   1      -7.334  13.078  69.053  1.00  0.00     0.000 HD 
HETATM    5  O   UNK A   1      -6.241  12.489  67.050  1.00  0.00    -0.227 OA 
HETATM    6  C   UNK A   1      -7.235  11.591  66.823  1.00  0.00    -0.111 C  
HETATM    7  O   UNK A   1      -7.172  10.711  65.980  1.00  0.00    -0.132 OA 
ENDROOT
BRANCH   2   8
HETATM    8  C   UNK A   1      -9.748  11.902  66.933  1.00  0.00    -0.212 C  
BRANCH   8   9
HETATM    9  C   UNK A   1     -10.304  10.528  66.549  1.00  0.00    -0.294 C  
BRANCH   9  10
HETATM   10  C   UNK A   1     -10.724   9.774  67.789  1.00  0.00    -0.272 C  
HETATM   11  O   UNK A   1     -10.684   8.549  67.857  1.00  0.00    -0.187 OA 
HETATM   12  N   UNK A   1     -11.123  10.563  68.835  1.00  0.00    -0.245 N  
HETATM   13  H   UNK A   1     -11.133  11.576  68.717  1.00  0.00     0.000 HD 
BRANCH  12  14
HETATM   14  C   UNK A   1     -11.535   9.995  70.115  1.00  0.00    -0.277 C  
BRANCH  14  15
HETATM   15  C   UNK A   1     -12.298  11.083  70.893  1.00  0.00    -0.402 C  
ATOM     16  H   GLY A   2     -11.724  12.505  69.473  1.00  0.00     0.000 HD 
ATOM     17  N   GLY A   2     -12.194  12.360  70.367  1.00  0.00    -0.332 N  
HETATM   18  O   UNK A   1     -13.018  10.823  71.854  1.00  0.00    -0.462 OA 
BRANCH  17  19
ATOM     19  CA  GLY A   2     -12.758  13.508  71.091  1.00  0.00    -0.344 C  
ATOM     20  C   GLY A   2     -12.215  14.855  70.618  1.00  0.00    -0.318 C  
ATOM     21  O   GLY A   2     -11.306  14.753  69.620  1.00  0.00    -0.259 OA 
ATOM     22  OXT GLY A   2     -12.529  15.927  71.114  1.00  0.00    -0.445 OA 
ENDBRANCH  17  19
ENDBRANCH  14  15
BRANCH  14  23
HETATM   23  C   UNK A   1     -10.355   9.554  70.995  1.00  0.00    -0.283 C  
HETATM   24  S   UNK A   1     -10.589   7.997  71.912  1.00  0.00    -0.264 SA 
HETATM   25  H   UNK A   1      -9.522   7.598  72.708  1.00  0.00     0.000 H  
ENDBRANCH  14  23
ENDBRANCH  12  14
ENDBRANCH   9  10
ENDBRANCH   8   9
ENDBRANCH   2   8
TORSDOF 7
ENDMDL
MODEL      210
REMARK 921   NORMALIZED FREE ENERGY PREDICTED BY IDOCK:   -3.74 KCAL/MOL
REMARK 922        TOTAL FREE ENERGY PREDICTED BY IDOCK:   -5.83 KCAL/MOL
REMARK 923 INTER-LIGAND FREE ENERGY PREDICTED BY IDOCK:   -5.53 KCAL/MOL
REMARK 924 INTRA-LIGAND FREE ENERGY PREDICTED BY IDOCK:   -0.30 KCAL/MOL
REMARK 927      BINDING AFFINITY PREDICTED BY RF-SCORE:    0.00 PKD
ROOT
HETATM    1  N   UNK A   1      -8.071  11.565  65.994  1.00  0.00    -0.378 NA 
HETATM    2  C   UNK A   1      -8.307  10.137  66.358  1.00  0.00    -0.125 C  
HETATM    3  H2  UNK A   1      -7.108  11.837  66.189  1.00  0.00     0.000 HD 
HETATM    4  H1  UNK A   1      -8.320  11.775  65.027  1.00  0.00     0.000 HD 
HETATM    5  O   UNK A   1     -10.424  10.810  65.469  1.00  0.00    -0.252 OA 
HETATM    6  C   UNK A   1      -9.776   9.779  66.069  1.00  0.00    -0.255 C  
HETATM    7  O   UNK A   1     -10.312   8.722  66.362  1.00  0.00    -0.271 OA 
ENDROOT
BRANCH   2   8
HETATM    8  C   UNK A   1      -7.933   9.822  67.810  1.00  0.00    -0.101 C  
BRANCH   8   9
HETATM    9  C   UNK A   1      -8.804  10.524  68.856  1.00  0.00    -0.166 C  
BRANCH   9  10
HETATM   10  C   UNK A   1      -9.244   9.537  69.911  1.00  0.00    -0.220 C  
HETATM   11  O   UNK A   1      -8.730   9.494  71.025  1.00  0.00    -0.260 OA 
HETATM   12  N   UNK A   1     -10.277   8.718  69.538  1.00  0.00    -0.203 N  
HETATM   13  H   UNK A   1     -10.664   8.803  68.598  1.00  0.00     0.000 HD 
BRANCH  12  14
HETATM   14  C   UNK A   1     -10.840   7.725  70.448  1.00  0.00    -0.244 C  
BRANCH  14  15
HETATM   15  C   UNK A   1     -11.672   8.472  71.509  1.00  0.00    -0.297 C  
ATOM     16  H   GLY A   2     -12.661   9.523  69.996  1.00  0.00     0.000 HD 
ATOM     17  N   GLY A   2     -12.539   9.427  71.005  1.00  0.00    -0.264 N  
HETATM   18  O   UNK A   1     -11.635   8.178  72.701  1.00  0.00    -0.397 OA 
BRANCH  17  19
ATOM     19  CA  GLY A   2     -13.285  10.304  71.918  1.00  0.00    -0.445 C  
ATOM     20  C   GLY A   2     -13.053  11.792  71.661  1.00  0.00    -0.338 C  
ATOM     21  O   GLY A   2     -12.195  12.039  70.642  1.00  0.00    -0.374 OA 
ATOM     22  OXT GLY A   2     -13.550  12.685  72.331  1.00  0.00    -0.550 OA 
ENDBRANCH  17  19
ENDBRANCH  14  15
BRANCH  14  23
HETATM   23  C   UNK A   1      -9.775   6.913  71.201  1.00  0.00    -0.173 C  
HETATM   24  S   UNK A   1      -9.935   5.101  71.090  1.00  0.00    -0.216 SA 
HETATM   25  H   UNK A   1      -8.971   4.366  71.770  1.00  0.00     0.000 H  
ENDBRANCH  14  23
ENDBRANCH  12  14
ENDBRANCH   9  10
ENDBRANCH   8   9
ENDBRANCH   2   8
TORSDOF 7
ENDMDL
MODEL      211
REMARK 921   NORMALIZED FREE ENERGY PREDICTED BY IDOCK:   -3.74 KCAL/MOL
REMARK 922        TOTAL FREE ENERGY PREDICTED BY IDOCK:   -5.83 KCAL/MOL
REMARK 923 INTER-LIGAND FREE ENERGY PREDICTED BY IDOCK:   -5.99 KCAL/MOL
REMARK 924 INTRA-LIGAND FREE ENERGY PREDICTED BY IDOCK:    0.16 KCAL/MOL
REMARK 927      BINDING AFFINITY PREDICTED BY RF-SCORE:    0.00 PKD
ROOT
HETATM    1  N   UNK A   1      -9.211   7.336  71.416  1.00  0.00    -0.143 NA 
HETATM    2  C   UNK A   1     -10.561   7.947  71.235  1.00  0.00    -0.211 C  
HETATM    3  H2  UNK A   1      -8.475   8.022  71.249  1.00  0.00     0.000 HD 
HETATM    4  H1  UNK A   1      -9.095   6.891  72.326  1.00  0.00     0.000 HD 
HETATM    5  O   UNK A   1     -11.081   5.703  71.881  1.00  0.00    -0.256 OA 
HETATM    6  C   UNK A   1     -11.637   6.872  71.472  1.00  0.00    -0.290 C  
HETATM    7  O   UNK A   1     -12.834   7.024  71.291  1.00  0.00    -0.377 OA 
ENDROOT
BRANCH   2   8
HETATM    8  C   UNK A   1     -10.735   8.615  69.867  1.00  0.00    -0.227 C  
BRANCH   8   9
HETATM    9  C   UNK A   1      -9.442   8.748  69.056  1.00  0.00    -0.160 C  
BRANCH   9  10
HETATM   10  C   UNK A   1      -9.414  10.079  68.342  1.00  0.00    -0.141 C  
HETATM   11  O   UNK A   1      -9.031  10.192  67.181  1.00  0.00    -0.135 OA 
HETATM   12  N   UNK A   1      -9.875  11.138  69.078  1.00  0.00    -0.359 N  
HETATM   13  H   UNK A   1     -10.182  10.979  70.038  1.00  0.00     0.000 HD 
BRANCH  12  14
HETATM   14  C   UNK A   1      -9.940  12.488  68.528  1.00  0.00    -0.165 C  
BRANCH  14  15
HETATM   15  C   UNK A   1     -11.147  12.554  67.573  1.00  0.00    -0.267 C  
ATOM     16  H   GLY A   2     -10.117  13.911  66.362  1.00  0.00     0.000 HD 
ATOM     17  N   GLY A   2     -11.008  13.438  66.516  1.00  0.00    -0.288 N  
HETATM   18  O   UNK A   1     -12.120  11.813  67.690  1.00  0.00    -0.598 OA 
BRANCH  17  19
ATOM     19  CA  GLY A   2     -12.140  13.697  65.615  1.00  0.00    -0.425 C  
ATOM     20  C   GLY A   2     -11.808  13.478  64.140  1.00  0.00    -0.437 C  
ATOM     21  O   GLY A   2     -10.529  13.090  63.924  1.00  0.00    -0.392 OA 
ATOM     22  OXT GLY A   2     -12.598  13.673  63.228  1.00  0.00    -0.816 OA 
ENDBRANCH  17  19
ENDBRANCH  14  15
BRANCH  14  23
HETATM   23  C   UNK A   1      -8.697  12.875  67.711  1.00  0.00    -0.188 C  
HETATM   24  S   UNK A   1      -7.447  13.866  68.591  1.00  0.00    -0.114 SA 
HETATM   25  H   UNK A   1      -6.323  14.216  67.853  1.00  0.00     0.000 H  
ENDBRANCH  14  23
ENDBRANCH  12  14
ENDBRANCH   9  10
ENDBRANCH   8   9
ENDBRANCH   2   8
TORSDOF 7
ENDMDL
MODEL      212
REMARK 921   NORMALIZED FREE ENERGY PREDICTED BY IDOCK:   -3.73 KCAL/MOL
REMARK 922        TOTAL FREE ENERGY PREDICTED BY IDOCK:   -5.81 KCAL/MOL
REMARK 923 INTER-LIGAND FREE ENERGY PREDICTED BY IDOCK:   -5.89 KCAL/MOL
REMARK 924 INTRA-LIGAND FREE ENERGY PREDICTED BY IDOCK:    0.08 KCAL/MOL
REMARK 927      BINDING AFFINITY PREDICTED BY RF-SCORE:    0.00 PKD
ROOT
HETATM    1  N   UNK A   1     -10.838   7.872  68.448  1.00  0.00    -0.424 NA 
HETATM    2  C   UNK A   1      -9.417   8.321  68.544  1.00  0.00    -0.146 C  
HETATM    3  H2  UNK A   1     -11.416   8.584  68.003  1.00  0.00     0.000 HD 
HETATM    4  H1  UNK A   1     -10.939   6.973  67.978  1.00  0.00     0.000 HD 
HETATM    5  O   UNK A   1      -9.339   6.122  69.484  1.00  0.00    -0.136 OA 
HETATM    6  C   UNK A   1      -8.589   7.228  69.243  1.00  0.00    -0.137 C  
HETATM    7  O   UNK A   1      -7.418   7.336  69.572  1.00  0.00    -0.086 OA 
ENDROOT
BRANCH   2   8
HETATM    8  C   UNK A   1      -9.265   9.671  69.251  1.00  0.00    -0.186 C  
BRANCH   8   9
HETATM    9  C   UNK A   1     -10.588  10.335  69.645  1.00  0.00    -0.288 C  
BRANCH   9  10
HETATM   10  C   UNK A   1     -11.105  11.178  68.503  1.00  0.00    -0.244 C  
HETATM   11  O   UNK A   1     -12.272  11.126  68.125  1.00  0.00    -0.612 OA 
HETATM   12  N   UNK A   1     -10.180  12.022  67.946  1.00  0.00    -0.191 N  
HETATM   13  H   UNK A   1      -9.226  12.020  68.307  1.00  0.00     0.000 HD 
BRANCH  12  14
HETATM   14  C   UNK A   1     -10.523  12.925  66.852  1.00  0.00    -0.246 C  
BRANCH  14  15
HETATM   15  C   UNK A   1     -11.457  14.015  67.410  1.00  0.00    -0.348 C  
ATOM     16  H   GLY A   2     -10.104  14.385  68.959  1.00  0.00     0.000 HD 
ATOM     17  N   GLY A   2     -11.026  14.609  68.584  1.00  0.00    -0.246 N  
HETATM   18  O   UNK A   1     -12.462  14.391  66.810  1.00  0.00    -0.331 OA 
BRANCH  17  19
ATOM     19  CA  GLY A   2     -11.892  15.562  69.292  1.00  0.00    -0.353 C  
ATOM     20  C   GLY A   2     -12.631  14.949  70.479  1.00  0.00    -0.360 C  
ATOM     21  O   GLY A   2     -12.363  13.634  70.665  1.00  0.00    -0.342 OA 
ATOM     22  OXT GLY A   2     -13.426  15.562  71.177  1.00  0.00    -0.510 OA 
ENDBRANCH  17  19
ENDBRANCH  14  15
BRANCH  14  23
HETATM   23  C   UNK A   1     -11.272  12.233  65.702  1.00  0.00    -0.333 C  
HETATM   24  S   UNK A   1     -10.388  12.161  64.110  1.00  0.00    -0.376 SA 
HETATM   25  H   UNK A   1     -11.066  11.535  63.070  1.00  0.00     0.000 H  
ENDBRANCH  14  23
ENDBRANCH  12  14
ENDBRANCH   9  10
ENDBRANCH   8   9
ENDBRANCH   2   8
TORSDOF 7
ENDMDL
MODEL      213
REMARK 921   NORMALIZED FREE ENERGY PREDICTED BY IDOCK:   -3.72 KCAL/MOL
REMARK 922        TOTAL FREE ENERGY PREDICTED BY IDOCK:   -5.81 KCAL/MOL
REMARK 923 INTER-LIGAND FREE ENERGY PREDICTED BY IDOCK:   -5.07 KCAL/MOL
REMARK 924 INTRA-LIGAND FREE ENERGY PREDICTED BY IDOCK:   -0.74 KCAL/MOL
REMARK 927      BINDING AFFINITY PREDICTED BY RF-SCORE:    0.00 PKD
ROOT
HETATM    1  N   UNK A   1      -9.908   4.384  69.066  1.00  0.00    -0.152 NA 
HETATM    2  C   UNK A   1     -10.522   5.741  68.966  1.00  0.00    -0.266 C  
HETATM    3  H2  UNK A   1      -9.729   4.136  70.039  1.00  0.00     0.000 HD 
HETATM    4  H1  UNK A   1     -10.460   3.663  68.602  1.00  0.00     0.000 HD 
HETATM    5  O   UNK A   1     -10.439   5.030  66.683  1.00  0.00    -0.264 OA 
HETATM    6  C   UNK A   1     -10.751   6.082  67.483  1.00  0.00    -0.301 C  
HETATM    7  O   UNK A   1     -11.134   7.162  67.061  1.00  0.00    -0.345 OA 
ENDROOT
BRANCH   2   8
HETATM    8  C   UNK A   1      -9.692   6.823  69.663  1.00  0.00    -0.160 C  
BRANCH   8   9
HETATM    9  C   UNK A   1     -10.500   8.033  70.143  1.00  0.00    -0.225 C  
BRANCH   9  10
HETATM   10  C   UNK A   1      -9.948   9.300  69.533  1.00  0.00    -0.187 C  
HETATM   11  O   UNK A   1      -8.872   9.780  69.878  1.00  0.00    -0.201 OA 
HETATM   12  N   UNK A   1     -10.726   9.852  68.549  1.00  0.00    -0.223 N  
HETATM   13  H   UNK A   1     -11.610   9.404  68.305  1.00  0.00     0.000 HD 
BRANCH  12  14
HETATM   14  C   UNK A   1     -10.325  11.062  67.838  1.00  0.00    -0.186 C  
BRANCH  14  15
HETATM   15  C   UNK A   1     -11.047  12.256  68.491  1.00  0.00    -0.249 C  
ATOM     16  H   GLY A   2     -10.836  13.351  66.723  1.00  0.00     0.000 HD 
ATOM     17  N   GLY A   2     -11.142  13.386  67.696  1.00  0.00    -0.258 N  
HETATM   18  O   UNK A   1     -11.578  12.181  69.596  1.00  0.00    -0.298 OA 
BRANCH  17  19
ATOM     19  CA  GLY A   2     -11.683  14.636  68.248  1.00  0.00    -0.328 C  
ATOM     20  C   GLY A   2     -10.894  15.877  67.835  1.00  0.00    -0.327 C  
ATOM     21  O   GLY A   2      -9.833  15.606  67.038  1.00  0.00    -0.228 OA 
ATOM     22  OXT GLY A   2     -11.157  17.009  68.215  1.00  0.00    -0.337 OA 
ENDBRANCH  17  19
ENDBRANCH  14  15
BRANCH  14  23
HETATM   23  C   UNK A   1     -10.715  11.055  66.352  1.00  0.00    -0.227 C  
HETATM   24  S   UNK A   1      -9.637  10.080  65.253  1.00  0.00    -0.308 SA 
HETATM   25  H   UNK A   1      -9.991  10.074  63.910  1.00  0.00     0.000 H  
ENDBRANCH  14  23
ENDBRANCH  12  14
ENDBRANCH   9  10
ENDBRANCH   8   9
ENDBRANCH   2   8
TORSDOF 7
ENDMDL
MODEL      214
REMARK 921   NORMALIZED FREE ENERGY PREDICTED BY IDOCK:   -3.72 KCAL/MOL
REMARK 922        TOTAL FREE ENERGY PREDICTED BY IDOCK:   -5.81 KCAL/MOL
REMARK 923 INTER-LIGAND FREE ENERGY PREDICTED BY IDOCK:   -6.09 KCAL/MOL
REMARK 924 INTRA-LIGAND FREE ENERGY PREDICTED BY IDOCK:    0.28 KCAL/MOL
REMARK 927      BINDING AFFINITY PREDICTED BY RF-SCORE:    0.00 PKD
ROOT
HETATM    1  N   UNK A   1      -7.312  17.985  65.694  1.00  0.00    -0.541 NA 
HETATM    2  C   UNK A   1      -7.990  19.244  66.126  1.00  0.00    -0.294 C  
HETATM    3  H2  UNK A   1      -7.974  17.346  65.256  1.00  0.00     0.000 HD 
HETATM    4  H1  UNK A   1      -6.511  18.155  65.086  1.00  0.00     0.000 HD 
HETATM    5  O   UNK A   1      -5.709  19.641  66.729  1.00  0.00    -0.171 OA 
HETATM    6  C   UNK A   1      -6.960  20.165  66.803  1.00  0.00    -0.232 C  
HETATM    7  O   UNK A   1      -7.220  21.218  67.362  1.00  0.00    -0.511 OA 
ENDROOT
BRANCH   2   8
HETATM    8  C   UNK A   1      -9.193  18.989  67.040  1.00  0.00    -0.330 C  
BRANCH   8   9
HETATM    9  C   UNK A   1      -8.922  18.014  68.189  1.00  0.00    -0.287 C  
BRANCH   9  10
HETATM   10  C   UNK A   1      -9.645  16.710  67.944  1.00  0.00    -0.234 C  
HETATM   11  O   UNK A   1      -9.055  15.685  67.615  1.00  0.00    -0.189 OA 
HETATM   12  N   UNK A   1     -10.999  16.755  68.145  1.00  0.00    -0.349 N  
HETATM   13  H   UNK A   1     -11.431  17.638  68.420  1.00  0.00     0.000 HD 
BRANCH  12  14
HETATM   14  C   UNK A   1     -11.842  15.576  67.978  1.00  0.00    -0.073 C  
BRANCH  14  15
HETATM   15  C   UNK A   1     -11.922  14.853  69.336  1.00  0.00    -0.301 C  
ATOM     16  H   GLY A   2     -11.976  13.009  68.352  1.00  0.00     0.000 HD 
ATOM     17  N   GLY A   2     -12.043  13.475  69.258  1.00  0.00    -0.316 N  
HETATM   18  O   UNK A   1     -11.795  15.444  70.405  1.00  0.00    -0.281 OA 
BRANCH  17  19
ATOM     19  CA  GLY A   2     -12.269  12.683  70.474  1.00  0.00    -0.299 C  
ATOM     20  C   GLY A   2     -11.703  11.266  70.393  1.00  0.00    -0.304 C  
ATOM     21  O   GLY A   2     -11.100  10.990  69.212  1.00  0.00    -0.218 OA 
ATOM     22  OXT GLY A   2     -11.816  10.436  71.282  1.00  0.00    -0.350 OA 
ENDBRANCH  17  19
ENDBRANCH  14  15
BRANCH  14  23
HETATM   23  C   UNK A   1     -11.286  14.567  66.961  1.00  0.00    -0.337 C  
HETATM   24  S   UNK A   1     -12.475  13.944  65.730  1.00  0.00    -0.475 SA 
HETATM   25  H   UNK A   1     -11.972  13.032  64.810  1.00  0.00     0.000 H  
ENDBRANCH  14  23
ENDBRANCH  12  14
ENDBRANCH   9  10
ENDBRANCH   8   9
ENDBRANCH   2   8
TORSDOF 7
ENDMDL
MODEL      215
REMARK 921   NORMALIZED FREE ENERGY PREDICTED BY IDOCK:   -3.72 KCAL/MOL
REMARK 922        TOTAL FREE ENERGY PREDICTED BY IDOCK:   -5.80 KCAL/MOL
REMARK 923 INTER-LIGAND FREE ENERGY PREDICTED BY IDOCK:   -5.42 KCAL/MOL
REMARK 924 INTRA-LIGAND FREE ENERGY PREDICTED BY IDOCK:   -0.38 KCAL/MOL
REMARK 927      BINDING AFFINITY PREDICTED BY RF-SCORE:    0.00 PKD
ROOT
HETATM    1  N   UNK A   1      -8.636   6.041  70.723  1.00  0.00    -0.133 NA 
HETATM    2  C   UNK A   1      -9.239   6.885  71.797  1.00  0.00    -0.142 C  
HETATM    3  H2  UNK A   1      -9.086   6.218  69.825  1.00  0.00     0.000 HD 
HETATM    4  H1  UNK A   1      -7.625   6.152  70.653  1.00  0.00     0.000 HD 
HETATM    5  O   UNK A   1      -7.518   5.700  72.963  1.00  0.00    -0.090 OA 
HETATM    6  C   UNK A   1      -8.548   6.568  73.136  1.00  0.00    -0.121 C  
HETATM    7  O   UNK A   1      -8.887   7.007  74.223  1.00  0.00    -0.170 OA 
ENDROOT
BRANCH   2   8
HETATM    8  C   UNK A   1     -10.758   6.718  71.904  1.00  0.00    -0.250 C  
BRANCH   8   9
HETATM    9  C   UNK A   1     -11.476   7.874  72.607  1.00  0.00    -0.454 C  
BRANCH   9  10
HETATM   10  C   UNK A   1     -12.291   8.663  71.608  1.00  0.00    -0.333 C  
HETATM   11  O   UNK A   1     -13.397   8.293  71.226  1.00  0.00    -0.241 OA 
HETATM   12  N   UNK A   1     -11.712   9.831  71.188  1.00  0.00    -0.354 N  
HETATM   13  H   UNK A   1     -10.789  10.084  71.544  1.00  0.00     0.000 HD 
BRANCH  12  14
HETATM   14  C   UNK A   1     -12.377  10.724  70.244  1.00  0.00    -0.341 C  
BRANCH  14  15
HETATM   15  C   UNK A   1     -11.658  10.600  68.887  1.00  0.00    -0.249 C  
ATOM     16  H   GLY A   2     -12.110  12.597  68.464  1.00  0.00     0.000 HD 
ATOM     17  N   GLY A   2     -11.708  11.735  68.094  1.00  0.00    -0.320 N  
HETATM   18  O   UNK A   1     -11.013   9.604  68.572  1.00  0.00    -0.193 OA 
BRANCH  17  19
ATOM     19  CA  GLY A   2     -11.183  11.702  66.722  1.00  0.00    -0.308 C  
ATOM     20  C   GLY A   2     -11.518  12.953  65.911  1.00  0.00    -0.346 C  
ATOM     21  O   GLY A   2     -12.244  13.867  66.598  1.00  0.00    -0.437 OA 
ATOM     22  OXT GLY A   2     -11.206  13.108  64.740  1.00  0.00    -0.303 OA 
ENDBRANCH  17  19
ENDBRANCH  14  15
BRANCH  14  23
HETATM   23  C   UNK A   1     -12.313  12.203  70.656  1.00  0.00    -0.295 C  
HETATM   24  S   UNK A   1     -13.365  12.680  72.065  1.00  0.00    -0.337 SA 
HETATM   25  H   UNK A   1     -13.307  14.018  72.437  1.00  0.00     0.000 H  
ENDBRANCH  14  23
ENDBRANCH  12  14
ENDBRANCH   9  10
ENDBRANCH   8   9
ENDBRANCH   2   8
TORSDOF 7
ENDMDL
MODEL      216
REMARK 921   NORMALIZED FREE ENERGY PREDICTED BY IDOCK:   -3.69 KCAL/MOL
REMARK 922        TOTAL FREE ENERGY PREDICTED BY IDOCK:   -5.76 KCAL/MOL
REMARK 923 INTER-LIGAND FREE ENERGY PREDICTED BY IDOCK:   -5.06 KCAL/MOL
REMARK 924 INTRA-LIGAND FREE ENERGY PREDICTED BY IDOCK:   -0.70 KCAL/MOL
REMARK 927      BINDING AFFINITY PREDICTED BY RF-SCORE:    0.00 PKD
ROOT
HETATM    1  N   UNK A   1     -10.424   7.919  66.756  1.00  0.00    -0.439 NA 
HETATM    2  C   UNK A   1      -9.161   8.293  67.458  1.00  0.00    -0.137 C  
HETATM    3  H2  UNK A   1     -11.169   8.582  66.968  1.00  0.00     0.000 HD 
HETATM    4  H1  UNK A   1     -10.303   7.815  65.749  1.00  0.00     0.000 HD 
HETATM    5  O   UNK A   1      -8.519   6.349  66.219  1.00  0.00    -0.120 OA 
HETATM    6  C   UNK A   1      -8.074   7.253  67.130  1.00  0.00    -0.114 C  
HETATM    7  O   UNK A   1      -6.964   7.213  67.636  1.00  0.00    -0.074 OA 
ENDROOT
BRANCH   2   8
HETATM    8  C   UNK A   1      -9.343   8.448  68.971  1.00  0.00    -0.147 C  
BRANCH   8   9
HETATM    9  C   UNK A   1      -8.919   9.811  69.526  1.00  0.00    -0.215 C  
BRANCH   9  10
HETATM   10  C   UNK A   1     -10.103  10.749  69.555  1.00  0.00    -0.084 C  
HETATM   11  O   UNK A   1     -11.122  10.500  70.194  1.00  0.00    -0.285 OA 
HETATM   12  N   UNK A   1      -9.939  11.907  68.841  1.00  0.00    -0.409 N  
HETATM   13  H   UNK A   1      -9.068  12.056  68.332  1.00  0.00     0.000 HD 
BRANCH  12  14
HETATM   14  C   UNK A   1     -10.976  12.932  68.787  1.00  0.00    -0.254 C  
BRANCH  14  15
HETATM   15  C   UNK A   1     -11.400  13.101  67.316  1.00  0.00    -0.306 C  
ATOM     16  H   GLY A   2      -9.605  14.092  66.910  1.00  0.00     0.000 HD 
ATOM     17  N   GLY A   2     -10.509  13.811  66.528  1.00  0.00    -0.279 N  
HETATM   18  O   UNK A   1     -12.407  12.567  66.855  1.00  0.00    -0.431 OA 
BRANCH  17  19
ATOM     19  CA  GLY A   2     -10.861  14.161  65.145  1.00  0.00    -0.372 C  
ATOM     20  C   GLY A   2     -11.301  15.614  64.977  1.00  0.00    -0.253 C  
ATOM     21  O   GLY A   2     -11.297  16.320  66.133  1.00  0.00     0.176 OA 
ATOM     22  OXT GLY A   2     -11.669  16.095  63.916  1.00  0.00    -0.860 OA 
ENDBRANCH  17  19
ENDBRANCH  14  15
BRANCH  14  23
HETATM   23  C   UNK A   1     -10.501  14.307  69.280  1.00  0.00    -0.097 C  
HETATM   24  S   UNK A   1     -11.815  15.471  69.771  1.00  0.00    -0.367 SA 
HETATM   25  H   UNK A   1     -11.385  16.715  70.217  1.00  0.00     0.000 H  
ENDBRANCH  14  23
ENDBRANCH  12  14
ENDBRANCH   9  10
ENDBRANCH   8   9
ENDBRANCH   2   8
TORSDOF 7
ENDMDL
MODEL      217
REMARK 921   NORMALIZED FREE ENERGY PREDICTED BY IDOCK:   -3.69 KCAL/MOL
REMARK 922        TOTAL FREE ENERGY PREDICTED BY IDOCK:   -5.76 KCAL/MOL
REMARK 923 INTER-LIGAND FREE ENERGY PREDICTED BY IDOCK:   -5.89 KCAL/MOL
REMARK 924 INTRA-LIGAND FREE ENERGY PREDICTED BY IDOCK:    0.13 KCAL/MOL
REMARK 927      BINDING AFFINITY PREDICTED BY RF-SCORE:    0.00 PKD
ROOT
HETATM    1  N   UNK A   1      -7.581  10.486  67.511  1.00  0.00    -0.093 NA 
HETATM    2  C   UNK A   1      -8.236   9.215  67.941  1.00  0.00    -0.112 C  
HETATM    3  H2  UNK A   1      -7.789  11.242  68.162  1.00  0.00     0.000 HD 
HETATM    4  H1  UNK A   1      -6.575  10.388  67.375  1.00  0.00     0.000 HD 
HETATM    5  O   UNK A   1      -7.048   8.555  65.972  1.00  0.00    -0.074 OA 
HETATM    6  C   UNK A   1      -7.916   8.111  66.918  1.00  0.00    -0.104 C  
HETATM    7  O   UNK A   1      -8.393   6.988  66.924  1.00  0.00    -0.115 OA 
ENDROOT
BRANCH   2   8
HETATM    8  C   UNK A   1      -9.748   9.363  68.144  1.00  0.00    -0.164 C  
BRANCH   8   9
HETATM    9  C   UNK A   1     -10.170  10.653  68.853  1.00  0.00    -0.216 C  
BRANCH   9  10
HETATM   10  C   UNK A   1     -10.945  11.536  67.904  1.00  0.00    -0.233 C  
HETATM   11  O   UNK A   1     -12.139  11.778  68.059  1.00  0.00    -0.572 OA 
HETATM   12  N   UNK A   1     -10.207  12.067  66.879  1.00  0.00    -0.207 N  
HETATM   13  H   UNK A   1      -9.218  11.830  66.806  1.00  0.00     0.000 HD 
BRANCH  12  14
HETATM   14  C   UNK A   1     -10.796  12.963  65.889  1.00  0.00    -0.272 C  
BRANCH  14  15
HETATM   15  C   UNK A   1     -10.869  14.372  66.508  1.00  0.00    -0.310 C  
ATOM     16  H   GLY A   2      -9.295  14.994  65.282  1.00  0.00     0.000 HD 
ATOM     17  N   GLY A   2      -9.913  15.263  66.048  1.00  0.00    -0.295 N  
HETATM   18  O   UNK A   1     -11.764  14.706  67.282  1.00  0.00    -0.381 OA 
BRANCH  17  19
ATOM     19  CA  GLY A   2      -9.787  16.593  66.659  1.00  0.00    -0.274 C  
ATOM     20  C   GLY A   2     -10.385  17.713  65.811  1.00  0.00    -0.188 C  
ATOM     21  O   GLY A   2     -10.920  17.283  64.643  1.00  0.00    -1.013 OA 
ATOM     22  OXT GLY A   2     -10.352  18.895  66.121  1.00  0.00    -0.422 OA 
ENDBRANCH  17  19
ENDBRANCH  14  15
BRANCH  14  23
HETATM   23  C   UNK A   1     -12.227  12.572  65.488  1.00  0.00    -0.377 C  
HETATM   24  S   UNK A   1     -12.458  12.093  63.745  1.00  0.00    -0.468 SA 
HETATM   25  H   UNK A   1     -13.752  11.739  63.382  1.00  0.00     0.000 H  
ENDBRANCH  14  23
ENDBRANCH  12  14
ENDBRANCH   9  10
ENDBRANCH   8   9
ENDBRANCH   2   8
TORSDOF 7
ENDMDL
MODEL      218
REMARK 921   NORMALIZED FREE ENERGY PREDICTED BY IDOCK:   -3.68 KCAL/MOL
REMARK 922        TOTAL FREE ENERGY PREDICTED BY IDOCK:   -5.75 KCAL/MOL
REMARK 923 INTER-LIGAND FREE ENERGY PREDICTED BY IDOCK:   -5.42 KCAL/MOL
REMARK 924 INTRA-LIGAND FREE ENERGY PREDICTED BY IDOCK:   -0.33 KCAL/MOL
REMARK 927      BINDING AFFINITY PREDICTED BY RF-SCORE:    0.00 PKD
ROOT
HETATM    1  N   UNK A   1     -12.762  14.471  69.910  1.00  0.00    -0.547 NA 
HETATM    2  C   UNK A   1     -11.337  14.264  69.518  1.00  0.00    -0.269 C  
HETATM    3  H2  UNK A   1     -13.311  13.627  69.747  1.00  0.00     0.000 HD 
HETATM    4  H1  UNK A   1     -12.867  14.794  70.872  1.00  0.00     0.000 HD 
HETATM    5  O   UNK A   1     -11.333  16.506  70.352  1.00  0.00    -0.299 OA 
HETATM    6  C   UNK A   1     -10.554  15.567  69.757  1.00  0.00    -0.295 C  
HETATM    7  O   UNK A   1      -9.392  15.759  69.434  1.00  0.00    -0.254 OA 
ENDROOT
BRANCH   2   8
HETATM    8  C   UNK A   1     -11.180  13.778  68.074  1.00  0.00    -0.293 C  
BRANCH   8   9
HETATM    9  C   UNK A   1      -9.729  13.666  67.596  1.00  0.00    -0.228 C  
BRANCH   9  10
HETATM   10  C   UNK A   1      -9.283  12.222  67.628  1.00  0.00    -0.183 C  
HETATM   11  O   UNK A   1      -9.131  11.560  66.605  1.00  0.00    -0.178 OA 
HETATM   12  N   UNK A   1      -9.035  11.724  68.879  1.00  0.00    -0.386 N  
HETATM   13  H   UNK A   1      -9.179  12.325  69.691  1.00  0.00     0.000 HD 
BRANCH  12  14
HETATM   14  C   UNK A   1      -8.572  10.355  69.085  1.00  0.00    -0.164 C  
BRANCH  14  15
HETATM   15  C   UNK A   1      -9.472   9.705  70.153  1.00  0.00    -0.253 C  
ATOM     16  H   GLY A   2     -11.101   9.814  68.849  1.00  0.00     0.000 HD 
ATOM     17  N   GLY A   2     -10.804   9.577  69.796  1.00  0.00    -0.237 N  
HETATM   18  O   UNK A   1      -9.024   9.251  71.204  1.00  0.00    -0.240 OA 
BRANCH  17  19
ATOM     19  CA  GLY A   2     -11.790   9.103  70.776  1.00  0.00    -0.227 C  
ATOM     20  C   GLY A   2     -12.592  10.227  71.429  1.00  0.00    -0.434 C  
ATOM     21  O   GLY A   2     -12.247  11.462  70.993  1.00  0.00    -0.346 OA 
ATOM     22  OXT GLY A   2     -13.435  10.048  72.295  1.00  0.00    -0.417 OA 
ENDBRANCH  17  19
ENDBRANCH  14  15
BRANCH  14  23
HETATM   23  C   UNK A   1      -7.127  10.271  69.601  1.00  0.00    -0.125 C  
HETATM   24  S   UNK A   1      -5.831  10.744  68.409  1.00  0.00    -0.042 SA 
HETATM   25  H   UNK A   1      -4.524  10.668  68.876  1.00  0.00     0.000 H  
ENDBRANCH  14  23
ENDBRANCH  12  14
ENDBRANCH   9  10
ENDBRANCH   8   9
ENDBRANCH   2   8
TORSDOF 7
ENDMDL
MODEL      219
REMARK 921   NORMALIZED FREE ENERGY PREDICTED BY IDOCK:   -3.66 KCAL/MOL
REMARK 922        TOTAL FREE ENERGY PREDICTED BY IDOCK:   -5.72 KCAL/MOL
REMARK 923 INTER-LIGAND FREE ENERGY PREDICTED BY IDOCK:   -5.41 KCAL/MOL
REMARK 924 INTRA-LIGAND FREE ENERGY PREDICTED BY IDOCK:   -0.32 KCAL/MOL
REMARK 927      BINDING AFFINITY PREDICTED BY RF-SCORE:    0.00 PKD
ROOT
HETATM    1  N   UNK A   1     -11.009   8.448  68.086  1.00  0.00    -0.449 NA 
HETATM    2  C   UNK A   1     -10.524   7.978  66.755  1.00  0.00    -0.248 C  
HETATM    3  H2  UNK A   1     -11.281   9.430  68.049  1.00  0.00     0.000 HD 
HETATM    4  H1  UNK A   1     -11.765   7.874  68.458  1.00  0.00     0.000 HD 
HETATM    5  O   UNK A   1     -10.381   6.001  68.094  1.00  0.00    -0.163 OA 
HETATM    6  C   UNK A   1     -10.102   6.502  66.863  1.00  0.00    -0.192 C  
HETATM    7  O   UNK A   1      -9.559   5.859  65.979  1.00  0.00    -0.126 OA 
ENDROOT
BRANCH   2   8
HETATM    8  C   UNK A   1      -9.388   8.841  66.195  1.00  0.00    -0.297 C  
BRANCH   8   9
HETATM    9  C   UNK A   1      -9.849   9.992  65.296  1.00  0.00    -0.388 C  
BRANCH   9  10
HETATM   10  C   UNK A   1      -9.362  11.310  65.852  1.00  0.00    -0.219 C  
HETATM   11  O   UNK A   1      -8.443  11.380  66.664  1.00  0.00    -0.163 OA 
HETATM   12  N   UNK A   1     -10.003  12.416  65.358  1.00  0.00    -0.333 N  
HETATM   13  H   UNK A   1     -10.758  12.291  64.683  1.00  0.00     0.000 HD 
BRANCH  12  14
HETATM   14  C   UNK A   1      -9.636  13.767  65.771  1.00  0.00    -0.070 C  
BRANCH  14  15
HETATM   15  C   UNK A   1      -9.813  13.861  67.298  1.00  0.00    -0.244 C  
ATOM     16  H   GLY A   2     -11.703  12.982  67.135  1.00  0.00     0.000 HD 
ATOM     17  N   GLY A   2     -11.038  13.423  67.773  1.00  0.00    -0.260 N  
HETATM   18  O   UNK A   1      -8.903  14.211  68.046  1.00  0.00    -0.166 OA 
BRANCH  17  19
ATOM     19  CA  GLY A   2     -11.385  13.589  69.191  1.00  0.00    -0.282 C  
ATOM     20  C   GLY A   2     -12.015  12.346  69.815  1.00  0.00    -0.289 C  
ATOM     21  O   GLY A   2     -12.149  11.313  68.950  1.00  0.00    -0.455 OA 
ATOM     22  OXT GLY A   2     -12.407  12.289  70.971  1.00  0.00    -0.351 OA 
ENDBRANCH  17  19
ENDBRANCH  14  15
BRANCH  14  23
HETATM   23  C   UNK A   1     -10.521  14.857  65.146  1.00  0.00    -0.417 C  
HETATM   24  S   UNK A   1     -10.289  16.540  65.805  1.00  0.00    -0.294 SA 
HETATM   25  H   UNK A   1     -11.089  17.525  65.240  1.00  0.00     0.000 H  
ENDBRANCH  14  23
ENDBRANCH  12  14
ENDBRANCH   9  10
ENDBRANCH   8   9
ENDBRANCH   2   8
TORSDOF 7
ENDMDL
MODEL      220
REMARK 921   NORMALIZED FREE ENERGY PREDICTED BY IDOCK:   -3.66 KCAL/MOL
REMARK 922        TOTAL FREE ENERGY PREDICTED BY IDOCK:   -5.72 KCAL/MOL
REMARK 923 INTER-LIGAND FREE ENERGY PREDICTED BY IDOCK:   -5.84 KCAL/MOL
REMARK 924 INTRA-LIGAND FREE ENERGY PREDICTED BY IDOCK:    0.12 KCAL/MOL
REMARK 927      BINDING AFFINITY PREDICTED BY RF-SCORE:    0.00 PKD
ROOT
HETATM    1  N   UNK A   1     -11.758  16.412  70.492  1.00  0.00    -0.456 NA 
HETATM    2  C   UNK A   1     -12.594  15.347  71.120  1.00  0.00    -0.422 C  
HETATM    3  H2  UNK A   1     -11.768  16.332  69.475  1.00  0.00     0.000 HD 
HETATM    4  H1  UNK A   1     -12.024  17.351  70.787  1.00  0.00     0.000 HD 
HETATM    5  O   UNK A   1     -11.827  16.596  73.010  1.00  0.00    -0.496 OA 
HETATM    6  C   UNK A   1     -12.529  15.490  72.650  1.00  0.00    -0.405 C  
HETATM    7  O   UNK A   1     -13.013  14.707  73.451  1.00  0.00    -0.526 OA 
ENDROOT
BRANCH   2   8
HETATM    8  C   UNK A   1     -12.193  13.936  70.677  1.00  0.00    -0.443 C  
BRANCH   8   9
HETATM    9  C   UNK A   1     -12.973  12.810  71.362  1.00  0.00    -0.359 C  
BRANCH   9  10
HETATM   10  C   UNK A   1     -12.505  11.468  70.847  1.00  0.00    -0.366 C  
HETATM   11  O   UNK A   1     -13.262  10.507  70.737  1.00  0.00    -0.335 OA 
HETATM   12  N   UNK A   1     -11.184  11.418  70.488  1.00  0.00    -0.276 N  
HETATM   13  H   UNK A   1     -10.607  12.252  70.602  1.00  0.00     0.000 HD 
BRANCH  12  14
HETATM   14  C   UNK A   1     -10.578  10.205  69.948  1.00  0.00    -0.285 C  
BRANCH  14  15
HETATM   15  C   UNK A   1     -10.110   9.339  71.133  1.00  0.00    -0.304 C  
ATOM     16  H   GLY A   2      -8.121   9.626  70.559  1.00  0.00     0.000 HD 
ATOM     17  N   GLY A   2      -8.742   9.135  71.203  1.00  0.00    -0.195 N  
HETATM   18  O   UNK A   1     -10.882   8.938  72.000  1.00  0.00    -0.349 OA 
BRANCH  17  19
ATOM     19  CA  GLY A   2      -8.182   8.215  72.202  1.00  0.00    -0.149 C  
ATOM     20  C   GLY A   2      -6.655   8.199  72.228  1.00  0.00    -0.075 C  
ATOM     21  O   GLY A   2      -6.088   9.031  71.322  1.00  0.00    -0.050 OA 
ATOM     22  OXT GLY A   2      -5.994   7.478  72.960  1.00  0.00    -0.047 OA 
ENDBRANCH  17  19
ENDBRANCH  14  15
BRANCH  14  23
HETATM   23  C   UNK A   1      -9.345  10.477  69.072  1.00  0.00    -0.196 C  
HETATM   24  S   UNK A   1      -9.230  12.152  68.363  1.00  0.00    -0.108 SA 
HETATM   25  H   UNK A   1      -8.114  12.397  67.572  1.00  0.00     0.000 H  
ENDBRANCH  14  23
ENDBRANCH  12  14
ENDBRANCH   9  10
ENDBRANCH   8   9
ENDBRANCH   2   8
TORSDOF 7
ENDMDL
MODEL      221
REMARK 921   NORMALIZED FREE ENERGY PREDICTED BY IDOCK:   -3.65 KCAL/MOL
REMARK 922        TOTAL FREE ENERGY PREDICTED BY IDOCK:   -5.71 KCAL/MOL
REMARK 923 INTER-LIGAND FREE ENERGY PREDICTED BY IDOCK:   -5.09 KCAL/MOL
REMARK 924 INTRA-LIGAND FREE ENERGY PREDICTED BY IDOCK:   -0.63 KCAL/MOL
REMARK 927      BINDING AFFINITY PREDICTED BY RF-SCORE:    0.00 PKD
ROOT
HETATM    1  N   UNK A   1     -11.986  11.738  67.692  1.00  0.00    -0.606 NA 
HETATM    2  C   UNK A   1     -10.854  10.996  67.062  1.00  0.00    -0.279 C  
HETATM    3  H2  UNK A   1     -12.079  11.493  68.677  1.00  0.00     0.000 HD 
HETATM    4  H1  UNK A   1     -11.914  12.748  67.572  1.00  0.00     0.000 HD 
HETATM    5  O   UNK A   1     -11.660  12.352  65.263  1.00  0.00    -0.344 OA 
HETATM    6  C   UNK A   1     -10.767  11.377  65.573  1.00  0.00    -0.253 C  
HETATM    7  O   UNK A   1     -10.019  10.861  64.758  1.00  0.00    -0.257 OA 
ENDROOT
BRANCH   2   8
HETATM    8  C   UNK A   1     -10.962   9.479  67.241  1.00  0.00    -0.062 C  
BRANCH   8   9
HETATM    9  C   UNK A   1      -9.743   8.829  67.904  1.00  0.00    -0.188 C  
BRANCH   9  10
HETATM   10  C   UNK A   1      -9.666   9.235  69.357  1.00  0.00    -0.172 C  
HETATM   11  O   UNK A   1      -8.849  10.055  69.767  1.00  0.00    -0.203 OA 
HETATM   12  N   UNK A   1     -10.593   8.640  70.171  1.00  0.00    -0.220 N  
HETATM   13  H   UNK A   1     -11.247   7.967  69.770  1.00  0.00     0.000 HD 
BRANCH  12  14
HETATM   14  C   UNK A   1     -10.673   8.942  71.597  1.00  0.00    -0.347 C  
BRANCH  14  15
HETATM   15  C   UNK A   1      -9.637   8.065  72.326  1.00  0.00    -0.223 C  
ATOM     16  H   GLY A   2     -10.463   6.357  71.449  1.00  0.00     0.000 HD 
ATOM     17  N   GLY A   2      -9.777   6.702  72.121  1.00  0.00    -0.154 N  
HETATM   18  O   UNK A   1      -8.703   8.543  72.965  1.00  0.00    -0.343 OA 
BRANCH  17  19
ATOM     19  CA  GLY A   2      -8.942   5.752  72.869  1.00  0.00    -0.123 C  
ATOM     20  C   GLY A   2      -9.745   4.795  73.748  1.00  0.00    -0.134 C  
ATOM     21  O   GLY A   2     -11.083   4.996  73.688  1.00  0.00    -0.308 OA 
ATOM     22  OXT GLY A   2      -9.240   3.953  74.476  1.00  0.00    -0.097 OA 
ENDBRANCH  17  19
ENDBRANCH  14  15
BRANCH  14  23
HETATM   23  C   UNK A   1     -12.045   8.625  72.212  1.00  0.00    -0.373 C  
HETATM   24  S   UNK A   1     -13.356   9.852  71.899  1.00  0.00    -0.400 SA 
HETATM   25  H   UNK A   1     -14.597   9.565  72.456  1.00  0.00     0.000 H  
ENDBRANCH  14  23
ENDBRANCH  12  14
ENDBRANCH   9  10
ENDBRANCH   8   9
ENDBRANCH   2   8
TORSDOF 7
ENDMDL
MODEL      222
REMARK 921   NORMALIZED FREE ENERGY PREDICTED BY IDOCK:   -3.65 KCAL/MOL
REMARK 922        TOTAL FREE ENERGY PREDICTED BY IDOCK:   -5.71 KCAL/MOL
REMARK 923 INTER-LIGAND FREE ENERGY PREDICTED BY IDOCK:   -6.43 KCAL/MOL
REMARK 924 INTRA-LIGAND FREE ENERGY PREDICTED BY IDOCK:    0.71 KCAL/MOL
REMARK 927      BINDING AFFINITY PREDICTED BY RF-SCORE:    0.00 PKD
ROOT
HETATM    1  N   UNK A   1     -12.277  15.960  63.835  1.00  0.00    -1.148 NA 
HETATM    2  C   UNK A   1     -11.746  14.801  64.612  1.00  0.00    -0.422 C  
HETATM    3  H2  UNK A   1     -13.170  15.731  63.402  1.00  0.00     0.000 HD 
HETATM    4  H1  UNK A   1     -12.349  16.811  64.393  1.00  0.00     0.000 HD 
HETATM    5  O   UNK A   1     -10.093  16.489  64.990  1.00  0.00    -0.483 OA 
HETATM    6  C   UNK A   1     -10.387  15.184  65.226  1.00  0.00    -0.396 C  
HETATM    7  O   UNK A   1      -9.646  14.421  65.823  1.00  0.00    -0.273 OA 
ENDROOT
BRANCH   2   8
HETATM    8  C   UNK A   1     -11.636  13.523  63.775  1.00  0.00    -0.287 C  
BRANCH   8   9
HETATM    9  C   UNK A   1     -12.326  12.301  64.388  1.00  0.00    -0.493 C  
BRANCH   9  10
HETATM   10  C   UNK A   1     -11.712  11.979  65.731  1.00  0.00    -0.245 C  
HETATM   11  O   UNK A   1     -10.757  11.218  65.851  1.00  0.00    -0.265 OA 
HETATM   12  N   UNK A   1     -12.286  12.624  66.795  1.00  0.00    -0.154 N  
HETATM   13  H   UNK A   1     -13.077  13.246  66.631  1.00  0.00     0.000 HD 
BRANCH  12  14
HETATM   14  C   UNK A   1     -11.796  12.445  68.159  1.00  0.00    -0.315 C  
BRANCH  14  15
HETATM   15  C   UNK A   1     -11.389  13.828  68.701  1.00  0.00    -0.287 C  
ATOM     16  H   GLY A   2      -9.374  13.345  68.425  1.00  0.00     0.000 HD 
ATOM     17  N   GLY A   2     -10.023  14.040  68.795  1.00  0.00    -0.202 N  
HETATM   18  O   UNK A   1     -12.211  14.709  68.944  1.00  0.00    -0.246 OA 
BRANCH  17  19
ATOM     19  CA  GLY A   2      -9.506  15.262  69.427  1.00  0.00    -0.231 C  
ATOM     20  C   GLY A   2      -8.089  15.624  68.984  1.00  0.00    -0.222 C  
ATOM     21  O   GLY A   2      -7.559  14.752  68.094  1.00  0.00    -0.105 OA 
ATOM     22  OXT GLY A   2      -7.465  16.581  69.417  1.00  0.00    -0.223 OA 
ENDBRANCH  17  19
ENDBRANCH  14  15
BRANCH  14  23
HETATM   23  C   UNK A   1     -10.557  11.542  68.249  1.00  0.00    -0.200 C  
HETATM   24  S   UNK A   1     -10.785   9.969  69.140  1.00  0.00    -0.229 SA 
HETATM   25  H   UNK A   1      -9.664   9.152  69.221  1.00  0.00     0.000 H  
ENDBRANCH  14  23
ENDBRANCH  12  14
ENDBRANCH   9  10
ENDBRANCH   8   9
ENDBRANCH   2   8
TORSDOF 7
ENDMDL
MODEL      223
REMARK 921   NORMALIZED FREE ENERGY PREDICTED BY IDOCK:   -3.65 KCAL/MOL
REMARK 922        TOTAL FREE ENERGY PREDICTED BY IDOCK:   -5.70 KCAL/MOL
REMARK 923 INTER-LIGAND FREE ENERGY PREDICTED BY IDOCK:   -4.98 KCAL/MOL
REMARK 924 INTRA-LIGAND FREE ENERGY PREDICTED BY IDOCK:   -0.72 KCAL/MOL
REMARK 927      BINDING AFFINITY PREDICTED BY RF-SCORE:    0.00 PKD
ROOT
HETATM    1  N   UNK A   1     -11.506  11.494  70.197  1.00  0.00    -0.496 NA 
HETATM    2  C   UNK A   1     -12.196  10.196  70.455  1.00  0.00    -0.264 C  
HETATM    3  H2  UNK A   1     -10.883  11.423  69.393  1.00  0.00     0.000 HD 
HETATM    4  H1  UNK A   1     -12.154  12.274  70.089  1.00  0.00     0.000 HD 
HETATM    5  O   UNK A   1     -13.115  11.624  72.140  1.00  0.00    -0.457 OA 
HETATM    6  C   UNK A   1     -13.103  10.343  71.689  1.00  0.00    -0.448 C  
HETATM    7  O   UNK A   1     -13.716   9.432  72.224  1.00  0.00    -0.451 OA 
ENDROOT
BRANCH   2   8
HETATM    8  C   UNK A   1     -11.222   9.025  70.619  1.00  0.00    -0.318 C  
BRANCH   8   9
HETATM    9  C   UNK A   1      -9.806   9.430  71.040  1.00  0.00    -0.317 C  
BRANCH   9  10
HETATM   10  C   UNK A   1      -8.872   9.360  69.854  1.00  0.00    -0.199 C  
HETATM   11  O   UNK A   1      -7.760   8.846  69.925  1.00  0.00    -0.068 OA 
HETATM   12  N   UNK A   1      -9.375   9.886  68.694  1.00  0.00    -0.145 N  
HETATM   13  H   UNK A   1     -10.308  10.298  68.699  1.00  0.00     0.000 HD 
BRANCH  12  14
HETATM   14  C   UNK A   1      -8.613   9.875  67.449  1.00  0.00    -0.125 C  
BRANCH  14  15
HETATM   15  C   UNK A   1      -8.980  11.143  66.655  1.00  0.00    -0.170 C  
ATOM     16  H   GLY A   2      -7.956  12.315  68.050  1.00  0.00     0.000 HD 
ATOM     17  N   GLY A   2      -8.554  12.332  67.223  1.00  0.00    -0.176 N  
HETATM   18  O   UNK A   1      -9.529  11.096  65.557  1.00  0.00    -0.208 OA 
BRANCH  17  19
ATOM     19  CA  GLY A   2      -8.960  13.618  66.640  1.00  0.00    -0.120 C  
ATOM     20  C   GLY A   2      -8.969  14.768  67.645  1.00  0.00    -0.182 C  
ATOM     21  O   GLY A   2      -8.608  14.398  68.896  1.00  0.00    -0.147 OA 
ATOM     22  OXT GLY A   2      -9.311  15.909  67.371  1.00  0.00    -0.208 OA 
ENDBRANCH  17  19
ENDBRANCH  14  15
BRANCH  14  23
HETATM   23  C   UNK A   1      -8.932   8.671  66.549  1.00  0.00    -0.154 C  
HETATM   24  S   UNK A   1     -10.390   7.688  67.028  1.00  0.00    -0.334 SA 
HETATM   25  H   UNK A   1     -10.679   6.599  66.214  1.00  0.00     0.000 H  
ENDBRANCH  14  23
ENDBRANCH  12  14
ENDBRANCH   9  10
ENDBRANCH   8   9
ENDBRANCH   2   8
TORSDOF 7
ENDMDL
MODEL      224
REMARK 921   NORMALIZED FREE ENERGY PREDICTED BY IDOCK:   -3.64 KCAL/MOL
REMARK 922        TOTAL FREE ENERGY PREDICTED BY IDOCK:   -5.70 KCAL/MOL
REMARK 923 INTER-LIGAND FREE ENERGY PREDICTED BY IDOCK:   -4.99 KCAL/MOL
REMARK 924 INTRA-LIGAND FREE ENERGY PREDICTED BY IDOCK:   -0.71 KCAL/MOL
REMARK 927      BINDING AFFINITY PREDICTED BY RF-SCORE:    0.00 PKD
ROOT
HETATM    1  N   UNK A   1     -10.792  13.185  69.118  1.00  0.00    -0.428 NA 
HETATM    2  C   UNK A   1     -10.499  11.776  68.718  1.00  0.00    -0.198 C  
HETATM    3  H2  UNK A   1     -10.192  13.478  69.888  1.00  0.00     0.000 HD 
HETATM    4  H1  UNK A   1     -10.730  13.839  68.338  1.00  0.00     0.000 HD 
HETATM    5  O   UNK A   1     -12.202  12.421  67.166  1.00  0.00    -0.492 OA 
HETATM    6  C   UNK A   1     -11.443  11.370  67.572  1.00  0.00    -0.260 C  
HETATM    7  O   UNK A   1     -11.532  10.249  67.099  1.00  0.00    -0.181 OA 
ENDROOT
BRANCH   2   8
HETATM    8  C   UNK A   1     -10.592  10.793  69.889  1.00  0.00    -0.130 C  
BRANCH   8   9
HETATM    9  C   UNK A   1     -11.989  10.669  70.505  1.00  0.00    -0.446 C  
BRANCH   9  10
HETATM   10  C   UNK A   1     -12.281   9.224  70.840  1.00  0.00    -0.201 C  
HETATM   11  O   UNK A   1     -13.263   8.889  71.496  1.00  0.00    -0.336 OA 
HETATM   12  N   UNK A   1     -11.384   8.323  70.331  1.00  0.00    -0.394 N  
HETATM   13  H   UNK A   1     -10.589   8.664  69.791  1.00  0.00     0.000 HD 
BRANCH  12  14
HETATM   14  C   UNK A   1     -11.535   6.886  70.539  1.00  0.00    -0.342 C  
BRANCH  14  15
HETATM   15  C   UNK A   1     -10.655   6.486  71.739  1.00  0.00    -0.215 C  
ATOM     16  H   GLY A   2     -10.735   4.487  71.133  1.00  0.00     0.000 HD 
ATOM     17  N   GLY A   2     -10.418   5.127  71.862  1.00  0.00    -0.215 N  
HETATM   18  O   UNK A   1     -10.129   7.316  72.475  1.00  0.00    -0.175 OA 
BRANCH  17  19
ATOM     19  CA  GLY A   2      -9.712   4.602  73.039  1.00  0.00    -0.137 C  
ATOM     20  C   GLY A   2      -8.218   4.387  72.809  1.00  0.00    -0.098 C  
ATOM     21  O   GLY A   2      -7.810   4.711  71.558  1.00  0.00    -0.093 OA 
ATOM     22  OXT GLY A   2      -7.459   3.925  73.648  1.00  0.00    -0.067 OA 
ENDBRANCH  17  19
ENDBRANCH  14  15
BRANCH  14  23
HETATM   23  C   UNK A   1     -11.072   6.044  69.340  1.00  0.00    -0.375 C  
HETATM   24  S   UNK A   1     -10.293   6.968  67.976  1.00  0.00    -0.207 SA 
HETATM   25  H   UNK A   1      -9.875   6.206  66.891  1.00  0.00     0.000 H  
ENDBRANCH  14  23
ENDBRANCH  12  14
ENDBRANCH   9  10
ENDBRANCH   8   9
ENDBRANCH   2   8
TORSDOF 7
ENDMDL
MODEL      225
REMARK 921   NORMALIZED FREE ENERGY PREDICTED BY IDOCK:   -3.63 KCAL/MOL
REMARK 922        TOTAL FREE ENERGY PREDICTED BY IDOCK:   -5.68 KCAL/MOL
REMARK 923 INTER-LIGAND FREE ENERGY PREDICTED BY IDOCK:   -5.38 KCAL/MOL
REMARK 924 INTRA-LIGAND FREE ENERGY PREDICTED BY IDOCK:   -0.30 KCAL/MOL
REMARK 927      BINDING AFFINITY PREDICTED BY RF-SCORE:    0.00 PKD
ROOT
HETATM    1  N   UNK A   1      -9.506   6.419  68.139  1.00  0.00    -0.115 NA 
HETATM    2  C   UNK A   1      -9.166   7.439  67.105  1.00  0.00    -0.136 C  
HETATM    3  H2  UNK A   1      -9.854   6.862  68.989  1.00  0.00     0.000 HD 
HETATM    4  H1  UNK A   1     -10.161   5.714  67.801  1.00  0.00     0.000 HD 
HETATM    5  O   UNK A   1      -8.700   5.378  65.983  1.00  0.00    -0.128 OA 
HETATM    6  C   UNK A   1      -8.623   6.727  65.853  1.00  0.00    -0.147 C  
HETATM    7  O   UNK A   1      -8.154   7.286  64.874  1.00  0.00    -0.125 OA 
ENDROOT
BRANCH   2   8
HETATM    8  C   UNK A   1      -8.181   8.498  67.612  1.00  0.00    -0.118 C  
BRANCH   8   9
HETATM    9  C   UNK A   1      -8.124   9.771  66.763  1.00  0.00    -0.120 C  
BRANCH   9  10
HETATM   10  C   UNK A   1      -9.509  10.354  66.608  1.00  0.00    -0.165 C  
HETATM   11  O   UNK A   1     -10.152  10.249  65.567  1.00  0.00    -0.286 OA 
HETATM   12  N   UNK A   1      -9.999  10.979  67.724  1.00  0.00    -0.171 N  
HETATM   13  H   UNK A   1      -9.416  11.031  68.560  1.00  0.00     0.000 HD 
BRANCH  12  14
HETATM   14  C   UNK A   1     -11.332  11.572  67.752  1.00  0.00    -0.296 C  
BRANCH  14  15
HETATM   15  C   UNK A   1     -11.206  13.043  67.310  1.00  0.00    -0.289 C  
ATOM     16  H   GLY A   2     -11.289  12.450  65.307  1.00  0.00     0.000 HD 
ATOM     17  N   GLY A   2     -11.150  13.239  65.940  1.00  0.00    -0.284 N  
HETATM   18  O   UNK A   1     -11.245  13.976  68.108  1.00  0.00    -0.254 OA 
BRANCH  17  19
ATOM     19  CA  GLY A   2     -10.890  14.578  65.394  1.00  0.00    -0.354 C  
ATOM     20  C   GLY A   2     -11.984  15.076  64.452  1.00  0.00    -0.353 C  
ATOM     21  O   GLY A   2     -12.997  14.193  64.282  1.00  0.00    -0.429 OA 
ATOM     22  OXT GLY A   2     -11.942  16.148  63.866  1.00  0.00    -0.947 OA 
ENDBRANCH  17  19
ENDBRANCH  14  15
BRANCH  14  23
HETATM   23  C   UNK A   1     -11.970  11.574  69.150  1.00  0.00    -0.320 C  
HETATM   24  S   UNK A   1     -11.390  10.275  70.288  1.00  0.00    -0.341 SA 
HETATM   25  H   UNK A   1     -11.967  10.277  71.552  1.00  0.00     0.000 H  
ENDBRANCH  14  23
ENDBRANCH  12  14
ENDBRANCH   9  10
ENDBRANCH   8   9
ENDBRANCH   2   8
TORSDOF 7
ENDMDL
MODEL      226
REMARK 921   NORMALIZED FREE ENERGY PREDICTED BY IDOCK:   -3.62 KCAL/MOL
REMARK 922        TOTAL FREE ENERGY PREDICTED BY IDOCK:   -5.67 KCAL/MOL
REMARK 923 INTER-LIGAND FREE ENERGY PREDICTED BY IDOCK:   -5.76 KCAL/MOL
REMARK 924 INTRA-LIGAND FREE ENERGY PREDICTED BY IDOCK:    0.09 KCAL/MOL
REMARK 927      BINDING AFFINITY PREDICTED BY RF-SCORE:    0.00 PKD
ROOT
HETATM    1  N   UNK A   1      -6.109  11.434  65.645  1.00  0.00    -0.431 NA 
HETATM    2  C   UNK A   1      -7.088  10.743  66.536  1.00  0.00    -0.138 C  
HETATM    3  H2  UNK A   1      -5.324  11.802  66.182  1.00  0.00     0.000 HD 
HETATM    4  H1  UNK A   1      -5.783  10.843  64.880  1.00  0.00     0.000 HD 
HETATM    5  O   UNK A   1      -8.047  10.440  64.365  1.00  0.00    -0.162 OA 
HETATM    6  C   UNK A   1      -8.264  10.227  65.688  1.00  0.00    -0.153 C  
HETATM    7  O   UNK A   1      -9.280   9.718  66.133  1.00  0.00    -0.159 OA 
ENDROOT
BRANCH   2   8
HETATM    8  C   UNK A   1      -7.578  11.630  67.684  1.00  0.00    -0.128 C  
BRANCH   8   9
HETATM    9  C   UNK A   1      -7.762  13.105  67.314  1.00  0.00    -0.107 C  
BRANCH   9  10
HETATM   10  C   UNK A   1      -9.185  13.534  67.587  1.00  0.00    -0.214 C  
HETATM   11  O   UNK A   1      -9.980  12.822  68.195  1.00  0.00    -0.218 OA 
HETATM   12  N   UNK A   1      -9.507  14.786  67.131  1.00  0.00    -0.220 N  
HETATM   13  H   UNK A   1      -8.800  15.329  66.635  1.00  0.00     0.000 HD 
BRANCH  12  14
HETATM   14  C   UNK A   1     -10.831  15.363  67.336  1.00  0.00    -0.309 C  
BRANCH  14  15
HETATM   15  C   UNK A   1     -10.845  16.040  68.720  1.00  0.00    -0.302 C  
ATOM     16  H   GLY A   2     -12.000  14.471  69.478  1.00  0.00     0.000 HD 
ATOM     17  N   GLY A   2     -11.592  15.384  69.684  1.00  0.00    -0.306 N  
HETATM   18  O   UNK A   1     -10.170  17.035  68.973  1.00  0.00    -0.290 OA 
BRANCH  17  19
ATOM     19  CA  GLY A   2     -11.800  15.998  71.003  1.00  0.00    -0.394 C  
ATOM     20  C   GLY A   2     -13.074  15.525  71.701  1.00  0.00    -0.481 C  
ATOM     21  O   GLY A   2     -13.789  14.630  70.979  1.00  0.00    -0.335 OA 
ATOM     22  OXT GLY A   2     -13.448  15.940  72.788  1.00  0.00    -0.519 OA 
ENDBRANCH  17  19
ENDBRANCH  14  15
BRANCH  14  23
HETATM   23  C   UNK A   1     -11.959  14.319  67.333  1.00  0.00    -0.391 C  
HETATM   24  S   UNK A   1     -12.529  13.772  65.691  1.00  0.00    -0.499 SA 
HETATM   25  H   UNK A   1     -13.549  12.828  65.689  1.00  0.00     0.000 H  
ENDBRANCH  14  23
ENDBRANCH  12  14
ENDBRANCH   9  10
ENDBRANCH   8   9
ENDBRANCH   2   8
TORSDOF 7
ENDMDL
MODEL      227
REMARK 921   NORMALIZED FREE ENERGY PREDICTED BY IDOCK:   -3.62 KCAL/MOL
REMARK 922        TOTAL FREE ENERGY PREDICTED BY IDOCK:   -5.66 KCAL/MOL
REMARK 923 INTER-LIGAND FREE ENERGY PREDICTED BY IDOCK:   -4.70 KCAL/MOL
REMARK 924 INTRA-LIGAND FREE ENERGY PREDICTED BY IDOCK:   -0.96 KCAL/MOL
REMARK 927      BINDING AFFINITY PREDICTED BY RF-SCORE:    0.00 PKD
ROOT
HETATM    1  N   UNK A   1      -9.511   3.264  68.826  1.00  0.00    -0.165 NA 
HETATM    2  C   UNK A   1      -9.811   4.721  68.702  1.00  0.00    -0.138 C  
HETATM    3  H2  UNK A   1     -10.324   2.752  69.168  1.00  0.00     0.000 HD 
HETATM    4  H1  UNK A   1      -9.160   2.856  67.960  1.00  0.00     0.000 HD 
HETATM    5  O   UNK A   1      -7.554   4.580  67.920  1.00  0.00    -0.076 OA 
HETATM    6  C   UNK A   1      -8.551   5.456  68.209  1.00  0.00    -0.096 C  
HETATM    7  O   UNK A   1      -8.436   6.667  68.113  1.00  0.00    -0.116 OA 
ENDROOT
BRANCH   2   8
HETATM    8  C   UNK A   1     -10.337   5.335  70.004  1.00  0.00    -0.365 C  
BRANCH   8   9
HETATM    9  C   UNK A   1     -11.501   6.313  69.820  1.00  0.00    -0.449 C  
BRANCH   9  10
HETATM   10  C   UNK A   1     -11.160   7.648  70.440  1.00  0.00    -0.258 C  
HETATM   11  O   UNK A   1     -11.429   7.917  71.607  1.00  0.00    -0.250 OA 
HETATM   12  N   UNK A   1     -10.502   8.517  69.610  1.00  0.00    -0.219 N  
HETATM   13  H   UNK A   1     -10.305   8.233  68.650  1.00  0.00     0.000 HD 
BRANCH  12  14
HETATM   14  C   UNK A   1     -10.076   9.838  70.060  1.00  0.00    -0.257 C  
BRANCH  14  15
HETATM   15  C   UNK A   1     -11.165  10.850  69.657  1.00  0.00    -0.282 C  
ATOM     16  H   GLY A   2     -10.199  11.168  67.831  1.00  0.00     0.000 HD 
ATOM     17  N   GLY A   2     -10.966  11.468  68.433  1.00  0.00    -0.204 N  
HETATM   18  O   UNK A   1     -12.179  11.028  70.328  1.00  0.00    -0.312 OA 
BRANCH  17  19
ATOM     19  CA  GLY A   2     -11.856  12.553  67.998  1.00  0.00    -0.325 C  
ATOM     20  C   GLY A   2     -11.116  13.743  67.392  1.00  0.00    -0.296 C  
ATOM     21  O   GLY A   2      -9.770  13.590  67.368  1.00  0.00    -0.220 OA 
ATOM     22  OXT GLY A   2     -11.668  14.761  67.002  1.00  0.00    -0.368 OA 
ENDBRANCH  17  19
ENDBRANCH  14  15
BRANCH  14  23
HETATM   23  C   UNK A   1      -8.763  10.308  69.415  1.00  0.00    -0.156 C  
HETATM   24  S   UNK A   1      -7.236   9.836  70.291  1.00  0.00    -0.150 SA 
HETATM   25  H   UNK A   1      -6.049  10.261  69.708  1.00  0.00     0.000 H  
ENDBRANCH  14  23
ENDBRANCH  12  14
ENDBRANCH   9  10
ENDBRANCH   8   9
ENDBRANCH   2   8
TORSDOF 7
ENDMDL
MODEL      228
REMARK 921   NORMALIZED FREE ENERGY PREDICTED BY IDOCK:   -3.60 KCAL/MOL
REMARK 922        TOTAL FREE ENERGY PREDICTED BY IDOCK:   -5.64 KCAL/MOL
REMARK 923 INTER-LIGAND FREE ENERGY PREDICTED BY IDOCK:   -5.12 KCAL/MOL
REMARK 924 INTRA-LIGAND FREE ENERGY PREDICTED BY IDOCK:   -0.52 KCAL/MOL
REMARK 927      BINDING AFFINITY PREDICTED BY RF-SCORE:    0.00 PKD
ROOT
HETATM    1  N   UNK A   1     -13.260  12.385  64.743  1.00  0.00    -0.655 NA 
HETATM    2  C   UNK A   1     -12.718  13.658  65.304  1.00  0.00    -0.430 C  
HETATM    3  H2  UNK A   1     -13.503  11.732  65.488  1.00  0.00     0.000 HD 
HETATM    4  H1  UNK A   1     -14.051  12.533  64.116  1.00  0.00     0.000 HD 
HETATM    5  O   UNK A   1     -12.703  14.072  62.948  1.00  0.00    -0.447 OA 
HETATM    6  C   UNK A   1     -12.344  14.600  64.146  1.00  0.00    -0.265 C  
HETATM    7  O   UNK A   1     -11.772  15.672  64.269  1.00  0.00    -0.375 OA 
ENDROOT
BRANCH   2   8
HETATM    8  C   UNK A   1     -11.530  13.436  66.245  1.00  0.00    -0.354 C  
BRANCH   8   9
HETATM    9  C   UNK A   1     -11.658  12.206  67.150  1.00  0.00    -0.405 C  
BRANCH   9  10
HETATM   10  C   UNK A   1     -10.627  11.170  66.765  1.00  0.00    -0.263 C  
HETATM   11  O   UNK A   1     -10.294  10.978  65.599  1.00  0.00    -0.246 OA 
HETATM   12  N   UNK A   1     -10.075  10.488  67.817  1.00  0.00    -0.170 N  
HETATM   13  H   UNK A   1     -10.393  10.696  68.764  1.00  0.00     0.000 HD 
BRANCH  12  14
HETATM   14  C   UNK A   1      -9.045   9.473  67.621  1.00  0.00    -0.120 C  
BRANCH  14  15
HETATM   15  C   UNK A   1      -9.718   8.090  67.717  1.00  0.00    -0.156 C  
ATOM     16  H   GLY A   2     -10.554   8.623  69.558  1.00  0.00     0.000 HD 
ATOM     17  N   GLY A   2     -10.427   7.865  68.886  1.00  0.00    -0.211 N  
HETATM   18  O   UNK A   1      -9.704   7.285  66.790  1.00  0.00    -0.180 OA 
BRANCH  17  19
ATOM     19  CA  GLY A   2     -10.997   6.539  69.162  1.00  0.00    -0.323 C  
ATOM     20  C   GLY A   2     -10.786   6.071  70.600  1.00  0.00    -0.276 C  
ATOM     21  O   GLY A   2     -10.105   6.958  71.365  1.00  0.00    -0.187 OA 
ATOM     22  OXT GLY A   2     -11.151   4.985  71.023  1.00  0.00     0.111 OA 
ENDBRANCH  17  19
ENDBRANCH  14  15
BRANCH  14  23
HETATM   23  C   UNK A   1      -7.940   9.511  68.688  1.00  0.00    -0.092 C  
HETATM   24  S   UNK A   1      -7.056   7.943  68.971  1.00  0.00    -0.071 SA 
HETATM   25  H   UNK A   1      -6.056   7.978  69.935  1.00  0.00     0.000 H  
ENDBRANCH  14  23
ENDBRANCH  12  14
ENDBRANCH   9  10
ENDBRANCH   8   9
ENDBRANCH   2   8
TORSDOF 7
ENDMDL
MODEL      229
REMARK 921   NORMALIZED FREE ENERGY PREDICTED BY IDOCK:   -3.60 KCAL/MOL
REMARK 922        TOTAL FREE ENERGY PREDICTED BY IDOCK:   -5.63 KCAL/MOL
REMARK 923 INTER-LIGAND FREE ENERGY PREDICTED BY IDOCK:   -4.75 KCAL/MOL
REMARK 924 INTRA-LIGAND FREE ENERGY PREDICTED BY IDOCK:   -0.89 KCAL/MOL
REMARK 927      BINDING AFFINITY PREDICTED BY RF-SCORE:    0.00 PKD
ROOT
HETATM    1  N   UNK A   1     -10.986  10.363  70.672  1.00  0.00    -0.414 NA 
HETATM    2  C   UNK A   1     -11.941   9.278  71.045  1.00  0.00    -0.300 C  
HETATM    3  H2  UNK A   1     -10.191   9.987  70.155  1.00  0.00     0.000 HD 
HETATM    4  H1  UNK A   1     -11.430  11.122  70.156  1.00  0.00     0.000 HD 
HETATM    5  O   UNK A   1     -13.014  11.239  71.897  1.00  0.00    -0.456 OA 
HETATM    6  C   UNK A   1     -13.109   9.885  71.842  1.00  0.00    -0.459 C  
HETATM    7  O   UNK A   1     -13.996   9.247  72.385  1.00  0.00    -0.460 OA 
ENDROOT
BRANCH   2   8
HETATM    8  C   UNK A   1     -11.274   8.137  71.820  1.00  0.00    -0.329 C  
BRANCH   8   9
HETATM    9  C   UNK A   1      -9.811   8.395  72.196  1.00  0.00    -0.372 C  
BRANCH   9  10
HETATM   10  C   UNK A   1      -8.899   7.556  71.331  1.00  0.00    -0.132 C  
HETATM   11  O   UNK A   1      -7.714   7.382  71.604  1.00  0.00    -0.084 OA 
HETATM   12  N   UNK A   1      -9.502   6.984  70.242  1.00  0.00    -0.165 N  
HETATM   13  H   UNK A   1     -10.492   7.166  70.071  1.00  0.00     0.000 HD 
BRANCH  12  14
HETATM   14  C   UNK A   1      -8.770   6.123  69.320  1.00  0.00    -0.122 C  
BRANCH  14  15
HETATM   15  C   UNK A   1      -9.045   6.619  67.887  1.00  0.00    -0.114 C  
ATOM     16  H   GLY A   2      -8.823   8.596  68.528  1.00  0.00     0.000 HD 
ATOM     17  N   GLY A   2      -9.073   7.996  67.741  1.00  0.00    -0.131 N  
HETATM   18  O   UNK A   1      -9.140   5.852  66.932  1.00  0.00    -0.117 OA 
BRANCH  17  19
ATOM     19  CA  GLY A   2      -9.463   8.596  66.458  1.00  0.00    -0.216 C  
ATOM     20  C   GLY A   2     -10.090   9.982  66.597  1.00  0.00    -0.227 C  
ATOM     21  O   GLY A   2     -10.181  10.409  67.879  1.00  0.00    -0.165 OA 
ATOM     22  OXT GLY A   2     -10.514  10.635  65.655  1.00  0.00    -0.236 OA 
ENDBRANCH  17  19
ENDBRANCH  14  15
BRANCH  14  23
HETATM   23  C   UNK A   1      -9.208   4.651  69.380  1.00  0.00    -0.119 C  
HETATM   24  S   UNK A   1      -9.114   3.862  71.020  1.00  0.00    -0.129 SA 
HETATM   25  H   UNK A   1      -9.511   2.531  71.074  1.00  0.00     0.000 H  
ENDBRANCH  14  23
ENDBRANCH  12  14
ENDBRANCH   9  10
ENDBRANCH   8   9
ENDBRANCH   2   8
TORSDOF 7
ENDMDL
MODEL      230
REMARK 921   NORMALIZED FREE ENERGY PREDICTED BY IDOCK:   -3.58 KCAL/MOL
REMARK 922        TOTAL FREE ENERGY PREDICTED BY IDOCK:   -5.61 KCAL/MOL
REMARK 923 INTER-LIGAND FREE ENERGY PREDICTED BY IDOCK:   -4.72 KCAL/MOL
REMARK 924 INTRA-LIGAND FREE ENERGY PREDICTED BY IDOCK:   -0.88 KCAL/MOL
REMARK 927      BINDING AFFINITY PREDICTED BY RF-SCORE:    0.00 PKD
ROOT
HETATM    1  N   UNK A   1      -8.222  10.969  65.386  1.00  0.00    -0.359 NA 
HETATM    2  C   UNK A   1      -8.240   9.476  65.406  1.00  0.00    -0.127 C  
HETATM    3  H2  UNK A   1      -8.319  11.347  66.327  1.00  0.00     0.000 HD 
HETATM    4  H1  UNK A   1      -7.397  11.350  64.923  1.00  0.00     0.000 HD 
HETATM    5  O   UNK A   1      -7.918   9.968  63.087  1.00  0.00    -0.137 OA 
HETATM    6  C   UNK A   1      -8.116   8.951  63.964  1.00  0.00    -0.161 C  
HETATM    7  O   UNK A   1      -8.211   7.780  63.633  1.00  0.00    -0.093 OA 
ENDROOT
BRANCH   2   8
HETATM    8  C   UNK A   1      -9.479   8.904  66.101  1.00  0.00    -0.318 C  
BRANCH   8   9
HETATM    9  C   UNK A   1      -9.178   7.847  67.167  1.00  0.00    -0.175 C  
BRANCH   9  10
HETATM   10  C   UNK A   1     -10.199   7.926  68.278  1.00  0.00    -0.203 C  
HETATM   11  O   UNK A   1     -10.998   7.021  68.501  1.00  0.00    -0.166 OA 
HETATM   12  N   UNK A   1     -10.143   9.069  69.032  1.00  0.00    -0.190 N  
HETATM   13  H   UNK A   1      -9.454   9.784  68.797  1.00  0.00     0.000 HD 
BRANCH  12  14
HETATM   14  C   UNK A   1     -11.041   9.292  70.160  1.00  0.00    -0.230 C  
BRANCH  14  15
HETATM   15  C   UNK A   1     -11.566  10.738  70.070  1.00  0.00    -0.334 C  
ATOM     16  H   GLY A   2     -11.083  10.788  68.037  1.00  0.00     0.000 HD 
ATOM     17  N   GLY A   2     -11.422  11.335  68.829  1.00  0.00    -0.264 N  
HETATM   18  O   UNK A   1     -12.151  11.285  71.001  1.00  0.00    -0.319 OA 
BRANCH  17  19
ATOM     19  CA  GLY A   2     -11.754  12.755  68.649  1.00  0.00    -0.324 C  
ATOM     20  C   GLY A   2     -10.923  13.444  67.567  1.00  0.00    -0.267 C  
ATOM     21  O   GLY A   2     -10.023  12.625  66.971  1.00  0.00    -0.214 OA 
ATOM     22  OXT GLY A   2     -11.019  14.629  67.287  1.00  0.00    -0.300 OA 
ENDBRANCH  17  19
ENDBRANCH  14  15
BRANCH  14  23
HETATM   23  C   UNK A   1     -10.352   9.147  71.526  1.00  0.00    -0.344 C  
HETATM   24  S   UNK A   1      -8.624   8.568  71.485  1.00  0.00    -0.194 SA 
HETATM   25  H   UNK A   1      -8.001   8.437  72.720  1.00  0.00     0.000 H  
ENDBRANCH  14  23
ENDBRANCH  12  14
ENDBRANCH   9  10
ENDBRANCH   8   9
ENDBRANCH   2   8
TORSDOF 7
ENDMDL
MODEL      231
REMARK 921   NORMALIZED FREE ENERGY PREDICTED BY IDOCK:   -3.57 KCAL/MOL
REMARK 922        TOTAL FREE ENERGY PREDICTED BY IDOCK:   -5.60 KCAL/MOL
REMARK 923 INTER-LIGAND FREE ENERGY PREDICTED BY IDOCK:   -4.86 KCAL/MOL
REMARK 924 INTRA-LIGAND FREE ENERGY PREDICTED BY IDOCK:   -0.74 KCAL/MOL
REMARK 927      BINDING AFFINITY PREDICTED BY RF-SCORE:    0.00 PKD
ROOT
HETATM    1  N   UNK A   1     -12.887   8.732  72.927  1.00  0.00    -0.612 NA 
HETATM    2  C   UNK A   1     -11.748   7.974  72.328  1.00  0.00    -0.371 C  
HETATM    3  H2  UNK A   1     -12.558   9.379  73.643  1.00  0.00     0.000 HD 
HETATM    4  H1  UNK A   1     -13.452   9.216  72.230  1.00  0.00     0.000 HD 
HETATM    5  O   UNK A   1     -13.629   7.158  71.097  1.00  0.00    -0.306 OA 
HETATM    6  C   UNK A   1     -12.293   6.995  71.273  1.00  0.00    -0.383 C  
HETATM    7  O   UNK A   1     -11.630   6.156  70.685  1.00  0.00    -0.321 OA 
ENDROOT
BRANCH   2   8
HETATM    8  C   UNK A   1     -10.899   7.247  73.376  1.00  0.00    -0.370 C  
BRANCH   8   9
HETATM    9  C   UNK A   1      -9.497   6.858  72.898  1.00  0.00    -0.161 C  
BRANCH   9  10
HETATM   10  C   UNK A   1      -8.904   7.973  72.068  1.00  0.00    -0.156 C  
HETATM   11  O   UNK A   1      -8.515   9.025  72.566  1.00  0.00    -0.326 OA 
HETATM   12  N   UNK A   1      -8.809   7.705  70.728  1.00  0.00    -0.143 N  
HETATM   13  H   UNK A   1      -9.149   6.810  70.376  1.00  0.00     0.000 HD 
BRANCH  12  14
HETATM   14  C   UNK A   1      -8.236   8.664  69.790  1.00  0.00    -0.121 C  
BRANCH  14  15
HETATM   15  C   UNK A   1      -8.747   8.313  68.380  1.00  0.00    -0.133 C  
ATOM     16  H   GLY A   2     -10.453   7.441  69.214  1.00  0.00     0.000 HD 
ATOM     17  N   GLY A   2      -9.937   7.605  68.350  1.00  0.00    -0.171 N  
HETATM   18  O   UNK A   1      -8.190   8.711  67.360  1.00  0.00    -0.105 OA 
BRANCH  17  19
ATOM     19  CA  GLY A   2     -10.458   7.089  67.076  1.00  0.00    -0.316 C  
ATOM     20  C   GLY A   2     -10.427   5.565  66.977  1.00  0.00    -0.274 C  
ATOM     21  O   GLY A   2      -9.919   4.960  68.077  1.00  0.00    -0.154 OA 
ATOM     22  OXT GLY A   2     -10.782   4.940  65.989  1.00  0.00    -0.316 OA 
ENDBRANCH  17  19
ENDBRANCH  14  15
BRANCH  14  23
HETATM   23  C   UNK A   1      -6.700   8.623  69.737  1.00  0.00    -0.042 C  
HETATM   24  S   UNK A   1      -5.846  10.136  70.284  1.00  0.00    -0.080 SA 
HETATM   25  H   UNK A   1      -4.458  10.098  70.236  1.00  0.00     0.000 H  
ENDBRANCH  14  23
ENDBRANCH  12  14
ENDBRANCH   9  10
ENDBRANCH   8   9
ENDBRANCH   2   8
TORSDOF 7
ENDMDL
MODEL      232
REMARK 921   NORMALIZED FREE ENERGY PREDICTED BY IDOCK:   -3.56 KCAL/MOL
REMARK 922        TOTAL FREE ENERGY PREDICTED BY IDOCK:   -5.57 KCAL/MOL
REMARK 923 INTER-LIGAND FREE ENERGY PREDICTED BY IDOCK:   -5.03 KCAL/MOL
REMARK 924 INTRA-LIGAND FREE ENERGY PREDICTED BY IDOCK:   -0.55 KCAL/MOL
REMARK 927      BINDING AFFINITY PREDICTED BY RF-SCORE:    0.00 PKD
ROOT
HETATM    1  N   UNK A   1      -9.088   6.706  69.923  1.00  0.00    -0.144 NA 
HETATM    2  C   UNK A   1      -9.420   7.870  70.796  1.00  0.00    -0.158 C  
HETATM    3  H2  UNK A   1      -9.627   6.734  69.058  1.00  0.00     0.000 HD 
HETATM    4  H1  UNK A   1      -8.090   6.627  69.728  1.00  0.00     0.000 HD 
HETATM    5  O   UNK A   1      -7.734   6.731  72.055  1.00  0.00    -0.094 OA 
HETATM    6  C   UNK A   1      -8.603   7.773  72.097  1.00  0.00    -0.129 C  
HETATM    7  O   UNK A   1      -8.728   8.511  73.062  1.00  0.00    -0.343 OA 
ENDROOT
BRANCH   2   8
HETATM    8  C   UNK A   1     -10.919   7.988  71.089  1.00  0.00    -0.271 C  
BRANCH   8   9
HETATM    9  C   UNK A   1     -11.338   9.314  71.730  1.00  0.00    -0.437 C  
BRANCH   9  10
HETATM   10  C   UNK A   1     -11.971  10.214  70.694  1.00  0.00    -0.332 C  
HETATM   11  O   UNK A   1     -13.158  10.134  70.392  1.00  0.00    -0.225 OA 
HETATM   12  N   UNK A   1     -11.125  11.140  70.143  1.00  0.00    -0.479 N  
HETATM   13  H   UNK A   1     -10.148  11.158  70.437  1.00  0.00     0.000 HD 
BRANCH  12  14
HETATM   14  C   UNK A   1     -11.583  12.103  69.146  1.00  0.00    -0.319 C  
BRANCH  14  15
HETATM   15  C   UNK A   1     -10.719  11.925  67.883  1.00  0.00    -0.204 C  
ATOM     16  H   GLY A   2     -11.545  10.027  67.585  1.00  0.00     0.000 HD 
ATOM     17  N   GLY A   2     -10.845  10.695  67.258  1.00  0.00    -0.286 N  
HETATM   18  O   UNK A   1     -10.042  12.836  67.413  1.00  0.00    -0.216 OA 
BRANCH  17  19
ATOM     19  CA  GLY A   2      -9.974  10.347  66.127  1.00  0.00    -0.231 C  
ATOM     20  C   GLY A   2      -9.638   8.859  66.051  1.00  0.00    -0.250 C  
ATOM     21  O   GLY A   2     -10.196   8.125  67.043  1.00  0.00    -0.250 OA 
ATOM     22  OXT GLY A   2      -8.901   8.370  65.208  1.00  0.00    -0.160 OA 
ENDBRANCH  17  19
ENDBRANCH  14  15
BRANCH  14  23
HETATM   23  C   UNK A   1     -11.429  13.565  69.594  1.00  0.00    -0.217 C  
HETATM   24  S   UNK A   1     -12.184  13.986  71.199  1.00  0.00    -0.283 SA 
HETATM   25  H   UNK A   1     -12.045  15.308  71.604  1.00  0.00     0.000 H  
ENDBRANCH  14  23
ENDBRANCH  12  14
ENDBRANCH   9  10
ENDBRANCH   8   9
ENDBRANCH   2   8
TORSDOF 7
ENDMDL
MODEL      233
REMARK 921   NORMALIZED FREE ENERGY PREDICTED BY IDOCK:   -3.55 KCAL/MOL
REMARK 922        TOTAL FREE ENERGY PREDICTED BY IDOCK:   -5.57 KCAL/MOL
REMARK 923 INTER-LIGAND FREE ENERGY PREDICTED BY IDOCK:   -5.01 KCAL/MOL
REMARK 924 INTRA-LIGAND FREE ENERGY PREDICTED BY IDOCK:   -0.56 KCAL/MOL
REMARK 927      BINDING AFFINITY PREDICTED BY RF-SCORE:    0.00 PKD
ROOT
HETATM    1  N   UNK A   1     -11.438  14.141  66.382  1.00  0.00    -0.341 NA 
HETATM    2  C   UNK A   1     -10.451  13.418  67.236  1.00  0.00    -0.248 C  
HETATM    3  H2  UNK A   1     -12.379  13.774  66.521  1.00  0.00     0.000 HD 
HETATM    4  H1  UNK A   1     -11.417  15.151  66.519  1.00  0.00     0.000 HD 
HETATM    5  O   UNK A   1      -9.095  15.051  66.133  1.00  0.00    -0.280 OA 
HETATM    6  C   UNK A   1      -9.045  13.988  66.975  1.00  0.00    -0.246 C  
HETATM    7  O   UNK A   1      -8.008  13.537  67.434  1.00  0.00    -0.162 OA 
ENDROOT
BRANCH   2   8
HETATM    8  C   UNK A   1     -10.482  11.900  67.029  1.00  0.00    -0.253 C  
BRANCH   8   9
HETATM    9  C   UNK A   1     -11.615  11.182  67.769  1.00  0.00    -0.303 C  
BRANCH   9  10
HETATM   10  C   UNK A   1     -11.067  10.454  68.974  1.00  0.00    -0.248 C  
HETATM   11  O   UNK A   1      -9.987  10.744  69.481  1.00  0.00    -0.174 OA 
HETATM   12  N   UNK A   1     -11.880   9.470  69.472  1.00  0.00    -0.276 N  
HETATM   13  H   UNK A   1     -12.767   9.277  69.006  1.00  0.00     0.000 HD 
BRANCH  12  14
HETATM   14  C   UNK A   1     -11.513   8.689  70.649  1.00  0.00    -0.228 C  
BRANCH  14  15
HETATM   15  C   UNK A   1     -10.597   7.539  70.188  1.00  0.00    -0.235 C  
ATOM     16  H   GLY A   2     -12.149   6.770  69.018  1.00  0.00     0.000 HD 
ATOM     17  N   GLY A   2     -11.200   6.609  69.357  1.00  0.00    -0.310 N  
HETATM   18  O   UNK A   1      -9.400   7.500  70.463  1.00  0.00    -0.160 OA 
BRANCH  17  19
ATOM     19  CA  GLY A   2     -10.477   5.392  68.962  1.00  0.00    -0.182 C  
ATOM     20  C   GLY A   2     -10.230   5.291  67.458  1.00  0.00    -0.178 C  
ATOM     21  O   GLY A   2     -10.725   6.337  66.755  1.00  0.00    -0.290 OA 
ATOM     22  OXT GLY A   2      -9.678   4.342  66.921  1.00  0.00    -0.197 OA 
ENDBRANCH  17  19
ENDBRANCH  14  15
BRANCH  14  23
HETATM   23  C   UNK A   1     -12.717   8.051  71.358  1.00  0.00    -0.280 C  
HETATM   24  S   UNK A   1     -13.908   9.214  72.099  1.00  0.00    -0.417 SA 
HETATM   25  H   UNK A   1     -14.998   8.636  72.740  1.00  0.00     0.000 H  
ENDBRANCH  14  23
ENDBRANCH  12  14
ENDBRANCH   9  10
ENDBRANCH   8   9
ENDBRANCH   2   8
TORSDOF 7
ENDMDL
MODEL      234
REMARK 921   NORMALIZED FREE ENERGY PREDICTED BY IDOCK:   -3.54 KCAL/MOL
REMARK 922        TOTAL FREE ENERGY PREDICTED BY IDOCK:   -5.55 KCAL/MOL
REMARK 923 INTER-LIGAND FREE ENERGY PREDICTED BY IDOCK:   -4.97 KCAL/MOL
REMARK 924 INTRA-LIGAND FREE ENERGY PREDICTED BY IDOCK:   -0.58 KCAL/MOL
REMARK 927      BINDING AFFINITY PREDICTED BY RF-SCORE:    0.00 PKD
ROOT
HETATM    1  N   UNK A   1      -8.016  18.207  65.819  1.00  0.00    -0.515 NA 
HETATM    2  C   UNK A   1      -9.123  18.843  66.592  1.00  0.00    -0.330 C  
HETATM    3  H2  UNK A   1      -8.296  18.034  64.854  1.00  0.00     0.000 HD 
HETATM    4  H1  UNK A   1      -7.147  18.741  65.856  1.00  0.00     0.000 HD 
HETATM    5  O   UNK A   1      -7.359  18.722  68.203  1.00  0.00    -0.246 OA 
HETATM    6  C   UNK A   1      -8.664  19.061  68.044  1.00  0.00    -0.306 C  
HETATM    7  O   UNK A   1      -9.375  19.459  68.954  1.00  0.00    -0.381 OA 
ENDROOT
BRANCH   2   8
HETATM    8  C   UNK A   1     -10.427  18.041  66.536  1.00  0.00    -0.341 C  
BRANCH   8   9
HETATM    9  C   UNK A   1     -10.247  16.560  66.188  1.00  0.00    -0.360 C  
BRANCH   9  10
HETATM   10  C   UNK A   1     -10.343  15.718  67.439  1.00  0.00    -0.282 C  
HETATM   11  O   UNK A   1     -10.563  16.207  68.543  1.00  0.00    -0.256 OA 
HETATM   12  N   UNK A   1     -10.194  14.371  67.239  1.00  0.00    -0.251 N  
HETATM   13  H   UNK A   1     -10.015  14.026  66.296  1.00  0.00     0.000 HD 
BRANCH  12  14
HETATM   14  C   UNK A   1     -10.286  13.415  68.338  1.00  0.00    -0.251 C  
BRANCH  14  15
HETATM   15  C   UNK A   1      -9.464  12.170  67.953  1.00  0.00    -0.195 C  
ATOM     16  H   GLY A   2      -7.835  12.909  69.033  1.00  0.00     0.000 HD 
ATOM     17  N   GLY A   2      -8.156  12.170  68.407  1.00  0.00    -0.156 N  
HETATM   18  O   UNK A   1      -9.959  11.210  67.368  1.00  0.00    -0.176 OA 
BRANCH  17  19
ATOM     19  CA  GLY A   2      -7.229  11.108  67.992  1.00  0.00    -0.079 C  
ATOM     20  C   GLY A   2      -6.117  10.839  69.004  1.00  0.00    -0.041 C  
ATOM     21  O   GLY A   2      -6.179  11.629  70.102  1.00  0.00    -0.156 OA 
ATOM     22  OXT GLY A   2      -5.224  10.022  68.833  1.00  0.00    -0.036 OA 
ENDBRANCH  17  19
ENDBRANCH  14  15
BRANCH  14  23
HETATM   23  C   UNK A   1     -11.721  12.940  68.616  1.00  0.00    -0.324 C  
HETATM   24  S   UNK A   1     -11.930  11.856  70.066  1.00  0.00    -0.290 SA 
HETATM   25  H   UNK A   1     -13.228  11.427  70.318  1.00  0.00     0.000 H  
ENDBRANCH  14  23
ENDBRANCH  12  14
ENDBRANCH   9  10
ENDBRANCH   8   9
ENDBRANCH   2   8
TORSDOF 7
ENDMDL
MODEL      235
REMARK 921   NORMALIZED FREE ENERGY PREDICTED BY IDOCK:   -3.54 KCAL/MOL
REMARK 922        TOTAL FREE ENERGY PREDICTED BY IDOCK:   -5.55 KCAL/MOL
REMARK 923 INTER-LIGAND FREE ENERGY PREDICTED BY IDOCK:   -5.03 KCAL/MOL
REMARK 924 INTRA-LIGAND FREE ENERGY PREDICTED BY IDOCK:   -0.52 KCAL/MOL
REMARK 927      BINDING AFFINITY PREDICTED BY RF-SCORE:    0.00 PKD
ROOT
HETATM    1  N   UNK A   1     -12.510  13.853  63.530  1.00  0.00    -1.067 NA 
HETATM    2  C   UNK A   1     -11.954  13.614  64.894  1.00  0.00    -0.383 C  
HETATM    3  H2  UNK A   1     -12.978  13.019  63.175  1.00  0.00     0.000 HD 
HETATM    4  H1  UNK A   1     -13.129  14.663  63.490  1.00  0.00     0.000 HD 
HETATM    5  O   UNK A   1     -11.396  15.905  64.492  1.00  0.00    -0.444 OA 
HETATM    6  C   UNK A   1     -11.238  14.887  65.377  1.00  0.00    -0.359 C  
HETATM    7  O   UNK A   1     -10.584  14.979  66.404  1.00  0.00    -0.295 OA 
ENDROOT
BRANCH   2   8
HETATM    8  C   UNK A   1     -11.025  12.397  64.954  1.00  0.00    -0.341 C  
BRANCH   8   9
HETATM    9  C   UNK A   1     -11.079  11.621  66.274  1.00  0.00    -0.345 C  
BRANCH   9  10
HETATM   10  C   UNK A   1     -10.210  10.387  66.185  1.00  0.00    -0.223 C  
HETATM   11  O   UNK A   1     -10.058   9.766  65.137  1.00  0.00    -0.262 OA 
HETATM   12  N   UNK A   1      -9.587  10.037  67.354  1.00  0.00    -0.152 N  
HETATM   13  H   UNK A   1      -9.753  10.595  68.192  1.00  0.00     0.000 HD 
BRANCH  12  14
HETATM   14  C   UNK A   1      -8.692   8.887  67.435  1.00  0.00    -0.125 C  
BRANCH  14  15
HETATM   15  C   UNK A   1      -9.207   7.963  68.554  1.00  0.00    -0.138 C  
ATOM     16  H   GLY A   2      -7.313   7.093  68.710  1.00  0.00     0.000 HD 
ATOM     17  N   GLY A   2      -8.281   7.050  69.031  1.00  0.00    -0.124 N  
HETATM   18  O   UNK A   1     -10.325   8.087  69.048  1.00  0.00    -0.214 OA 
BRANCH  17  19
ATOM     19  CA  GLY A   2      -8.686   6.021  69.999  1.00  0.00    -0.135 C  
ATOM     20  C   GLY A   2      -8.626   4.601  69.440  1.00  0.00    -0.082 C  
ATOM     21  O   GLY A   2      -8.217   4.543  68.150  1.00  0.00    -0.090 OA 
ATOM     22  OXT GLY A   2      -8.956   3.607  70.069  1.00  0.00    -0.081 OA 
ENDBRANCH  17  19
ENDBRANCH  14  15
BRANCH  14  23
HETATM   23  C   UNK A   1      -7.245   9.264  67.790  1.00  0.00    -0.083 C  
HETATM   24  S   UNK A   1      -6.441  10.461  66.677  1.00  0.00    -0.087 SA 
HETATM   25  H   UNK A   1      -5.133  10.801  66.998  1.00  0.00     0.000 H  
ENDBRANCH  14  23
ENDBRANCH  12  14
ENDBRANCH   9  10
ENDBRANCH   8   9
ENDBRANCH   2   8
TORSDOF 7
ENDMDL
MODEL      236
REMARK 921   NORMALIZED FREE ENERGY PREDICTED BY IDOCK:   -3.53 KCAL/MOL
REMARK 922        TOTAL FREE ENERGY PREDICTED BY IDOCK:   -5.55 KCAL/MOL
REMARK 923 INTER-LIGAND FREE ENERGY PREDICTED BY IDOCK:   -4.63 KCAL/MOL
REMARK 924 INTRA-LIGAND FREE ENERGY PREDICTED BY IDOCK:   -0.91 KCAL/MOL
REMARK 927      BINDING AFFINITY PREDICTED BY RF-SCORE:    0.00 PKD
ROOT
HETATM    1  N   UNK A   1      -6.975   7.129  65.833  1.00  0.00    -0.063 NA 
HETATM    2  C   UNK A   1      -8.210   7.839  65.386  1.00  0.00    -0.139 C  
HETATM    3  H2  UNK A   1      -7.160   6.559  66.657  1.00  0.00     0.000 HD 
HETATM    4  H1  UNK A   1      -6.548   6.572  65.092  1.00  0.00     0.000 HD 
HETATM    5  O   UNK A   1      -6.598   8.509  63.751  1.00  0.00    -0.076 OA 
HETATM    6  C   UNK A   1      -7.879   8.705  64.158  1.00  0.00    -0.141 C  
HETATM    7  O   UNK A   1      -8.645   9.491  63.625  1.00  0.00    -0.186 OA 
ENDROOT
BRANCH   2   8
HETATM    8  C   UNK A   1      -8.852   8.676  66.498  1.00  0.00    -0.163 C  
BRANCH   8   9
HETATM    9  C   UNK A   1      -7.936   9.749  67.094  1.00  0.00    -0.102 C  
BRANCH   9  10
HETATM   10  C   UNK A   1      -8.464  11.125  66.758  1.00  0.00    -0.153 C  
HETATM   11  O   UNK A   1      -7.886  12.152  67.104  1.00  0.00    -0.163 OA 
HETATM   12  N   UNK A   1      -9.616  11.135  66.017  1.00  0.00    -0.209 N  
HETATM   13  H   UNK A   1     -10.047  10.247  65.758  1.00  0.00     0.000 HD 
BRANCH  12  14
HETATM   14  C   UNK A   1     -10.243  12.380  65.585  1.00  0.00    -0.262 C  
BRANCH  14  15
HETATM   15  C   UNK A   1     -11.210  12.833  66.695  1.00  0.00    -0.301 C  
ATOM     16  H   GLY A   2     -10.312  14.721  66.708  1.00  0.00     0.000 HD 
ATOM     17  N   GLY A   2     -10.999  14.119  67.164  1.00  0.00    -0.294 N  
HETATM   18  O   UNK A   1     -12.153  12.141  67.070  1.00  0.00    -0.591 OA 
BRANCH  17  19
ATOM     19  CA  GLY A   2     -11.762  14.621  68.316  1.00  0.00    -0.328 C  
ATOM     20  C   GLY A   2     -10.883  15.180  69.433  1.00  0.00    -0.262 C  
ATOM     21  O   GLY A   2      -9.556  15.108  69.167  1.00  0.00    -0.217 OA 
ATOM     22  OXT GLY A   2     -11.317  15.612  70.490  1.00  0.00    -0.301 OA 
ENDBRANCH  17  19
ENDBRANCH  14  15
BRANCH  14  23
HETATM   23  C   UNK A   1     -11.070  12.232  64.298  1.00  0.00    -0.348 C  
HETATM   24  S   UNK A   1     -12.079  13.677  63.835  1.00  0.00    -0.333 SA 
HETATM   25  H   UNK A   1     -12.827  13.544  62.671  1.00  0.00     0.000 H  
ENDBRANCH  14  23
ENDBRANCH  12  14
ENDBRANCH   9  10
ENDBRANCH   8   9
ENDBRANCH   2   8
TORSDOF 7
ENDMDL
MODEL      237
REMARK 921   NORMALIZED FREE ENERGY PREDICTED BY IDOCK:   -3.52 KCAL/MOL
REMARK 922        TOTAL FREE ENERGY PREDICTED BY IDOCK:   -5.53 KCAL/MOL
REMARK 923 INTER-LIGAND FREE ENERGY PREDICTED BY IDOCK:   -4.89 KCAL/MOL
REMARK 924 INTRA-LIGAND FREE ENERGY PREDICTED BY IDOCK:   -0.64 KCAL/MOL
REMARK 927      BINDING AFFINITY PREDICTED BY RF-SCORE:    0.00 PKD
ROOT
HETATM    1  N   UNK A   1      -8.686   2.566  66.260  1.00  0.00    -0.121 NA 
HETATM    2  C   UNK A   1      -9.534   3.451  67.112  1.00  0.00    -0.162 C  
HETATM    3  H2  UNK A   1      -8.234   1.844  66.820  1.00  0.00     0.000 HD 
HETATM    4  H1  UNK A   1      -9.200   2.154  65.481  1.00  0.00     0.000 HD 
HETATM    5  O   UNK A   1      -9.889   4.336  64.919  1.00  0.00    -0.179 OA 
HETATM    6  C   UNK A   1     -10.175   4.537  66.231  1.00  0.00    -0.239 C  
HETATM    7  O   UNK A   1     -10.833   5.479  66.643  1.00  0.00    -0.288 OA 
ENDROOT
BRANCH   2   8
HETATM    8  C   UNK A   1      -8.761   4.069  68.282  1.00  0.00    -0.123 C  
BRANCH   8   9
HETATM    9  C   UNK A   1      -9.643   4.593  69.420  1.00  0.00    -0.257 C  
BRANCH   9  10
HETATM   10  C   UNK A   1      -9.098   5.905  69.936  1.00  0.00    -0.146 C  
HETATM   11  O   UNK A   1      -8.305   5.963  70.872  1.00  0.00    -0.122 OA 
HETATM   12  N   UNK A   1      -9.533   7.015  69.261  1.00  0.00    -0.148 N  
HETATM   13  H   UNK A   1     -10.191   6.900  68.490  1.00  0.00     0.000 HD 
BRANCH  12  14
HETATM   14  C   UNK A   1      -9.082   8.357  69.615  1.00  0.00    -0.153 C  
BRANCH  14  15
HETATM   15  C   UNK A   1      -9.952   8.857  70.784  1.00  0.00    -0.226 C  
ATOM     16  H   GLY A   2     -11.673   8.535  69.643  1.00  0.00     0.000 HD 
ATOM     17  N   GLY A   2     -11.310   8.908  70.521  1.00  0.00    -0.256 N  
HETATM   18  O   UNK A   1      -9.485   9.103  71.893  1.00  0.00    -0.332 OA 
BRANCH  17  19
ATOM     19  CA  GLY A   2     -12.232   9.497  71.502  1.00  0.00    -0.386 C  
ATOM     20  C   GLY A   2     -13.399   8.583  71.869  1.00  0.00    -0.372 C  
ATOM     21  O   GLY A   2     -13.382   7.394  71.220  1.00  0.00    -0.350 OA 
ATOM     22  OXT GLY A   2     -14.295   8.898  72.638  1.00  0.00    -0.613 OA 
ENDBRANCH  17  19
ENDBRANCH  14  15
BRANCH  14  23
HETATM   23  C   UNK A   1      -9.235   9.373  68.472  1.00  0.00    -0.131 C  
HETATM   24  S   UNK A   1      -9.935   8.722  66.921  1.00  0.00    -0.283 SA 
HETATM   25  H   UNK A   1     -10.073   9.641  65.888  1.00  0.00     0.000 H  
ENDBRANCH  14  23
ENDBRANCH  12  14
ENDBRANCH   9  10
ENDBRANCH   8   9
ENDBRANCH   2   8
TORSDOF 7
ENDMDL
MODEL      238
REMARK 921   NORMALIZED FREE ENERGY PREDICTED BY IDOCK:   -3.49 KCAL/MOL
REMARK 922        TOTAL FREE ENERGY PREDICTED BY IDOCK:   -5.49 KCAL/MOL
REMARK 923 INTER-LIGAND FREE ENERGY PREDICTED BY IDOCK:   -4.66 KCAL/MOL
REMARK 924 INTRA-LIGAND FREE ENERGY PREDICTED BY IDOCK:   -0.83 KCAL/MOL
REMARK 927      BINDING AFFINITY PREDICTED BY RF-SCORE:    0.00 PKD
ROOT
HETATM    1  N   UNK A   1      -8.547  17.338  65.945  1.00  0.00    -0.538 NA 
HETATM    2  C   UNK A   1      -8.004  18.038  67.148  1.00  0.00    -0.212 C  
HETATM    3  H2  UNK A   1      -9.112  16.533  66.216  1.00  0.00     0.000 HD 
HETATM    4  H1  UNK A   1      -9.070  17.959  65.328  1.00  0.00     0.000 HD 
HETATM    5  O   UNK A   1      -7.193  19.384  65.344  1.00  0.00    -0.425 OA 
HETATM    6  C   UNK A   1      -7.141  19.228  66.692  1.00  0.00    -0.208 C  
HETATM    7  O   UNK A   1      -6.468  19.930  67.429  1.00  0.00    -0.196 OA 
ENDROOT
BRANCH   2   8
HETATM    8  C   UNK A   1      -7.219  17.105  68.076  1.00  0.00    -0.187 C  
BRANCH   8   9
HETATM    9  C   UNK A   1      -6.916  15.726  67.482  1.00  0.00    -0.216 C  
BRANCH   9  10
HETATM   10  C   UNK A   1      -7.851  14.693  68.067  1.00  0.00    -0.133 C  
HETATM   11  O   UNK A   1      -7.565  14.041  69.068  1.00  0.00    -0.107 OA 
HETATM   12  N   UNK A   1      -9.047  14.563  67.413  1.00  0.00    -0.188 N  
HETATM   13  H   UNK A   1      -9.226  15.135  66.587  1.00  0.00     0.000 HD 
BRANCH  12  14
HETATM   14  C   UNK A   1     -10.074  13.629  67.864  1.00  0.00    -0.244 C  
BRANCH  14  15
HETATM   15  C   UNK A   1     -10.183  12.503  66.819  1.00  0.00    -0.231 C  
ATOM     16  H   GLY A   2      -8.413  11.657  67.542  1.00  0.00     0.000 HD 
ATOM     17  N   GLY A   2      -9.131  11.601  66.819  1.00  0.00    -0.180 N  
HETATM   18  O   UNK A   1     -11.171  12.362  66.103  1.00  0.00    -0.291 OA 
BRANCH  17  19
ATOM     19  CA  GLY A   2      -9.046  10.564  65.782  1.00  0.00    -0.179 C  
ATOM     20  C   GLY A   2      -9.401   9.167  66.285  1.00  0.00    -0.216 C  
ATOM     21  O   GLY A   2      -9.725   9.130  67.600  1.00  0.00    -0.149 OA 
ATOM     22  OXT GLY A   2      -9.357   8.161  65.592  1.00  0.00    -0.065 OA 
ENDBRANCH  17  19
ENDBRANCH  14  15
BRANCH  14  23
HETATM   23  C   UNK A   1     -11.467  14.266  67.988  1.00  0.00    -0.314 C  
HETATM   24  S   UNK A   1     -11.520  15.909  68.775  1.00  0.00    -0.381 SA 
HETATM   25  H   UNK A   1     -12.780  16.485  68.886  1.00  0.00     0.000 H  
ENDBRANCH  14  23
ENDBRANCH  12  14
ENDBRANCH   9  10
ENDBRANCH   8   9
ENDBRANCH   2   8
TORSDOF 7
ENDMDL
MODEL      239
REMARK 921   NORMALIZED FREE ENERGY PREDICTED BY IDOCK:   -3.46 KCAL/MOL
REMARK 922        TOTAL FREE ENERGY PREDICTED BY IDOCK:   -5.44 KCAL/MOL
REMARK 923 INTER-LIGAND FREE ENERGY PREDICTED BY IDOCK:   -4.84 KCAL/MOL
REMARK 924 INTRA-LIGAND FREE ENERGY PREDICTED BY IDOCK:   -0.60 KCAL/MOL
REMARK 927      BINDING AFFINITY PREDICTED BY RF-SCORE:    0.00 PKD
ROOT
HETATM    1  N   UNK A   1      -9.182   6.966  65.323  1.00  0.00    -0.170 NA 
HETATM    2  C   UNK A   1      -9.511   6.599  66.732  1.00  0.00    -0.160 C  
HETATM    3  H2  UNK A   1      -9.042   7.972  65.231  1.00  0.00     0.000 HD 
HETATM    4  H1  UNK A   1      -8.383   6.451  64.955  1.00  0.00     0.000 HD 
HETATM    5  O   UNK A   1      -9.476   4.476  65.629  1.00  0.00    -0.151 OA 
HETATM    6  C   UNK A   1      -9.738   5.079  66.817  1.00  0.00    -0.174 C  
HETATM    7  O   UNK A   1     -10.131   4.482  67.807  1.00  0.00    -0.102 OA 
ENDROOT
BRANCH   2   8
HETATM    8  C   UNK A   1     -10.713   7.372  67.285  1.00  0.00    -0.379 C  
BRANCH   8   9
HETATM    9  C   UNK A   1     -10.631   8.890  67.101  1.00  0.00    -0.301 C  
BRANCH   9  10
HETATM   10  C   UNK A   1     -10.389   9.561  68.433  1.00  0.00    -0.206 C  
HETATM   11  O   UNK A   1      -9.442  10.319  68.624  1.00  0.00    -0.155 OA 
HETATM   12  N   UNK A   1     -11.322   9.282  69.396  1.00  0.00    -0.436 N  
HETATM   13  H   UNK A   1     -12.088   8.645  69.175  1.00  0.00     0.000 HD 
BRANCH  12  14
HETATM   14  C   UNK A   1     -11.252   9.869  70.730  1.00  0.00    -0.353 C  
BRANCH  14  15
HETATM   15  C   UNK A   1     -10.937   8.740  71.730  1.00  0.00    -0.345 C  
ATOM     16  H   GLY A   2      -8.894   9.139  71.539  1.00  0.00     0.000 HD 
ATOM     17  N   GLY A   2      -9.588   8.513  71.950  1.00  0.00    -0.256 N  
HETATM   18  O   UNK A   1     -11.815   8.149  72.353  1.00  0.00    -0.352 OA 
BRANCH  17  19
ATOM     19  CA  GLY A   2      -9.153   7.376  72.771  1.00  0.00    -0.143 C  
ATOM     20  C   GLY A   2      -7.913   7.669  73.613  1.00  0.00    -0.146 C  
ATOM     21  O   GLY A   2      -7.430   8.924  73.447  1.00  0.00    -0.368 OA 
ATOM     22  OXT GLY A   2      -7.370   6.847  74.336  1.00  0.00    -0.100 OA 
ENDBRANCH  17  19
ENDBRANCH  14  15
BRANCH  14  23
HETATM   23  C   UNK A   1     -12.570  10.517  71.182  1.00  0.00    -0.417 C  
HETATM   24  S   UNK A   1     -12.668  12.327  70.996  1.00  0.00    -0.124 SA 
HETATM   25  H   UNK A   1     -13.859  12.913  71.405  1.00  0.00     0.000 H  
ENDBRANCH  14  23
ENDBRANCH  12  14
ENDBRANCH   9  10
ENDBRANCH   8   9
ENDBRANCH   2   8
TORSDOF 7
ENDMDL
MODEL      240
REMARK 921   NORMALIZED FREE ENERGY PREDICTED BY IDOCK:   -3.45 KCAL/MOL
REMARK 922        TOTAL FREE ENERGY PREDICTED BY IDOCK:   -5.43 KCAL/MOL
REMARK 923 INTER-LIGAND FREE ENERGY PREDICTED BY IDOCK:   -4.53 KCAL/MOL
REMARK 924 INTRA-LIGAND FREE ENERGY PREDICTED BY IDOCK:   -0.90 KCAL/MOL
REMARK 927      BINDING AFFINITY PREDICTED BY RF-SCORE:    0.00 PKD
ROOT
HETATM    1  N   UNK A   1      -9.203   6.804  70.503  1.00  0.00    -0.156 NA 
HETATM    2  C   UNK A   1     -10.064   6.952  71.713  1.00  0.00    -0.185 C  
HETATM    3  H2  UNK A   1      -9.040   7.707  70.058  1.00  0.00     0.000 HD 
HETATM    4  H1  UNK A   1      -8.322   6.330  70.699  1.00  0.00     0.000 HD 
HETATM    5  O   UNK A   1      -9.589   4.608  71.689  1.00  0.00    -0.145 OA 
HETATM    6  C   UNK A   1     -10.304   5.565  72.335  1.00  0.00    -0.206 C  
HETATM    7  O   UNK A   1     -11.057   5.333  73.267  1.00  0.00    -0.289 OA 
ENDROOT
BRANCH   2   8
HETATM    8  C   UNK A   1     -11.388   7.665  71.418  1.00  0.00    -0.285 C  
BRANCH   8   9
HETATM    9  C   UNK A   1     -11.338   9.188  71.572  1.00  0.00    -0.439 C  
BRANCH   9  10
HETATM   10  C   UNK A   1     -11.645   9.852  70.249  1.00  0.00    -0.250 C  
HETATM   11  O   UNK A   1     -12.600  10.609  70.102  1.00  0.00    -0.318 OA 
HETATM   12  N   UNK A   1     -10.760   9.567  69.243  1.00  0.00    -0.228 N  
HETATM   13  H   UNK A   1      -9.985   8.931  69.429  1.00  0.00     0.000 HD 
BRANCH  12  14
HETATM   14  C   UNK A   1     -10.897  10.148  67.911  1.00  0.00    -0.284 C  
BRANCH  14  15
HETATM   15  C   UNK A   1     -10.166   9.227  66.915  1.00  0.00    -0.256 C  
ATOM     16  H   GLY A   2     -10.182   7.685  68.326  1.00  0.00     0.000 HD 
ATOM     17  N   GLY A   2      -9.847   7.971  67.406  1.00  0.00    -0.171 N  
HETATM   18  O   UNK A   1      -9.965   9.549  65.746  1.00  0.00    -0.300 OA 
BRANCH  17  19
ATOM     19  CA  GLY A   2      -9.029   7.050  66.605  1.00  0.00    -0.142 C  
ATOM     20  C   GLY A   2      -9.659   5.670  66.429  1.00  0.00    -0.157 C  
ATOM     21  O   GLY A   2     -10.857   5.538  67.048  1.00  0.00    -0.249 OA 
ATOM     22  OXT GLY A   2      -9.125   4.749  65.829  1.00  0.00    -0.131 OA 
ENDBRANCH  17  19
ENDBRANCH  14  15
BRANCH  14  23
HETATM   23  C   UNK A   1     -10.262  11.542  67.785  1.00  0.00    -0.182 C  
HETATM   24  S   UNK A   1      -8.511  11.663  68.274  1.00  0.00    -0.162 SA 
HETATM   25  H   UNK A   1      -7.937  12.923  68.160  1.00  0.00     0.000 H  
ENDBRANCH  14  23
ENDBRANCH  12  14
ENDBRANCH   9  10
ENDBRANCH   8   9
ENDBRANCH   2   8
TORSDOF 7
ENDMDL
MODEL      241
REMARK 921   NORMALIZED FREE ENERGY PREDICTED BY IDOCK:   -3.45 KCAL/MOL
REMARK 922        TOTAL FREE ENERGY PREDICTED BY IDOCK:   -5.43 KCAL/MOL
REMARK 923 INTER-LIGAND FREE ENERGY PREDICTED BY IDOCK:   -4.71 KCAL/MOL
REMARK 924 INTRA-LIGAND FREE ENERGY PREDICTED BY IDOCK:   -0.71 KCAL/MOL
REMARK 927      BINDING AFFINITY PREDICTED BY RF-SCORE:    0.00 PKD
ROOT
HETATM    1  N   UNK A   1      -8.798   6.683  65.457  1.00  0.00    -0.350 NA 
HETATM    2  C   UNK A   1      -9.246   5.969  66.689  1.00  0.00    -0.142 C  
HETATM    3  H2  UNK A   1      -8.680   7.679  65.635  1.00  0.00     0.000 HD 
HETATM    4  H1  UNK A   1      -7.952   6.282  65.051  1.00  0.00     0.000 HD 
HETATM    5  O   UNK A   1      -9.044   4.194  65.097  1.00  0.00    -0.127 OA 
HETATM    6  C   UNK A   1      -9.434   4.476  66.367  1.00  0.00    -0.172 C  
HETATM    7  O   UNK A   1      -9.900   3.645  67.131  1.00  0.00    -0.140 OA 
ENDROOT
BRANCH   2   8
HETATM    8  C   UNK A   1     -10.516   6.570  67.298  1.00  0.00    -0.337 C  
BRANCH   8   9
HETATM    9  C   UNK A   1     -10.720   8.059  67.001  1.00  0.00    -0.263 C  
BRANCH   9  10
HETATM   10  C   UNK A   1     -10.387   8.882  68.223  1.00  0.00    -0.206 C  
HETATM   11  O   UNK A   1      -9.474   9.703  68.232  1.00  0.00    -0.136 OA 
HETATM   12  N   UNK A   1     -11.198   8.661  69.305  1.00  0.00    -0.417 N  
HETATM   13  H   UNK A   1     -11.941   7.966  69.234  1.00  0.00     0.000 HD 
BRANCH  12  14
HETATM   14  C   UNK A   1     -11.029   9.392  70.556  1.00  0.00    -0.274 C  
BRANCH  14  15
HETATM   15  C   UNK A   1     -10.176   8.525  71.501  1.00  0.00    -0.250 C  
ATOM     16  H   GLY A   2     -11.157   6.811  70.817  1.00  0.00     0.000 HD 
ATOM     17  N   GLY A   2     -10.482   7.174  71.491  1.00  0.00    -0.204 N  
HETATM   18  O   UNK A   1      -9.235   8.983  72.146  1.00  0.00    -0.365 OA 
BRANCH  17  19
ATOM     19  CA  GLY A   2      -9.839   6.262  72.446  1.00  0.00    -0.164 C  
ATOM     20  C   GLY A   2      -9.637   4.850  71.900  1.00  0.00    -0.154 C  
ATOM     21  O   GLY A   2     -10.093   4.687  70.636  1.00  0.00    -0.223 OA 
ATOM     22  OXT GLY A   2      -9.153   3.933  72.547  1.00  0.00    -0.106 OA 
ENDBRANCH  17  19
ENDBRANCH  14  15
BRANCH  14  23
HETATM   23  C   UNK A   1     -12.354   9.679  71.280  1.00  0.00    -0.360 C  
HETATM   24  S   UNK A   1     -12.867  11.427  71.332  1.00  0.00    -0.325 SA 
HETATM   25  H   UNK A   1     -14.065  11.686  71.987  1.00  0.00     0.000 H  
ENDBRANCH  14  23
ENDBRANCH  12  14
ENDBRANCH   9  10
ENDBRANCH   8   9
ENDBRANCH   2   8
TORSDOF 7
ENDMDL
MODEL      242
REMARK 921   NORMALIZED FREE ENERGY PREDICTED BY IDOCK:   -3.44 KCAL/MOL
REMARK 922        TOTAL FREE ENERGY PREDICTED BY IDOCK:   -5.42 KCAL/MOL
REMARK 923 INTER-LIGAND FREE ENERGY PREDICTED BY IDOCK:   -5.38 KCAL/MOL
REMARK 924 INTRA-LIGAND FREE ENERGY PREDICTED BY IDOCK:   -0.03 KCAL/MOL
REMARK 927      BINDING AFFINITY PREDICTED BY RF-SCORE:    0.00 PKD
ROOT
HETATM    1  N   UNK A   1     -11.336   4.369  65.143  1.00  0.00    -1.082 NA 
HETATM    2  C   UNK A   1      -9.876   4.443  64.841  1.00  0.00    -0.133 C  
HETATM    3  H2  UNK A   1     -11.630   5.157  65.718  1.00  0.00     0.000 HD 
HETATM    4  H1  UNK A   1     -11.911   4.294  64.304  1.00  0.00     0.000 HD 
HETATM    5  O   UNK A   1     -10.556   2.476  63.662  1.00  0.00    -0.182 OA 
HETATM    6  C   UNK A   1      -9.472   3.223  63.994  1.00  0.00    -0.134 C  
HETATM    7  O   UNK A   1      -8.329   2.934  63.677  1.00  0.00    -0.085 OA 
ENDROOT
BRANCH   2   8
HETATM    8  C   UNK A   1      -9.011   4.555  66.101  1.00  0.00    -0.120 C  
BRANCH   8   9
HETATM    9  C   UNK A   1      -9.739   4.207  67.403  1.00  0.00    -0.202 C  
BRANCH   9  10
HETATM   10  C   UNK A   1     -10.150   5.472  68.121  1.00  0.00    -0.172 C  
HETATM   11  O   UNK A   1     -11.131   6.128  67.784  1.00  0.00    -0.326 OA 
HETATM   12  N   UNK A   1      -9.362   5.809  69.189  1.00  0.00    -0.122 N  
HETATM   13  H   UNK A   1      -8.560   5.221  69.420  1.00  0.00     0.000 HD 
BRANCH  12  14
HETATM   14  C   UNK A   1      -9.636   6.986  70.007  1.00  0.00    -0.164 C  
BRANCH  14  15
HETATM   15  C   UNK A   1     -10.880   6.688  70.866  1.00  0.00    -0.252 C  
ATOM     16  H   GLY A   2     -11.886   8.285  69.968  1.00  0.00     0.000 HD 
ATOM     17  N   GLY A   2     -11.934   7.569  70.694  1.00  0.00    -0.193 N  
HETATM   18  O   UNK A   1     -10.963   5.691  71.579  1.00  0.00    -0.252 OA 
BRANCH  17  19
ATOM     19  CA  GLY A   2     -13.122   7.478  71.554  1.00  0.00    -0.356 C  
ATOM     20  C   GLY A   2     -13.447   8.779  72.286  1.00  0.00    -0.420 C  
ATOM     21  O   GLY A   2     -12.578   9.783  72.019  1.00  0.00    -0.380 OA 
ATOM     22  OXT GLY A   2     -14.371   8.903  73.075  1.00  0.00    -0.464 OA 
ENDBRANCH  17  19
ENDBRANCH  14  15
BRANCH  14  23
HETATM   23  C   UNK A   1      -9.950   8.244  69.181  1.00  0.00    -0.196 C  
HETATM   24  S   UNK A   1      -8.616   9.482  69.085  1.00  0.00    -0.149 SA 
HETATM   25  H   UNK A   1      -8.899  10.619  68.339  1.00  0.00     0.000 H  
ENDBRANCH  14  23
ENDBRANCH  12  14
ENDBRANCH   9  10
ENDBRANCH   8   9
ENDBRANCH   2   8
TORSDOF 7
ENDMDL
MODEL      243
REMARK 921   NORMALIZED FREE ENERGY PREDICTED BY IDOCK:   -3.44 KCAL/MOL
REMARK 922        TOTAL FREE ENERGY PREDICTED BY IDOCK:   -5.41 KCAL/MOL
REMARK 923 INTER-LIGAND FREE ENERGY PREDICTED BY IDOCK:   -6.03 KCAL/MOL
REMARK 924 INTRA-LIGAND FREE ENERGY PREDICTED BY IDOCK:    0.62 KCAL/MOL
REMARK 927      BINDING AFFINITY PREDICTED BY RF-SCORE:    0.00 PKD
ROOT
HETATM    1  N   UNK A   1     -11.352  16.541  63.760  1.00  0.00    -1.313 NA 
HETATM    2  C   UNK A   1     -11.444  15.832  65.070  1.00  0.00    -0.122 C  
HETATM    3  H2  UNK A   1     -11.800  16.001  63.020  1.00  0.00     0.000 HD 
HETATM    4  H1  UNK A   1     -11.724  17.490  63.796  1.00  0.00     0.000 HD 
HETATM    5  O   UNK A   1     -10.317  17.861  65.649  1.00  0.00    -0.605 OA 
HETATM    6  C   UNK A   1     -10.735  16.669  66.149  1.00  0.00    -0.132 C  
HETATM    7  O   UNK A   1     -10.539  16.312  67.300  1.00  0.00    -0.309 OA 
ENDROOT
BRANCH   2   8
HETATM    8  C   UNK A   1     -10.885  14.406  65.017  1.00  0.00    -0.420 C  
BRANCH   8   9
HETATM    9  C   UNK A   1     -11.921  13.307  65.271  1.00  0.00    -0.422 C  
BRANCH   9  10
HETATM   10  C   UNK A   1     -11.227  11.995  65.554  1.00  0.00    -0.321 C  
HETATM   11  O   UNK A   1     -10.857  11.242  64.657  1.00  0.00    -0.317 OA 
HETATM   12  N   UNK A   1     -11.017  11.729  66.881  1.00  0.00    -0.270 N  
HETATM   13  H   UNK A   1     -11.346  12.396  67.579  1.00  0.00     0.000 HD 
BRANCH  12  14
HETATM   14  C   UNK A   1     -10.335  10.517  67.325  1.00  0.00    -0.228 C  
BRANCH  14  15
HETATM   15  C   UNK A   1      -8.908  10.906  67.755  1.00  0.00    -0.135 C  
ATOM     16  H   GLY A   2      -9.012  12.617  66.558  1.00  0.00     0.000 HD 
ATOM     17  N   GLY A   2      -8.408  12.050  67.154  1.00  0.00    -0.175 N  
HETATM   18  O   UNK A   1      -8.296  10.300  68.631  1.00  0.00    -0.109 OA 
BRANCH  17  19
ATOM     19  CA  GLY A   2      -7.010  12.449  67.372  1.00  0.00    -0.149 C  
ATOM     20  C   GLY A   2      -6.798  13.961  67.350  1.00  0.00    -0.007 C  
ATOM     21  O   GLY A   2      -7.933  14.666  67.128  1.00  0.00    -0.198 OA 
ATOM     22  OXT GLY A   2      -5.707  14.497  67.476  1.00  0.00    -0.343 OA 
ENDBRANCH  17  19
ENDBRANCH  14  15
BRANCH  14  23
HETATM   23  C   UNK A   1     -10.201   9.454  66.223  1.00  0.00    -0.214 C  
HETATM   24  S   UNK A   1      -9.838   7.762  66.794  1.00  0.00    -0.240 SA 
HETATM   25  H   UNK A   1      -9.717   6.801  65.798  1.00  0.00     0.000 H  
ENDBRANCH  14  23
ENDBRANCH  12  14
ENDBRANCH   9  10
ENDBRANCH   8   9
ENDBRANCH   2   8
TORSDOF 7
ENDMDL
MODEL      244
REMARK 921   NORMALIZED FREE ENERGY PREDICTED BY IDOCK:   -3.42 KCAL/MOL
REMARK 922        TOTAL FREE ENERGY PREDICTED BY IDOCK:   -5.38 KCAL/MOL
REMARK 923 INTER-LIGAND FREE ENERGY PREDICTED BY IDOCK:   -5.00 KCAL/MOL
REMARK 924 INTRA-LIGAND FREE ENERGY PREDICTED BY IDOCK:   -0.39 KCAL/MOL
REMARK 927      BINDING AFFINITY PREDICTED BY RF-SCORE:    0.00 PKD
ROOT
HETATM    1  N   UNK A   1      -9.782  19.333  68.928  1.00  0.00    -0.429 NA 
HETATM    2  C   UNK A   1      -8.937  18.155  68.572  1.00  0.00    -0.296 C  
HETATM    3  H2  UNK A   1     -10.772  19.092  68.907  1.00  0.00     0.000 HD 
HETATM    4  H1  UNK A   1      -9.526  19.749  69.823  1.00  0.00     0.000 HD 
HETATM    5  O   UNK A   1      -7.311  19.850  69.026  1.00  0.00    -0.301 OA 
HETATM    6  C   UNK A   1      -7.456  18.572  68.591  1.00  0.00    -0.301 C  
HETATM    7  O   UNK A   1      -6.523  17.868  68.237  1.00  0.00    -0.185 OA 
ENDROOT
BRANCH   2   8
HETATM    8  C   UNK A   1      -9.321  17.531  67.226  1.00  0.00    -0.244 C  
BRANCH   8   9
HETATM    9  C   UNK A   1     -10.669  16.802  67.225  1.00  0.00    -0.213 C  
BRANCH   9  10
HETATM   10  C   UNK A   1     -10.476  15.355  67.615  1.00  0.00    -0.272 C  
HETATM   11  O   UNK A   1     -10.170  15.018  68.755  1.00  0.00    -0.221 OA 
HETATM   12  N   UNK A   1     -10.696  14.453  66.608  1.00  0.00    -0.289 N  
HETATM   13  H   UNK A   1     -10.950  14.796  65.681  1.00  0.00     0.000 HD 
BRANCH  12  14
HETATM   14  C   UNK A   1     -10.579  13.015  66.823  1.00  0.00    -0.262 C  
BRANCH  14  15
HETATM   15  C   UNK A   1     -10.408  12.341  65.448  1.00  0.00    -0.269 C  
ATOM     16  H   GLY A   2      -9.141  10.915  66.302  1.00  0.00     0.000 HD 
ATOM     17  N   GLY A   2      -9.536  11.265  65.429  1.00  0.00    -0.223 N  
HETATM   18  O   UNK A   1     -11.064  12.676  64.465  1.00  0.00    -0.298 OA 
BRANCH  17  19
ATOM     19  CA  GLY A   2      -9.179  10.625  64.156  1.00  0.00    -0.236 C  
ATOM     20  C   GLY A   2      -8.053   9.600  64.282  1.00  0.00    -0.146 C  
ATOM     21  O   GLY A   2      -7.580   9.468  65.545  1.00  0.00    -0.100 OA 
ATOM     22  OXT GLY A   2      -7.584   8.984  63.337  1.00  0.00    -0.101 OA 
ENDBRANCH  17  19
ENDBRANCH  14  15
BRANCH  14  23
HETATM   23  C   UNK A   1     -11.822  12.392  67.479  1.00  0.00    -0.284 C  
HETATM   24  S   UNK A   1     -11.501  11.264  68.873  1.00  0.00    -0.328 SA 
HETATM   25  H   UNK A   1     -12.625  10.701  69.466  1.00  0.00     0.000 H  
ENDBRANCH  14  23
ENDBRANCH  12  14
ENDBRANCH   9  10
ENDBRANCH   8   9
ENDBRANCH   2   8
TORSDOF 7
ENDMDL
MODEL      245
REMARK 921   NORMALIZED FREE ENERGY PREDICTED BY IDOCK:   -3.41 KCAL/MOL
REMARK 922        TOTAL FREE ENERGY PREDICTED BY IDOCK:   -5.37 KCAL/MOL
REMARK 923 INTER-LIGAND FREE ENERGY PREDICTED BY IDOCK:   -5.11 KCAL/MOL
REMARK 924 INTRA-LIGAND FREE ENERGY PREDICTED BY IDOCK:   -0.27 KCAL/MOL
REMARK 927      BINDING AFFINITY PREDICTED BY RF-SCORE:    0.00 PKD
ROOT
HETATM    1  N   UNK A   1     -10.637  13.713  69.369  1.00  0.00    -0.439 NA 
HETATM    2  C   UNK A   1     -10.978  12.428  68.689  1.00  0.00    -0.247 C  
HETATM    3  H2  UNK A   1     -10.018  14.279  68.790  1.00  0.00     0.000 HD 
HETATM    4  H1  UNK A   1     -11.461  14.244  69.650  1.00  0.00     0.000 HD 
HETATM    5  O   UNK A   1     -12.224  12.291  70.727  1.00  0.00    -0.378 OA 
HETATM    6  C   UNK A   1     -11.891  11.597  69.608  1.00  0.00    -0.352 C  
HETATM    7  O   UNK A   1     -12.254  10.452  69.390  1.00  0.00    -0.120 OA 
ENDROOT
BRANCH   2   8
HETATM    8  C   UNK A   1      -9.740  11.630  68.267  1.00  0.00    -0.197 C  
BRANCH   8   9
HETATM    9  C   UNK A   1      -9.977  10.653  67.111  1.00  0.00    -0.234 C  
BRANCH   9  10
HETATM   10  C   UNK A   1     -10.159  11.414  65.819  1.00  0.00    -0.246 C  
HETATM   11  O   UNK A   1     -10.023  10.883  64.720  1.00  0.00    -0.257 OA 
HETATM   12  N   UNK A   1     -10.515  12.729  65.969  1.00  0.00    -0.269 N  
HETATM   13  H   UNK A   1     -10.614  13.111  66.910  1.00  0.00     0.000 HD 
BRANCH  12  14
HETATM   14  C   UNK A   1     -10.756  13.598  64.822  1.00  0.00    -0.410 C  
BRANCH  14  15
HETATM   15  C   UNK A   1     -10.128  14.971  65.127  1.00  0.00    -0.315 C  
ATOM     16  H   GLY A   2      -9.013  14.119  66.676  1.00  0.00     0.000 HD 
ATOM     17  N   GLY A   2      -9.264  14.991  66.210  1.00  0.00    -0.299 N  
HETATM   18  O   UNK A   1     -10.308  15.951  64.408  1.00  0.00    -0.066 OA 
BRANCH  17  19
ATOM     19  CA  GLY A   2      -8.710  16.265  66.689  1.00  0.00    -0.259 C  
ATOM     20  C   GLY A   2      -9.569  16.941  67.755  1.00  0.00    -0.249 C  
ATOM     21  O   GLY A   2     -10.693  16.252  68.064  1.00  0.00    -0.308 OA 
ATOM     22  OXT GLY A   2      -9.304  18.024  68.258  1.00  0.00    -0.277 OA 
ENDBRANCH  17  19
ENDBRANCH  14  15
BRANCH  14  23
HETATM   23  C   UNK A   1     -12.247  13.836  64.539  1.00  0.00    -0.403 C  
HETATM   24  S   UNK A   1     -13.159  12.419  63.846  1.00  0.00     0.217 SA 
HETATM   25  H   UNK A   1     -14.508  12.635  63.591  1.00  0.00     0.000 H  
ENDBRANCH  14  23
ENDBRANCH  12  14
ENDBRANCH   9  10
ENDBRANCH   8   9
ENDBRANCH   2   8
TORSDOF 7
ENDMDL
MODEL      246
REMARK 921   NORMALIZED FREE ENERGY PREDICTED BY IDOCK:   -3.41 KCAL/MOL
REMARK 922        TOTAL FREE ENERGY PREDICTED BY IDOCK:   -5.37 KCAL/MOL
REMARK 923 INTER-LIGAND FREE ENERGY PREDICTED BY IDOCK:   -5.34 KCAL/MOL
REMARK 924 INTRA-LIGAND FREE ENERGY PREDICTED BY IDOCK:   -0.04 KCAL/MOL
REMARK 927      BINDING AFFINITY PREDICTED BY RF-SCORE:    0.00 PKD
ROOT
HETATM    1  N   UNK A   1     -10.868   8.639  67.842  1.00  0.00    -0.487 NA 
HETATM    2  C   UNK A   1     -10.050   8.829  69.076  1.00  0.00    -0.198 C  
HETATM    3  H2  UNK A   1     -10.644   9.347  67.143  1.00  0.00     0.000 HD 
HETATM    4  H1  UNK A   1     -10.784   7.701  67.451  1.00  0.00     0.000 HD 
HETATM    5  O   UNK A   1     -11.329   6.874  69.589  1.00  0.00    -0.259 OA 
HETATM    6  C   UNK A   1     -10.438   7.757  70.110  1.00  0.00    -0.231 C  
HETATM    7  O   UNK A   1     -10.032   7.709  71.260  1.00  0.00    -0.179 OA 
ENDROOT
BRANCH   2   8
HETATM    8  C   UNK A   1     -10.176  10.238  69.664  1.00  0.00    -0.268 C  
BRANCH   8   9
HETATM    9  C   UNK A   1     -11.596  10.814  69.634  1.00  0.00    -0.388 C  
BRANCH   9  10
HETATM   10  C   UNK A   1     -11.624  12.078  68.806  1.00  0.00    -0.311 C  
HETATM   11  O   UNK A   1     -12.295  13.056  69.126  1.00  0.00    -0.140 OA 
HETATM   12  N   UNK A   1     -10.825  12.057  67.694  1.00  0.00    -0.222 N  
HETATM   13  H   UNK A   1     -10.290  11.214  67.484  1.00  0.00     0.000 HD 
BRANCH  12  14
HETATM   14  C   UNK A   1     -10.717  13.207  66.802  1.00  0.00    -0.267 C  
BRANCH  14  15
HETATM   15  C   UNK A   1     -10.289  14.423  67.645  1.00  0.00    -0.237 C  
ATOM     16  H   GLY A   2      -8.480  13.477  68.094  1.00  0.00     0.000 HD 
ATOM     17  N   GLY A   2      -9.065  14.292  68.281  1.00  0.00    -0.184 N  
HETATM   18  O   UNK A   1     -10.939  15.465  67.675  1.00  0.00    -0.301 OA 
BRANCH  17  19
ATOM     19  CA  GLY A   2      -8.608  15.321  69.225  1.00  0.00    -0.236 C  
ATOM     20  C   GLY A   2      -7.585  16.285  68.628  1.00  0.00    -0.188 C  
ATOM     21  O   GLY A   2      -7.276  16.017  67.337  1.00  0.00    -0.150 OA 
ATOM     22  OXT GLY A   2      -7.055  17.189  69.255  1.00  0.00    -0.235 OA 
ENDBRANCH  17  19
ENDBRANCH  14  15
BRANCH  14  23
HETATM   23  C   UNK A   1     -12.042  13.576  66.118  1.00  0.00    -0.436 C  
HETATM   24  S   UNK A   1     -12.468  12.603  64.637  1.00  0.00    -0.421 SA 
HETATM   25  H   UNK A   1     -13.667  12.937  64.018  1.00  0.00     0.000 H  
ENDBRANCH  14  23
ENDBRANCH  12  14
ENDBRANCH   9  10
ENDBRANCH   8   9
ENDBRANCH   2   8
TORSDOF 7
ENDMDL
MODEL      247
REMARK 921   NORMALIZED FREE ENERGY PREDICTED BY IDOCK:   -3.41 KCAL/MOL
REMARK 922        TOTAL FREE ENERGY PREDICTED BY IDOCK:   -5.37 KCAL/MOL
REMARK 923 INTER-LIGAND FREE ENERGY PREDICTED BY IDOCK:   -5.43 KCAL/MOL
REMARK 924 INTRA-LIGAND FREE ENERGY PREDICTED BY IDOCK:    0.06 KCAL/MOL
REMARK 927      BINDING AFFINITY PREDICTED BY RF-SCORE:    0.00 PKD
ROOT
HETATM    1  N   UNK A   1     -13.216  10.020  72.551  1.00  0.00    -0.513 NA 
HETATM    2  C   UNK A   1     -13.293  11.157  71.587  1.00  0.00    -0.217 C  
HETATM    3  H2  UNK A   1     -13.740  10.226  73.401  1.00  0.00     0.000 HD 
HETATM    4  H1  UNK A   1     -13.515   9.133  72.144  1.00  0.00     0.000 HD 
HETATM    5  O   UNK A   1     -11.991   9.542  70.394  1.00  0.00    -0.195 OA 
HETATM    6  C   UNK A   1     -12.469  10.812  70.333  1.00  0.00    -0.347 C  
HETATM    7  O   UNK A   1     -12.241  11.577  69.410  1.00  0.00    -0.289 OA 
ENDROOT
BRANCH   2   8
HETATM    8  C   UNK A   1     -12.844  12.488  72.198  1.00  0.00    -0.189 C  
BRANCH   8   9
HETATM    9  C   UNK A   1     -13.515  13.724  71.592  1.00  0.00    -0.409 C  
BRANCH   9  10
HETATM   10  C   UNK A   1     -12.478  14.613  70.946  1.00  0.00    -0.336 C  
HETATM   11  O   UNK A   1     -11.816  15.422  71.589  1.00  0.00    -0.326 OA 
HETATM   12  N   UNK A   1     -12.316  14.424  69.599  1.00  0.00    -0.484 N  
HETATM   13  H   UNK A   1     -12.897  13.734  69.121  1.00  0.00     0.000 HD 
BRANCH  12  14
HETATM   14  C   UNK A   1     -11.337  15.182  68.827  1.00  0.00    -0.300 C  
BRANCH  14  15
HETATM   15  C   UNK A   1     -10.696  14.226  67.804  1.00  0.00    -0.251 C  
ATOM     16  H   GLY A   2      -9.354  13.562  69.263  1.00  0.00     0.000 HD 
ATOM     17  N   GLY A   2      -9.610  13.507  68.276  1.00  0.00    -0.218 N  
HETATM   18  O   UNK A   1     -11.168  14.046  66.684  1.00  0.00    -0.310 OA 
BRANCH  17  19
ATOM     19  CA  GLY A   2      -8.825  12.667  67.362  1.00  0.00    -0.189 C  
ATOM     20  C   GLY A   2      -8.618  11.241  67.870  1.00  0.00    -0.134 C  
ATOM     21  O   GLY A   2      -9.189  11.006  69.076  1.00  0.00    -0.151 OA 
ATOM     22  OXT GLY A   2      -7.964  10.395  67.278  1.00  0.00    -0.109 OA 
ENDBRANCH  17  19
ENDBRANCH  14  15
BRANCH  14  23
HETATM   23  C   UNK A   1     -10.198  15.757  69.683  1.00  0.00    -0.289 C  
HETATM   24  S   UNK A   1      -9.094  16.939  68.843  1.00  0.00    -0.175 SA 
HETATM   25  H   UNK A   1      -8.063  17.459  69.618  1.00  0.00     0.000 H  
ENDBRANCH  14  23
ENDBRANCH  12  14
ENDBRANCH   9  10
ENDBRANCH   8   9
ENDBRANCH   2   8
TORSDOF 7
ENDMDL
MODEL      248
REMARK 921   NORMALIZED FREE ENERGY PREDICTED BY IDOCK:   -3.38 KCAL/MOL
REMARK 922        TOTAL FREE ENERGY PREDICTED BY IDOCK:   -5.32 KCAL/MOL
REMARK 923 INTER-LIGAND FREE ENERGY PREDICTED BY IDOCK:   -4.87 KCAL/MOL
REMARK 924 INTRA-LIGAND FREE ENERGY PREDICTED BY IDOCK:   -0.46 KCAL/MOL
REMARK 927      BINDING AFFINITY PREDICTED BY RF-SCORE:    0.00 PKD
ROOT
HETATM    1  N   UNK A   1      -8.457  19.392  68.505  1.00  0.00    -0.358 NA 
HETATM    2  C   UNK A   1      -8.732  18.619  67.258  1.00  0.00    -0.270 C  
HETATM    3  H2  UNK A   1      -7.622  19.042  68.975  1.00  0.00     0.000 HD 
HETATM    4  H1  UNK A   1      -8.390  20.397  68.343  1.00  0.00     0.000 HD 
HETATM    5  O   UNK A   1     -10.478  20.255  67.259  1.00  0.00    -0.346 OA 
HETATM    6  C   UNK A   1     -10.011  19.164  66.598  1.00  0.00    -0.376 C  
HETATM    7  O   UNK A   1     -10.563  18.675  65.626  1.00  0.00    -0.610 OA 
ENDROOT
BRANCH   2   8
HETATM    8  C   UNK A   1      -8.832  17.110  67.502  1.00  0.00    -0.218 C  
BRANCH   8   9
HETATM    9  C   UNK A   1      -8.357  16.244  66.331  1.00  0.00    -0.365 C  
BRANCH   9  10
HETATM   10  C   UNK A   1      -9.250  15.033  66.186  1.00  0.00    -0.259 C  
HETATM   11  O   UNK A   1     -10.255  15.040  65.482  1.00  0.00    -0.324 OA 
HETATM   12  N   UNK A   1      -8.833  13.925  66.876  1.00  0.00    -0.344 N  
HETATM   13  H   UNK A   1      -7.987  13.983  67.443  1.00  0.00     0.000 HD 
BRANCH  12  14
HETATM   14  C   UNK A   1      -9.566  12.665  66.823  1.00  0.00    -0.241 C  
BRANCH  14  15
HETATM   15  C   UNK A   1      -9.130  11.811  68.030  1.00  0.00    -0.180 C  
ATOM     16  H   GLY A   2      -7.136  12.332  67.680  1.00  0.00     0.000 HD 
ATOM     17  N   GLY A   2      -7.763  11.754  68.242  1.00  0.00    -0.122 N  
HETATM   18  O   UNK A   1      -9.939  11.297  68.799  1.00  0.00    -0.205 OA 
BRANCH  17  19
ATOM     19  CA  GLY A   2      -7.211  10.864  69.272  1.00  0.00    -0.128 C  
ATOM     20  C   GLY A   2      -5.844  11.306  69.792  1.00  0.00    -0.091 C  
ATOM     21  O   GLY A   2      -5.381  12.436  69.206  1.00  0.00    -0.067 OA 
ATOM     22  OXT GLY A   2      -5.198  10.685  70.623  1.00  0.00    -0.065 OA 
ENDBRANCH  17  19
ENDBRANCH  14  15
BRANCH  14  23
HETATM   23  C   UNK A   1      -9.273  11.841  65.559  1.00  0.00    -0.057 C  
HETATM   24  S   UNK A   1     -10.129  10.237  65.442  1.00  0.00    -0.242 SA 
HETATM   25  H   UNK A   1      -9.865   9.492  64.299  1.00  0.00     0.000 H  
ENDBRANCH  14  23
ENDBRANCH  12  14
ENDBRANCH   9  10
ENDBRANCH   8   9
ENDBRANCH   2   8
TORSDOF 7
ENDMDL
MODEL      249
REMARK 921   NORMALIZED FREE ENERGY PREDICTED BY IDOCK:   -3.37 KCAL/MOL
REMARK 922        TOTAL FREE ENERGY PREDICTED BY IDOCK:   -5.32 KCAL/MOL
REMARK 923 INTER-LIGAND FREE ENERGY PREDICTED BY IDOCK:   -4.40 KCAL/MOL
REMARK 924 INTRA-LIGAND FREE ENERGY PREDICTED BY IDOCK:   -0.92 KCAL/MOL
REMARK 927      BINDING AFFINITY PREDICTED BY RF-SCORE:    0.00 PKD
ROOT
HETATM    1  N   UNK A   1     -10.141  12.885  68.858  1.00  0.00    -0.431 NA 
HETATM    2  C   UNK A   1      -9.899  11.534  68.270  1.00  0.00    -0.203 C  
HETATM    3  H2  UNK A   1      -9.397  13.138  69.508  1.00  0.00     0.000 HD 
HETATM    4  H1  UNK A   1     -10.268  13.608  68.150  1.00  0.00     0.000 HD 
HETATM    5  O   UNK A   1     -11.915  12.227  67.184  1.00  0.00    -0.564 OA 
HETATM    6  C   UNK A   1     -11.055  11.184  67.316  1.00  0.00    -0.302 C  
HETATM    7  O   UNK A   1     -11.210  10.106  66.766  1.00  0.00    -0.010 OA 
ENDROOT
BRANCH   2   8
HETATM    8  C   UNK A   1      -9.708  10.447  69.333  1.00  0.00    -0.222 C  
BRANCH   8   9
HETATM    9  C   UNK A   1     -10.913  10.242  70.256  1.00  0.00    -0.375 C  
BRANCH   9  10
HETATM   10  C   UNK A   1     -11.347   8.795  70.228  1.00  0.00    -0.147 C  
HETATM   11  O   UNK A   1     -12.183   8.346  71.007  1.00  0.00    -0.266 OA 
HETATM   12  N   UNK A   1     -10.759   8.036  69.250  1.00  0.00    -0.362 N  
HETATM   13  H   UNK A   1     -10.072   8.469  68.632  1.00  0.00     0.000 HD 
BRANCH  12  14
HETATM   14  C   UNK A   1     -11.087   6.626  69.069  1.00  0.00    -0.257 C  
BRANCH  14  15
HETATM   15  C   UNK A   1     -10.087   5.796  69.896  1.00  0.00    -0.209 C  
ATOM     16  H   GLY A   2      -8.844   7.467  70.074  1.00  0.00     0.000 HD 
ATOM     17  N   GLY A   2      -8.935   6.469  70.267  1.00  0.00    -0.154 N  
HETATM   18  O   UNK A   1     -10.336   4.654  70.276  1.00  0.00    -0.202 OA 
BRANCH  17  19
ATOM     19  CA  GLY A   2      -7.842   5.751  70.937  1.00  0.00    -0.105 C  
ATOM     20  C   GLY A   2      -6.670   5.425  70.014  1.00  0.00    -0.047 C  
ATOM     21  O   GLY A   2      -6.848   5.849  68.741  1.00  0.00    -0.061 OA 
ATOM     22  OXT GLY A   2      -5.679   4.802  70.366  1.00  0.00    -0.014 OA 
ENDBRANCH  17  19
ENDBRANCH  14  15
BRANCH  14  23
HETATM   23  C   UNK A   1     -10.967   6.154  67.611  1.00  0.00    -0.302 C  
HETATM   24  S   UNK A   1      -9.498   6.742  66.706  1.00  0.00    -0.165 SA 
HETATM   25  H   UNK A   1      -9.390   6.316  65.388  1.00  0.00     0.000 H  
ENDBRANCH  14  23
ENDBRANCH  12  14
ENDBRANCH   9  10
ENDBRANCH   8   9
ENDBRANCH   2   8
TORSDOF 7
ENDMDL
MODEL      250
REMARK 921   NORMALIZED FREE ENERGY PREDICTED BY IDOCK:   -3.37 KCAL/MOL
REMARK 922        TOTAL FREE ENERGY PREDICTED BY IDOCK:   -5.32 KCAL/MOL
REMARK 923 INTER-LIGAND FREE ENERGY PREDICTED BY IDOCK:   -4.81 KCAL/MOL
REMARK 924 INTRA-LIGAND FREE ENERGY PREDICTED BY IDOCK:   -0.51 KCAL/MOL
REMARK 927      BINDING AFFINITY PREDICTED BY RF-SCORE:    0.00 PKD
ROOT
HETATM    1  N   UNK A   1      -6.737   9.006  63.722  1.00  0.00    -0.088 NA 
HETATM    2  C   UNK A   1      -6.771   8.940  65.213  1.00  0.00    -0.068 C  
HETATM    3  H2  UNK A   1      -6.153   9.779  63.405  1.00  0.00     0.000 HD 
HETATM    4  H1  UNK A   1      -6.446   8.129  63.292  1.00  0.00     0.000 HD 
HETATM    5  O   UNK A   1      -8.117   7.068  64.573  1.00  0.00    -0.128 OA 
HETATM    6  C   UNK A   1      -7.682   7.777  65.646  1.00  0.00    -0.101 C  
HETATM    7  O   UNK A   1      -8.005   7.528  66.797  1.00  0.00    -0.110 OA 
ENDROOT
BRANCH   2   8
HETATM    8  C   UNK A   1      -7.208  10.258  65.860  1.00  0.00    -0.131 C  
BRANCH   8   9
HETATM    9  C   UNK A   1      -6.078  11.038  66.538  1.00  0.00    -0.134 C  
BRANCH   9  10
HETATM   10  C   UNK A   1      -6.650  12.179  67.347  1.00  0.00    -0.147 C  
HETATM   11  O   UNK A   1      -6.163  12.533  68.418  1.00  0.00    -0.053 OA 
HETATM   12  N   UNK A   1      -7.729  12.803  66.780  1.00  0.00    -0.376 N  
HETATM   13  H   UNK A   1      -8.086  12.463  65.887  1.00  0.00     0.000 HD 
BRANCH  12  14
HETATM   14  C   UNK A   1      -8.384  13.941  67.418  1.00  0.00    -0.198 C  
BRANCH  14  15
HETATM   15  C   UNK A   1      -9.729  14.175  66.705  1.00  0.00    -0.288 C  
ATOM     16  H   GLY A   2      -9.277  12.652  65.347  1.00  0.00     0.000 HD 
ATOM     17  N   GLY A   2      -9.941  13.389  65.584  1.00  0.00    -0.268 N  
HETATM   18  O   UNK A   1     -10.586  14.936  67.149  1.00  0.00    -0.275 OA 
BRANCH  17  19
ATOM     19  CA  GLY A   2     -11.120  13.613  64.736  1.00  0.00    -0.370 C  
ATOM     20  C   GLY A   2     -12.338  12.791  65.156  1.00  0.00    -0.496 C  
ATOM     21  O   GLY A   2     -12.113  11.998  66.230  1.00  0.00    -0.596 OA 
ATOM     22  OXT GLY A   2     -13.406  12.804  64.561  1.00  0.00    -0.559 OA 
ENDBRANCH  17  19
ENDBRANCH  14  15
BRANCH  14  23
HETATM   23  C   UNK A   1      -7.581  15.247  67.308  1.00  0.00    -0.210 C  
HETATM   24  S   UNK A   1      -7.431  16.217  68.844  1.00  0.00    -0.209 SA 
HETATM   25  H   UNK A   1      -6.706  17.398  68.745  1.00  0.00     0.000 H  
ENDBRANCH  14  23
ENDBRANCH  12  14
ENDBRANCH   9  10
ENDBRANCH   8   9
ENDBRANCH   2   8
TORSDOF 7
ENDMDL
MODEL      251
REMARK 921   NORMALIZED FREE ENERGY PREDICTED BY IDOCK:   -3.37 KCAL/MOL
REMARK 922        TOTAL FREE ENERGY PREDICTED BY IDOCK:   -5.31 KCAL/MOL
REMARK 923 INTER-LIGAND FREE ENERGY PREDICTED BY IDOCK:   -5.30 KCAL/MOL
REMARK 924 INTRA-LIGAND FREE ENERGY PREDICTED BY IDOCK:   -0.01 KCAL/MOL
REMARK 927      BINDING AFFINITY PREDICTED BY RF-SCORE:    0.00 PKD
ROOT
HETATM    1  N   UNK A   1     -11.085  16.737  69.943  1.00  0.00    -0.401 NA 
HETATM    2  C   UNK A   1     -12.026  15.584  69.813  1.00  0.00    -0.364 C  
HETATM    3  H2  UNK A   1     -10.557  16.876  69.082  1.00  0.00     0.000 HD 
HETATM    4  H1  UNK A   1     -11.550  17.598  70.229  1.00  0.00     0.000 HD 
HETATM    5  O   UNK A   1     -12.473  16.381  72.024  1.00  0.00    -0.311 OA 
HETATM    6  C   UNK A   1     -12.781  15.397  71.141  1.00  0.00    -0.439 C  
HETATM    7  O   UNK A   1     -13.538  14.474  71.394  1.00  0.00    -0.366 OA 
ENDROOT
BRANCH   2   8
HETATM    8  C   UNK A   1     -11.327  14.290  69.384  1.00  0.00    -0.325 C  
BRANCH   8   9
HETATM    9  C   UNK A   1     -12.186  13.029  69.520  1.00  0.00    -0.198 C  
BRANCH   9  10
HETATM   10  C   UNK A   1     -11.839  12.045  68.427  1.00  0.00    -0.300 C  
HETATM   11  O   UNK A   1     -12.268  10.895  68.420  1.00  0.00    -0.540 OA 
HETATM   12  N   UNK A   1     -11.036  12.545  67.436  1.00  0.00    -0.250 N  
HETATM   13  H   UNK A   1     -10.713  13.511  67.498  1.00  0.00     0.000 HD 
BRANCH  12  14
HETATM   14  C   UNK A   1     -10.629  11.734  66.293  1.00  0.00    -0.252 C  
BRANCH  14  15
HETATM   15  C   UNK A   1      -9.161  11.318  66.505  1.00  0.00    -0.184 C  
ATOM     16  H   GLY A   2      -9.048  12.564  68.180  1.00  0.00     0.000 HD 
ATOM     17  N   GLY A   2      -8.519  11.953  67.556  1.00  0.00    -0.153 N  
HETATM   18  O   UNK A   1      -8.628  10.425  65.851  1.00  0.00    -0.146 OA 
BRANCH  17  19
ATOM     19  CA  GLY A   2      -7.081  11.749  67.777  1.00  0.00    -0.096 C  
ATOM     20  C   GLY A   2      -6.381  12.959  68.392  1.00  0.00    -0.080 C  
ATOM     21  O   GLY A   2      -7.208  14.007  68.619  1.00  0.00    -0.102 OA 
ATOM     22  OXT GLY A   2      -5.181  13.008  68.621  1.00  0.00    -0.063 OA 
ENDBRANCH  17  19
ENDBRANCH  14  15
BRANCH  14  23
HETATM   23  C   UNK A   1     -10.695  12.488  64.955  1.00  0.00    -0.294 C  
HETATM   24  S   UNK A   1     -10.627  14.305  65.066  1.00  0.00    -0.440 SA 
HETATM   25  H   UNK A   1     -10.687  14.987  63.856  1.00  0.00     0.000 H  
ENDBRANCH  14  23
ENDBRANCH  12  14
ENDBRANCH   9  10
ENDBRANCH   8   9
ENDBRANCH   2   8
TORSDOF 7
ENDMDL
MODEL      252
REMARK 921   NORMALIZED FREE ENERGY PREDICTED BY IDOCK:   -3.37 KCAL/MOL
REMARK 922        TOTAL FREE ENERGY PREDICTED BY IDOCK:   -5.31 KCAL/MOL
REMARK 923 INTER-LIGAND FREE ENERGY PREDICTED BY IDOCK:   -4.22 KCAL/MOL
REMARK 924 INTRA-LIGAND FREE ENERGY PREDICTED BY IDOCK:   -1.09 KCAL/MOL
REMARK 927      BINDING AFFINITY PREDICTED BY RF-SCORE:    0.00 PKD
ROOT
HETATM    1  N   UNK A   1      -9.501   2.922  66.953  1.00  0.00    -0.395 NA 
HETATM    2  C   UNK A   1     -10.031   4.152  67.612  1.00  0.00     0.012 C  
HETATM    3  H2  UNK A   1      -9.380   2.169  67.630  1.00  0.00     0.000 HD 
HETATM    4  H1  UNK A   1     -10.071   2.617  66.165  1.00  0.00     0.000 HD 
HETATM    5  O   UNK A   1      -9.884   4.808  65.316  1.00  0.00    -0.146 OA 
HETATM    6  C   UNK A   1     -10.173   5.267  66.561  1.00  0.00    -0.253 C  
HETATM    7  O   UNK A   1     -10.474   6.425  66.801  1.00  0.00    -0.229 OA 
ENDROOT
BRANCH   2   8
HETATM    8  C   UNK A   1      -9.174   4.611  68.797  1.00  0.00    -0.179 C  
BRANCH   8   9
HETATM    9  C   UNK A   1      -9.953   4.828  70.098  1.00  0.00    -0.321 C  
BRANCH   9  10
HETATM   10  C   UNK A   1      -9.634   6.190  70.671  1.00  0.00    -0.173 C  
HETATM   11  O   UNK A   1      -9.498   6.379  71.876  1.00  0.00    -0.153 OA 
HETATM   12  N   UNK A   1      -9.482   7.185  69.741  1.00  0.00    -0.150 N  
HETATM   13  H   UNK A   1      -9.606   6.964  68.753  1.00  0.00     0.000 HD 
BRANCH  12  14
HETATM   14  C   UNK A   1      -9.146   8.552  70.125  1.00  0.00    -0.152 C  
BRANCH  14  15
HETATM   15  C   UNK A   1     -10.437   9.391  70.068  1.00  0.00    -0.234 C  
ATOM     16  H   GLY A   2      -9.998   9.936  68.099  1.00  0.00     0.000 HD 
ATOM     17  N   GLY A   2     -10.633  10.083  68.885  1.00  0.00    -0.209 N  
HETATM   18  O   UNK A   1     -11.273   9.374  70.968  1.00  0.00    -0.283 OA 
BRANCH  17  19
ATOM     19  CA  GLY A   2     -11.751  11.027  68.756  1.00  0.00    -0.314 C  
ATOM     20  C   GLY A   2     -11.309  12.485  68.638  1.00  0.00    -0.288 C  
ATOM     21  O   GLY A   2      -9.965  12.648  68.680  1.00  0.00    -0.194 OA 
ATOM     22  OXT GLY A   2     -12.083  13.427  68.559  1.00  0.00    -0.352 OA 
ENDBRANCH  17  19
ENDBRANCH  14  15
BRANCH  14  23
HETATM   23  C   UNK A   1      -8.133   9.219  69.182  1.00  0.00    -0.106 C  
HETATM   24  S   UNK A   1      -7.559   8.199  67.785  1.00  0.00    -0.099 SA 
HETATM   25  H   UNK A   1      -6.643   8.803  66.932  1.00  0.00     0.000 H  
ENDBRANCH  14  23
ENDBRANCH  12  14
ENDBRANCH   9  10
ENDBRANCH   8   9
ENDBRANCH   2   8
TORSDOF 7
ENDMDL
MODEL      253
REMARK 921   NORMALIZED FREE ENERGY PREDICTED BY IDOCK:   -3.37 KCAL/MOL
REMARK 922        TOTAL FREE ENERGY PREDICTED BY IDOCK:   -5.31 KCAL/MOL
REMARK 923 INTER-LIGAND FREE ENERGY PREDICTED BY IDOCK:   -4.67 KCAL/MOL
REMARK 924 INTRA-LIGAND FREE ENERGY PREDICTED BY IDOCK:   -0.64 KCAL/MOL
REMARK 927      BINDING AFFINITY PREDICTED BY RF-SCORE:    0.00 PKD
ROOT
HETATM    1  N   UNK A   1     -11.728   7.447  72.932  1.00  0.00    -0.582 NA 
HETATM    2  C   UNK A   1     -11.484   6.262  72.057  1.00  0.00    -0.310 C  
HETATM    3  H2  UNK A   1     -12.160   8.206  72.405  1.00  0.00     0.000 HD 
HETATM    4  H1  UNK A   1     -12.275   7.222  73.762  1.00  0.00     0.000 HD 
HETATM    5  O   UNK A   1     -10.719   5.506  74.194  1.00  0.00    -0.261 OA 
HETATM    6  C   UNK A   1     -10.811   5.154  72.886  1.00  0.00    -0.268 C  
HETATM    7  O   UNK A   1     -10.382   4.103  72.437  1.00  0.00    -0.178 OA 
ENDROOT
BRANCH   2   8
HETATM    8  C   UNK A   1     -10.662   6.600  70.810  1.00  0.00    -0.282 C  
BRANCH   8   9
HETATM    9  C   UNK A   1      -9.367   7.367  71.091  1.00  0.00    -0.156 C  
BRANCH   9  10
HETATM   10  C   UNK A   1      -8.620   7.614  69.801  1.00  0.00    -0.135 C  
HETATM   11  O   UNK A   1      -7.426   7.357  69.675  1.00  0.00    -0.088 OA 
HETATM   12  N   UNK A   1      -9.383   8.117  68.781  1.00  0.00    -0.144 N  
HETATM   13  H   UNK A   1     -10.371   8.308  68.948  1.00  0.00     0.000 HD 
BRANCH  12  14
HETATM   14  C   UNK A   1      -8.823   8.388  67.461  1.00  0.00    -0.135 C  
BRANCH  14  15
HETATM   15  C   UNK A   1      -9.221   9.821  67.061  1.00  0.00    -0.142 C  
ATOM     16  H   GLY A   2     -10.540   9.057  65.630  1.00  0.00     0.000 HD 
ATOM     17  N   GLY A   2     -10.120   9.906  66.011  1.00  0.00    -0.261 N  
HETATM   18  O   UNK A   1      -8.842  10.808  67.686  1.00  0.00    -0.131 OA 
BRANCH  17  19
ATOM     19  CA  GLY A   2     -10.473  11.215  65.443  1.00  0.00    -0.259 C  
ATOM     20  C   GLY A   2     -10.213  11.318  63.941  1.00  0.00    -0.365 C  
ATOM     21  O   GLY A   2      -9.697  10.188  63.401  1.00  0.00    -0.271 OA 
ATOM     22  OXT GLY A   2     -10.404  12.331  63.285  1.00  0.00    -0.413 OA 
ENDBRANCH  17  19
ENDBRANCH  14  15
BRANCH  14  23
HETATM   23  C   UNK A   1      -9.356   7.449  66.367  1.00  0.00    -0.155 C  
HETATM   24  S   UNK A   1      -8.713   5.745  66.402  1.00  0.00    -0.133 SA 
HETATM   25  H   UNK A   1      -9.195   4.896  65.413  1.00  0.00     0.000 H  
ENDBRANCH  14  23
ENDBRANCH  12  14
ENDBRANCH   9  10
ENDBRANCH   8   9
ENDBRANCH   2   8
TORSDOF 7
ENDMDL
MODEL      254
REMARK 921   NORMALIZED FREE ENERGY PREDICTED BY IDOCK:   -3.35 KCAL/MOL
REMARK 922        TOTAL FREE ENERGY PREDICTED BY IDOCK:   -5.29 KCAL/MOL
REMARK 923 INTER-LIGAND FREE ENERGY PREDICTED BY IDOCK:   -4.53 KCAL/MOL
REMARK 924 INTRA-LIGAND FREE ENERGY PREDICTED BY IDOCK:   -0.76 KCAL/MOL
REMARK 927      BINDING AFFINITY PREDICTED BY RF-SCORE:    0.00 PKD
ROOT
HETATM    1  N   UNK A   1      -6.443   7.067  70.365  1.00  0.00    -0.042 NA 
HETATM    2  C   UNK A   1      -6.859   8.182  71.267  1.00  0.00    -0.054 C  
HETATM    3  H2  UNK A   1      -6.900   6.194  70.630  1.00  0.00     0.000 HD 
HETATM    4  H1  UNK A   1      -6.598   7.276  69.379  1.00  0.00     0.000 HD 
HETATM    5  O   UNK A   1      -5.397   9.274  69.721  1.00  0.00    -0.033 OA 
HETATM    6  C   UNK A   1      -6.128   9.470  70.848  1.00  0.00    -0.077 C  
HETATM    7  O   UNK A   1      -6.166  10.528  71.454  1.00  0.00    -0.313 OA 
ENDROOT
BRANCH   2   8
HETATM    8  C   UNK A   1      -6.625   7.868  72.749  1.00  0.00    -0.076 C  
BRANCH   8   9
HETATM    9  C   UNK A   1      -7.843   8.104  73.648  1.00  0.00    -0.240 C  
BRANCH   9  10
HETATM   10  C   UNK A   1      -9.074   7.488  73.024  1.00  0.00    -0.172 C  
HETATM   11  O   UNK A   1      -9.213   6.273  72.910  1.00  0.00    -0.135 OA 
HETATM   12  N   UNK A   1     -10.029   8.386  72.627  1.00  0.00    -0.284 N  
HETATM   13  H   UNK A   1      -9.855   9.383  72.751  1.00  0.00     0.000 HD 
BRANCH  12  14
HETATM   14  C   UNK A   1     -11.290   7.955  72.031  1.00  0.00    -0.292 C  
BRANCH  14  15
HETATM   15  C   UNK A   1     -11.178   8.132  70.505  1.00  0.00    -0.247 C  
ATOM     16  H   GLY A   2     -10.666  10.141  70.773  1.00  0.00     0.000 HD 
ATOM     17  N   GLY A   2     -10.885   9.419  70.085  1.00  0.00    -0.237 N  
HETATM   18  O   UNK A   1     -11.251   7.185  69.725  1.00  0.00    -0.243 OA 
BRANCH  17  19
ATOM     19  CA  GLY A   2     -10.889   9.750  68.653  1.00  0.00    -0.188 C  
ATOM     20  C   GLY A   2     -11.588  11.069  68.334  1.00  0.00    -0.302 C  
ATOM     21  O   GLY A   2     -12.087  11.698  69.425  1.00  0.00    -0.306 OA 
ATOM     22  OXT GLY A   2     -11.732  11.507  67.202  1.00  0.00    -0.567 OA 
ENDBRANCH  17  19
ENDBRANCH  14  15
BRANCH  14  23
HETATM   23  C   UNK A   1     -12.498   8.785  72.493  1.00  0.00    -0.298 C  
HETATM   24  S   UNK A   1     -14.122   8.230  71.880  1.00  0.00    -0.421 SA 
HETATM   25  H   UNK A   1     -15.215   8.979  72.298  1.00  0.00     0.000 H  
ENDBRANCH  14  23
ENDBRANCH  12  14
ENDBRANCH   9  10
ENDBRANCH   8   9
ENDBRANCH   2   8
TORSDOF 7
ENDMDL
MODEL      255
REMARK 921   NORMALIZED FREE ENERGY PREDICTED BY IDOCK:   -3.35 KCAL/MOL
REMARK 922        TOTAL FREE ENERGY PREDICTED BY IDOCK:   -5.28 KCAL/MOL
REMARK 923 INTER-LIGAND FREE ENERGY PREDICTED BY IDOCK:   -4.59 KCAL/MOL
REMARK 924 INTRA-LIGAND FREE ENERGY PREDICTED BY IDOCK:   -0.69 KCAL/MOL
REMARK 927      BINDING AFFINITY PREDICTED BY RF-SCORE:    0.00 PKD
ROOT
HETATM    1  N   UNK A   1     -11.758   7.463  72.932  1.00  0.00    -0.582 NA 
HETATM    2  C   UNK A   1     -11.436   6.351  71.990  1.00  0.00    -0.305 C  
HETATM    3  H2  UNK A   1     -12.257   8.213  72.454  1.00  0.00     0.000 HD 
HETATM    4  H1  UNK A   1     -12.271   7.150  73.755  1.00  0.00     0.000 HD 
HETATM    5  O   UNK A   1     -10.578   5.543  74.072  1.00  0.00    -0.273 OA 
HETATM    6  C   UNK A   1     -10.663   5.256  72.747  1.00  0.00    -0.243 C  
HETATM    7  O   UNK A   1     -10.160   4.269  72.235  1.00  0.00    -0.172 OA 
ENDROOT
BRANCH   2   8
HETATM    8  C   UNK A   1     -10.664   6.821  70.753  1.00  0.00    -0.270 C  
BRANCH   8   9
HETATM    9  C   UNK A   1      -9.480   7.744  71.056  1.00  0.00    -0.165 C  
BRANCH   9  10
HETATM   10  C   UNK A   1      -8.788   8.138  69.772  1.00  0.00    -0.143 C  
HETATM   11  O   UNK A   1      -7.569   8.085  69.641  1.00  0.00    -0.092 OA 
HETATM   12  N   UNK A   1      -9.627   8.530  68.762  1.00  0.00    -0.148 N  
HETATM   13  H   UNK A   1     -10.633   8.552  68.934  1.00  0.00     0.000 HD 
BRANCH  12  14
HETATM   14  C   UNK A   1      -9.123   8.917  67.449  1.00  0.00    -0.132 C  
BRANCH  14  15
HETATM   15  C   UNK A   1      -9.813  10.235  67.046  1.00  0.00    -0.193 C  
ATOM     16  H   GLY A   2      -9.142  11.128  68.813  1.00  0.00     0.000 HD 
ATOM     17  N   GLY A   2      -9.720  11.252  67.981  1.00  0.00    -0.174 N  
HETATM   18  O   UNK A   1     -10.325  10.399  65.941  1.00  0.00    -0.245 OA 
BRANCH  17  19
ATOM     19  CA  GLY A   2     -10.452  12.511  67.780  1.00  0.00    -0.220 C  
ATOM     20  C   GLY A   2     -11.455  12.818  68.890  1.00  0.00    -0.305 C  
ATOM     21  O   GLY A   2     -11.496  11.873  69.860  1.00  0.00    -0.265 OA 
ATOM     22  OXT GLY A   2     -12.188  13.795  68.894  1.00  0.00    -0.344 OA 
ENDBRANCH  17  19
ENDBRANCH  14  15
BRANCH  14  23
HETATM   23  C   UNK A   1      -9.435   7.890  66.349  1.00  0.00    -0.192 C  
HETATM   24  S   UNK A   1      -8.445   6.361  66.389  1.00  0.00    -0.128 SA 
HETATM   25  H   UNK A   1      -8.726   5.432  65.394  1.00  0.00     0.000 H  
ENDBRANCH  14  23
ENDBRANCH  12  14
ENDBRANCH   9  10
ENDBRANCH   8   9
ENDBRANCH   2   8
TORSDOF 7
ENDMDL
MODEL      256
REMARK 921   NORMALIZED FREE ENERGY PREDICTED BY IDOCK:   -3.34 KCAL/MOL
REMARK 922        TOTAL FREE ENERGY PREDICTED BY IDOCK:   -5.28 KCAL/MOL
REMARK 923 INTER-LIGAND FREE ENERGY PREDICTED BY IDOCK:   -4.39 KCAL/MOL
REMARK 924 INTRA-LIGAND FREE ENERGY PREDICTED BY IDOCK:   -0.89 KCAL/MOL
REMARK 927      BINDING AFFINITY PREDICTED BY RF-SCORE:    0.00 PKD
ROOT
HETATM    1  N   UNK A   1      -6.116   5.221  67.432  1.00  0.00    -0.029 NA 
HETATM    2  C   UNK A   1      -7.466   5.801  67.696  1.00  0.00    -0.078 C  
HETATM    3  H2  UNK A   1      -6.137   4.203  67.498  1.00  0.00     0.000 HD 
HETATM    4  H1  UNK A   1      -5.723   5.520  66.540  1.00  0.00     0.000 HD 
HETATM    5  O   UNK A   1      -6.145   7.737  67.217  1.00  0.00    -0.046 OA 
HETATM    6  C   UNK A   1      -7.381   7.335  67.610  1.00  0.00    -0.093 C  
HETATM    7  O   UNK A   1      -8.287   8.106  67.885  1.00  0.00    -0.126 OA 
ENDROOT
BRANCH   2   8
HETATM    8  C   UNK A   1      -8.057   5.351  69.036  1.00  0.00    -0.094 C  
BRANCH   8   9
HETATM    9  C   UNK A   1      -9.480   4.791  68.947  1.00  0.00    -0.209 C  
BRANCH   9  10
HETATM   10  C   UNK A   1     -10.484   5.919  68.986  1.00  0.00    -0.265 C  
HETATM   11  O   UNK A   1     -11.280   6.121  68.073  1.00  0.00    -0.310 OA 
HETATM   12  N   UNK A   1     -10.457   6.675  70.128  1.00  0.00    -0.202 N  
HETATM   13  H   UNK A   1      -9.772   6.456  70.852  1.00  0.00     0.000 HD 
BRANCH  12  14
HETATM   14  C   UNK A   1     -11.379   7.787  70.338  1.00  0.00    -0.207 C  
BRANCH  14  15
HETATM   15  C   UNK A   1     -10.574   9.096  70.237  1.00  0.00    -0.223 C  
ATOM     16  H   GLY A   2     -11.872   9.781  68.748  1.00  0.00     0.000 HD 
ATOM     17  N   GLY A   2     -11.014   9.979  69.264  1.00  0.00    -0.229 N  
HETATM   18  O   UNK A   1      -9.670   9.376  71.020  1.00  0.00    -0.275 OA 
BRANCH  17  19
ATOM     19  CA  GLY A   2     -10.249  11.199  68.972  1.00  0.00    -0.176 C  
ATOM     20  C   GLY A   2     -10.881  12.070  67.888  1.00  0.00    -0.215 C  
ATOM     21  O   GLY A   2     -12.030  11.560  67.383  1.00  0.00    -0.623 OA 
ATOM     22  OXT GLY A   2     -10.385  13.107  67.473  1.00  0.00    -0.222 OA 
ENDBRANCH  17  19
ENDBRANCH  14  15
BRANCH  14  23
HETATM   23  C   UNK A   1     -12.046   7.773  71.722  1.00  0.00    -0.298 C  
HETATM   24  S   UNK A   1     -13.295   9.068  72.013  1.00  0.00    -0.470 SA 
HETATM   25  H   UNK A   1     -13.899   9.055  73.264  1.00  0.00     0.000 H  
ENDBRANCH  14  23
ENDBRANCH  12  14
ENDBRANCH   9  10
ENDBRANCH   8   9
ENDBRANCH   2   8
TORSDOF 7
ENDMDL
MODEL      257
REMARK 921   NORMALIZED FREE ENERGY PREDICTED BY IDOCK:   -3.34 KCAL/MOL
REMARK 922        TOTAL FREE ENERGY PREDICTED BY IDOCK:   -5.27 KCAL/MOL
REMARK 923 INTER-LIGAND FREE ENERGY PREDICTED BY IDOCK:   -4.37 KCAL/MOL
REMARK 924 INTRA-LIGAND FREE ENERGY PREDICTED BY IDOCK:   -0.89 KCAL/MOL
REMARK 927      BINDING AFFINITY PREDICTED BY RF-SCORE:    0.00 PKD
ROOT
HETATM    1  N   UNK A   1      -9.921   6.707  66.072  1.00  0.00    -0.372 NA 
HETATM    2  C   UNK A   1      -8.949   6.210  67.090  1.00  0.00    -0.111 C  
HETATM    3  H2  UNK A   1      -9.718   7.672  65.814  1.00  0.00     0.000 HD 
HETATM    4  H1  UNK A   1      -9.971   6.111  65.246  1.00  0.00     0.000 HD 
HETATM    5  O   UNK A   1     -10.332   4.296  66.704  1.00  0.00    -0.120 OA 
HETATM    6  C   UNK A   1      -9.309   4.761  67.466  1.00  0.00    -0.138 C  
HETATM    7  O   UNK A   1      -8.775   4.112  68.351  1.00  0.00    -0.092 OA 
ENDROOT
BRANCH   2   8
HETATM    8  C   UNK A   1      -8.875   7.104  68.331  1.00  0.00    -0.127 C  
BRANCH   8   9
HETATM    9  C   UNK A   1      -7.621   7.980  68.409  1.00  0.00    -0.108 C  
BRANCH   9  10
HETATM   10  C   UNK A   1      -8.010   9.440  68.438  1.00  0.00    -0.094 C  
HETATM   11  O   UNK A   1      -7.383  10.273  69.088  1.00  0.00    -0.077 OA 
HETATM   12  N   UNK A   1      -9.092   9.763  67.663  1.00  0.00    -0.131 N  
HETATM   13  H   UNK A   1      -9.569   9.026  67.145  1.00  0.00     0.000 HD 
BRANCH  12  14
HETATM   14  C   UNK A   1      -9.582  11.134  67.558  1.00  0.00    -0.168 C  
BRANCH  14  15
HETATM   15  C   UNK A   1     -10.962  11.198  68.239  1.00  0.00    -0.226 C  
ATOM     16  H   GLY A   2     -10.050  11.009  70.110  1.00  0.00     0.000 HD 
ATOM     17  N   GLY A   2     -10.942  11.050  69.616  1.00  0.00    -0.247 N  
HETATM   18  O   UNK A   1     -11.991  11.453  67.619  1.00  0.00    -0.630 OA 
BRANCH  17  19
ATOM     19  CA  GLY A   2     -12.200  10.953  70.369  1.00  0.00    -0.365 C  
ATOM     20  C   GLY A   2     -12.516   9.538  70.850  1.00  0.00    -0.202 C  
ATOM     21  O   GLY A   2     -11.583   8.623  70.492  1.00  0.00    -0.243 OA 
ATOM     22  OXT GLY A   2     -13.530   9.236  71.461  1.00  0.00    -0.368 OA 
ENDBRANCH  17  19
ENDBRANCH  14  15
BRANCH  14  23
HETATM   23  C   UNK A   1      -9.772  11.605  66.108  1.00  0.00    -0.229 C  
HETATM   24  S   UNK A   1      -9.844  10.288  64.850  1.00  0.00    -0.323 SA 
HETATM   25  H   UNK A   1     -10.016  10.714  63.539  1.00  0.00     0.000 H  
ENDBRANCH  14  23
ENDBRANCH  12  14
ENDBRANCH   9  10
ENDBRANCH   8   9
ENDBRANCH   2   8
TORSDOF 7
ENDMDL
MODEL      258
REMARK 921   NORMALIZED FREE ENERGY PREDICTED BY IDOCK:   -3.33 KCAL/MOL
REMARK 922        TOTAL FREE ENERGY PREDICTED BY IDOCK:   -5.26 KCAL/MOL
REMARK 923 INTER-LIGAND FREE ENERGY PREDICTED BY IDOCK:   -4.65 KCAL/MOL
REMARK 924 INTRA-LIGAND FREE ENERGY PREDICTED BY IDOCK:   -0.61 KCAL/MOL
REMARK 927      BINDING AFFINITY PREDICTED BY RF-SCORE:    0.00 PKD
ROOT
HETATM    1  N   UNK A   1      -9.659  12.231  65.781  1.00  0.00    -0.369 NA 
HETATM    2  C   UNK A   1      -8.766  11.071  65.488  1.00  0.00    -0.138 C  
HETATM    3  H2  UNK A   1      -9.285  12.796  66.542  1.00  0.00     0.000 HD 
HETATM    4  H1  UNK A   1      -9.846  12.805  64.959  1.00  0.00     0.000 HD 
HETATM    5  O   UNK A   1     -10.497  10.827  63.854  1.00  0.00    -0.338 OA 
HETATM    6  C   UNK A   1      -9.380  10.235  64.351  1.00  0.00    -0.277 C  
HETATM    7  O   UNK A   1      -8.951   9.163  63.956  1.00  0.00    -0.148 OA 
ENDROOT
BRANCH   2   8
HETATM    8  C   UNK A   1      -8.485  10.208  66.722  1.00  0.00    -0.126 C  
BRANCH   8   9
HETATM    9  C   UNK A   1      -9.619  10.183  67.751  1.00  0.00    -0.168 C  
BRANCH   9  10
HETATM   10  C   UNK A   1     -10.292   8.830  67.747  1.00  0.00    -0.237 C  
HETATM   11  O   UNK A   1     -10.779   8.342  66.731  1.00  0.00    -0.267 OA 
HETATM   12  N   UNK A   1     -10.289   8.182  68.955  1.00  0.00    -0.214 N  
HETATM   13  H   UNK A   1      -9.866   8.640  69.762  1.00  0.00     0.000 HD 
BRANCH  12  14
HETATM   14  C   UNK A   1     -10.874   6.855  69.118  1.00  0.00    -0.228 C  
BRANCH  14  15
HETATM   15  C   UNK A   1     -11.428   6.753  70.551  1.00  0.00    -0.360 C  
ATOM     16  H   GLY A   2      -9.488   6.904  71.314  1.00  0.00     0.000 HD 
ATOM     17  N   GLY A   2     -10.468   6.747  71.550  1.00  0.00    -0.212 N  
HETATM   18  O   UNK A   1     -12.632   6.770  70.794  1.00  0.00    -0.311 OA 
BRANCH  17  19
ATOM     19  CA  GLY A   2     -10.857   6.515  72.948  1.00  0.00    -0.258 C  
ATOM     20  C   GLY A   2     -10.609   5.083  73.420  1.00  0.00    -0.246 C  
ATOM     21  O   GLY A   2     -10.080   4.281  72.465  1.00  0.00    -0.160 OA 
ATOM     22  OXT GLY A   2     -10.895   4.675  74.536  1.00  0.00    -0.339 OA 
ENDBRANCH  17  19
ENDBRANCH  14  15
BRANCH  14  23
HETATM   23  C   UNK A   1      -9.857   5.715  68.945  1.00  0.00    -0.147 C  
HETATM   24  S   UNK A   1      -8.112   6.222  68.812  1.00  0.00    -0.110 SA 
HETATM   25  H   UNK A   1      -7.193   5.192  68.656  1.00  0.00     0.000 H  
ENDBRANCH  14  23
ENDBRANCH  12  14
ENDBRANCH   9  10
ENDBRANCH   8   9
ENDBRANCH   2   8
TORSDOF 7
ENDMDL
MODEL      259
REMARK 921   NORMALIZED FREE ENERGY PREDICTED BY IDOCK:   -3.33 KCAL/MOL
REMARK 922        TOTAL FREE ENERGY PREDICTED BY IDOCK:   -5.26 KCAL/MOL
REMARK 923 INTER-LIGAND FREE ENERGY PREDICTED BY IDOCK:   -4.55 KCAL/MOL
REMARK 924 INTRA-LIGAND FREE ENERGY PREDICTED BY IDOCK:   -0.71 KCAL/MOL
REMARK 927      BINDING AFFINITY PREDICTED BY RF-SCORE:    0.00 PKD
ROOT
HETATM    1  N   UNK A   1      -8.675   6.279  70.684  1.00  0.00    -0.138 NA 
HETATM    2  C   UNK A   1      -9.968   6.357  71.427  1.00  0.00    -0.184 C  
HETATM    3  H2  UNK A   1      -8.520   7.122  70.132  1.00  0.00     0.000 HD 
HETATM    4  H1  UNK A   1      -7.879   6.090  71.293  1.00  0.00     0.000 HD 
HETATM    5  O   UNK A   1      -9.085   4.246  72.126  1.00  0.00    -0.114 OA 
HETATM    6  C   UNK A   1     -10.170   5.056  72.224  1.00  0.00    -0.201 C  
HETATM    7  O   UNK A   1     -11.180   4.762  72.845  1.00  0.00    -0.243 OA 
ENDROOT
BRANCH   2   8
HETATM    8  C   UNK A   1     -11.164   6.640  70.513  1.00  0.00    -0.388 C  
BRANCH   8   9
HETATM    9  C   UNK A   1     -11.022   6.088  69.091  1.00  0.00    -0.429 C  
BRANCH   9  10
HETATM   10  C   UNK A   1     -10.812   7.222  68.114  1.00  0.00    -0.068 C  
HETATM   11  O   UNK A   1     -10.850   7.055  66.898  1.00  0.00    -0.354 OA 
HETATM   12  N   UNK A   1     -10.606   8.447  68.690  1.00  0.00    -0.371 N  
HETATM   13  H   UNK A   1     -10.587   8.521  69.707  1.00  0.00     0.000 HD 
BRANCH  12  14
HETATM   14  C   UNK A   1     -10.413   9.652  67.888  1.00  0.00    -0.246 C  
BRANCH  14  15
HETATM   15  C   UNK A   1      -8.987  10.173  68.151  1.00  0.00    -0.122 C  
ATOM     16  H   GLY A   2      -9.081  11.316  66.404  1.00  0.00     0.000 HD 
ATOM     17  N   GLY A   2      -8.481  11.011  67.171  1.00  0.00    -0.134 N  
HETATM   18  O   UNK A   1      -8.381   9.936  69.193  1.00  0.00    -0.123 OA 
BRANCH  17  19
ATOM     19  CA  GLY A   2      -7.084  11.463  67.233  1.00  0.00    -0.119 C  
ATOM     20  C   GLY A   2      -6.939  12.974  67.398  1.00  0.00    -0.116 C  
ATOM     21  O   GLY A   2      -8.122  13.631  67.451  1.00  0.00    -0.170 OA 
ATOM     22  OXT GLY A   2      -5.864  13.555  67.434  1.00  0.00    -0.348 OA 
ENDBRANCH  17  19
ENDBRANCH  14  15
BRANCH  14  23
HETATM   23  C   UNK A   1     -11.382  10.788  68.251  1.00  0.00    -0.309 C  
HETATM   24  S   UNK A   1     -11.876  10.880  70.002  1.00  0.00    -0.378 SA 
HETATM   25  H   UNK A   1     -12.753  11.907  70.330  1.00  0.00     0.000 H  
ENDBRANCH  14  23
ENDBRANCH  12  14
ENDBRANCH   9  10
ENDBRANCH   8   9
ENDBRANCH   2   8
TORSDOF 7
ENDMDL
MODEL      260
REMARK 921   NORMALIZED FREE ENERGY PREDICTED BY IDOCK:   -3.33 KCAL/MOL
REMARK 922        TOTAL FREE ENERGY PREDICTED BY IDOCK:   -5.26 KCAL/MOL
REMARK 923 INTER-LIGAND FREE ENERGY PREDICTED BY IDOCK:   -4.75 KCAL/MOL
REMARK 924 INTRA-LIGAND FREE ENERGY PREDICTED BY IDOCK:   -0.51 KCAL/MOL
REMARK 927      BINDING AFFINITY PREDICTED BY RF-SCORE:    0.00 PKD
ROOT
HETATM    1  N   UNK A   1     -11.260   5.117  73.684  1.00  0.00    -0.441 NA 
HETATM    2  C   UNK A   1     -11.298   5.703  72.311  1.00  0.00    -0.240 C  
HETATM    3  H2  UNK A   1     -11.924   5.586  74.299  1.00  0.00     0.000 HD 
HETATM    4  H1  UNK A   1     -11.408   4.108  73.689  1.00  0.00     0.000 HD 
HETATM    5  O   UNK A   1      -9.683   3.952  72.091  1.00  0.00    -0.142 OA 
HETATM    6  C   UNK A   1     -10.265   4.983  71.426  1.00  0.00    -0.200 C  
HETATM    7  O   UNK A   1      -9.974   5.303  70.285  1.00  0.00    -0.201 OA 
ENDROOT
BRANCH   2   8
HETATM    8  C   UNK A   1     -11.076   7.219  72.304  1.00  0.00    -0.298 C  
BRANCH   8   9
HETATM    9  C   UNK A   1     -11.901   7.977  71.261  1.00  0.00    -0.321 C  
BRANCH   9  10
HETATM   10  C   UNK A   1     -11.206   9.266  70.886  1.00  0.00    -0.306 C  
HETATM   11  O   UNK A   1     -11.474  10.336  71.425  1.00  0.00    -0.278 OA 
HETATM   12  N   UNK A   1     -10.237   9.139  69.925  1.00  0.00    -0.195 N  
HETATM   13  H   UNK A   1     -10.060   8.221  69.517  1.00  0.00     0.000 HD 
BRANCH  12  14
HETATM   14  C   UNK A   1      -9.452  10.281  69.469  1.00  0.00    -0.185 C  
BRANCH  14  15
HETATM   15  C   UNK A   1     -10.172  10.897  68.254  1.00  0.00    -0.173 C  
ATOM     16  H   GLY A   2      -8.688  12.362  68.114  1.00  0.00     0.000 HD 
ATOM     17  N   GLY A   2      -9.585  12.044  67.746  1.00  0.00    -0.187 N  
HETATM   18  O   UNK A   1     -11.140  10.360  67.720  1.00  0.00    -0.295 OA 
BRANCH  17  19
ATOM     19  CA  GLY A   2     -10.250  12.805  66.679  1.00  0.00    -0.238 C  
ATOM     20  C   GLY A   2     -10.297  14.309  66.940  1.00  0.00    -0.268 C  
ATOM     21  O   GLY A   2      -9.723  14.674  68.112  1.00  0.00    -0.210 OA 
ATOM     22  OXT GLY A   2     -10.836  15.113  66.194  1.00  0.00    -0.320 OA 
ENDBRANCH  17  19
ENDBRANCH  14  15
BRANCH  14  23
HETATM   23  C   UNK A   1      -8.035   9.904  69.009  1.00  0.00    -0.101 C  
HETATM   24  S   UNK A   1      -6.674  10.512  70.057  1.00  0.00    -0.147 SA 
HETATM   25  H   UNK A   1      -5.393  10.171  69.641  1.00  0.00     0.000 H  
ENDBRANCH  14  23
ENDBRANCH  12  14
ENDBRANCH   9  10
ENDBRANCH   8   9
ENDBRANCH   2   8
TORSDOF 7
ENDMDL
MODEL      261
REMARK 921   NORMALIZED FREE ENERGY PREDICTED BY IDOCK:   -3.33 KCAL/MOL
REMARK 922        TOTAL FREE ENERGY PREDICTED BY IDOCK:   -5.25 KCAL/MOL
REMARK 923 INTER-LIGAND FREE ENERGY PREDICTED BY IDOCK:   -6.22 KCAL/MOL
REMARK 924 INTRA-LIGAND FREE ENERGY PREDICTED BY IDOCK:    0.97 KCAL/MOL
REMARK 927      BINDING AFFINITY PREDICTED BY RF-SCORE:    0.00 PKD
ROOT
HETATM    1  N   UNK A   1     -12.270  15.939  63.841  1.00  0.00    -1.148 NA 
HETATM    2  C   UNK A   1     -11.688  14.689  64.411  1.00  0.00    -0.346 C  
HETATM    3  H2  UNK A   1     -13.192  15.763  63.442  1.00  0.00     0.000 HD 
HETATM    4  H1  UNK A   1     -12.304  16.705  64.514  1.00  0.00     0.000 HD 
HETATM    5  O   UNK A   1     -10.012  16.323  64.906  1.00  0.00    -0.301 OA 
HETATM    6  C   UNK A   1     -10.290  14.996  64.978  1.00  0.00    -0.357 C  
HETATM    7  O   UNK A   1      -9.510  14.164  65.413  1.00  0.00    -0.048 OA 
ENDROOT
BRANCH   2   8
HETATM    8  C   UNK A   1     -11.636  13.540  63.400  1.00  0.00     0.049 C  
BRANCH   8   9
HETATM    9  C   UNK A   1     -12.222  12.219  63.908  1.00  0.00    -0.608 C  
BRANCH   9  10
HETATM   10  C   UNK A   1     -11.346  11.650  65.000  1.00  0.00    -0.170 C  
HETATM   11  O   UNK A   1     -10.403  10.901  64.762  1.00  0.00    -0.308 OA 
HETATM   12  N   UNK A   1     -11.669  12.058  66.268  1.00  0.00    -0.325 N  
HETATM   13  H   UNK A   1     -12.464  12.683  66.401  1.00  0.00     0.000 HD 
BRANCH  12  14
HETATM   14  C   UNK A   1     -10.907  11.622  67.434  1.00  0.00    -0.250 C  
BRANCH  14  15
HETATM   15  C   UNK A   1     -10.368  12.878  68.144  1.00  0.00    -0.240 C  
ATOM     16  H   GLY A   2     -12.197  13.110  69.128  1.00  0.00     0.000 HD 
ATOM     17  N   GLY A   2     -11.281  13.526  68.960  1.00  0.00    -0.261 N  
HETATM   18  O   UNK A   1      -9.192  13.225  68.065  1.00  0.00    -0.202 OA 
BRANCH  17  19
ATOM     19  CA  GLY A   2     -10.935  14.811  69.582  1.00  0.00    -0.261 C  
ATOM     20  C   GLY A   2     -11.731  15.108  70.852  1.00  0.00    -0.332 C  
ATOM     21  O   GLY A   2     -12.619  14.138  71.174  1.00  0.00    -0.324 OA 
ATOM     22  OXT GLY A   2     -11.621  16.139  71.499  1.00  0.00    -0.450 OA 
ENDBRANCH  17  19
ENDBRANCH  14  15
BRANCH  14  23
HETATM   23  C   UNK A   1      -9.694  10.748  67.079  1.00  0.00    -0.176 C  
HETATM   24  S   UNK A   1      -9.760   9.025  67.667  1.00  0.00    -0.165 SA 
HETATM   25  H   UNK A   1      -8.663   8.234  67.346  1.00  0.00     0.000 H  
ENDBRANCH  14  23
ENDBRANCH  12  14
ENDBRANCH   9  10
ENDBRANCH   8   9
ENDBRANCH   2   8
TORSDOF 7
ENDMDL
MODEL      262
REMARK 921   NORMALIZED FREE ENERGY PREDICTED BY IDOCK:   -3.31 KCAL/MOL
REMARK 922        TOTAL FREE ENERGY PREDICTED BY IDOCK:   -5.23 KCAL/MOL
REMARK 923 INTER-LIGAND FREE ENERGY PREDICTED BY IDOCK:   -4.44 KCAL/MOL
REMARK 924 INTRA-LIGAND FREE ENERGY PREDICTED BY IDOCK:   -0.78 KCAL/MOL
REMARK 927      BINDING AFFINITY PREDICTED BY RF-SCORE:    0.00 PKD
ROOT
HETATM    1  N   UNK A   1      -9.090   4.764  74.527  1.00  0.00    -0.110 NA 
HETATM    2  C   UNK A   1     -10.240   5.684  74.288  1.00  0.00    -0.278 C  
HETATM    3  H2  UNK A   1      -8.494   5.112  75.277  1.00  0.00     0.000 HD 
HETATM    4  H1  UNK A   1      -9.381   3.803  74.708  1.00  0.00     0.000 HD 
HETATM    5  O   UNK A   1     -10.643   3.921  72.722  1.00  0.00    -0.171 OA 
HETATM    6  C   UNK A   1     -11.096   5.133  73.134  1.00  0.00    -0.326 C  
HETATM    7  O   UNK A   1     -12.044   5.710  72.624  1.00  0.00    -0.212 OA 
ENDROOT
BRANCH   2   8
HETATM    8  C   UNK A   1      -9.803   7.127  74.015  1.00  0.00    -0.314 C  
BRANCH   8   9
HETATM    9  C   UNK A   1      -8.294   7.308  73.827  1.00  0.00    -0.180 C  
BRANCH   9  10
HETATM   10  C   UNK A   1      -8.010   7.917  72.474  1.00  0.00    -0.120 C  
HETATM   11  O   UNK A   1      -7.289   8.902  72.336  1.00  0.00    -0.335 OA 
HETATM   12  N   UNK A   1      -8.593   7.270  71.417  1.00  0.00    -0.115 N  
HETATM   13  H   UNK A   1      -9.180   6.455  71.597  1.00  0.00     0.000 HD 
BRANCH  12  14
HETATM   14  C   UNK A   1      -8.398   7.712  70.040  1.00  0.00    -0.134 C  
BRANCH  14  15
HETATM   15  C   UNK A   1      -9.656   8.489  69.609  1.00  0.00    -0.170 C  
ATOM     16  H   GLY A   2      -9.043  10.124  70.758  1.00  0.00     0.000 HD 
ATOM     17  N   GLY A   2      -9.794   9.742  70.181  1.00  0.00    -0.253 N  
HETATM   18  O   UNK A   1     -10.429   8.067  68.752  1.00  0.00    -0.208 OA 
BRANCH  17  19
ATOM     19  CA  GLY A   2     -11.017  10.526  69.962  1.00  0.00    -0.286 C  
ATOM     20  C   GLY A   2     -12.053  10.364  71.073  1.00  0.00    -0.385 C  
ATOM     21  O   GLY A   2     -11.663   9.523  72.060  1.00  0.00    -0.331 OA 
ATOM     22  OXT GLY A   2     -13.151  10.901  71.063  1.00  0.00    -0.331 OA 
ENDBRANCH  17  19
ENDBRANCH  14  15
BRANCH  14  23
HETATM   23  C   UNK A   1      -8.220   6.554  69.046  1.00  0.00    -0.116 C  
HETATM   24  S   UNK A   1      -7.894   4.919  69.784  1.00  0.00    -0.067 SA 
HETATM   25  H   UNK A   1      -7.733   3.872  68.885  1.00  0.00     0.000 H  
ENDBRANCH  14  23
ENDBRANCH  12  14
ENDBRANCH   9  10
ENDBRANCH   8   9
ENDBRANCH   2   8
TORSDOF 7
ENDMDL
MODEL      263
REMARK 921   NORMALIZED FREE ENERGY PREDICTED BY IDOCK:   -3.31 KCAL/MOL
REMARK 922        TOTAL FREE ENERGY PREDICTED BY IDOCK:   -5.23 KCAL/MOL
REMARK 923 INTER-LIGAND FREE ENERGY PREDICTED BY IDOCK:   -4.57 KCAL/MOL
REMARK 924 INTRA-LIGAND FREE ENERGY PREDICTED BY IDOCK:   -0.66 KCAL/MOL
REMARK 927      BINDING AFFINITY PREDICTED BY RF-SCORE:    0.00 PKD
ROOT
HETATM    1  N   UNK A   1      -9.737  12.586  68.053  1.00  0.00    -0.209 NA 
HETATM    2  C   UNK A   1      -9.795  12.053  66.660  1.00  0.00    -0.204 C  
HETATM    3  H2  UNK A   1      -9.495  11.850  68.716  1.00  0.00     0.000 HD 
HETATM    4  H1  UNK A   1      -9.109  13.383  68.148  1.00  0.00     0.000 HD 
HETATM    5  O   UNK A   1     -10.268  14.378  66.354  1.00  0.00    -0.274 OA 
HETATM    6  C   UNK A   1     -10.187  13.190  65.700  1.00  0.00    -0.286 C  
HETATM    7  O   UNK A   1     -10.426  13.055  64.511  1.00  0.00    -0.359 OA 
ENDROOT
BRANCH   2   8
HETATM    8  C   UNK A   1     -10.740  10.856  66.518  1.00  0.00    -0.270 C  
BRANCH   8   9
HETATM    9  C   UNK A   1     -11.487  10.480  67.801  1.00  0.00    -0.143 C  
BRANCH   9  10
HETATM   10  C   UNK A   1     -10.667   9.503  68.611  1.00  0.00    -0.184 C  
HETATM   11  O   UNK A   1      -9.955   9.860  69.546  1.00  0.00    -0.195 OA 
HETATM   12  N   UNK A   1     -10.803   8.191  68.240  1.00  0.00    -0.441 N  
HETATM   13  H   UNK A   1     -11.412   7.958  67.455  1.00  0.00     0.000 HD 
BRANCH  12  14
HETATM   14  C   UNK A   1     -10.101   7.117  68.936  1.00  0.00    -0.177 C  
BRANCH  14  15
HETATM   15  C   UNK A   1      -9.338   6.289  67.884  1.00  0.00    -0.114 C  
ATOM     16  H   GLY A   2     -11.127   5.379  67.301  1.00  0.00     0.000 HD 
ATOM     17  N   GLY A   2     -10.114   5.387  67.175  1.00  0.00    -0.176 N  
HETATM   18  O   UNK A   1      -8.152   6.481  67.630  1.00  0.00    -0.115 OA 
BRANCH  17  19
ATOM     19  CA  GLY A   2      -9.484   4.441  66.244  1.00  0.00    -0.174 C  
ATOM     20  C   GLY A   2      -9.225   3.065  66.854  1.00  0.00    -0.152 C  
ATOM     21  O   GLY A   2      -9.616   2.963  68.147  1.00  0.00    -0.189 OA 
ATOM     22  OXT GLY A   2      -8.678   2.149  66.259  1.00  0.00    -0.108 OA 
ENDBRANCH  17  19
ENDBRANCH  14  15
BRANCH  14  23
HETATM   23  C   UNK A   1     -11.042   6.152  69.674  1.00  0.00    -0.419 C  
HETATM   24  S   UNK A   1     -11.932   6.850  71.102  1.00  0.00    -0.378 SA 
HETATM   25  H   UNK A   1     -12.783   5.977  71.770  1.00  0.00     0.000 H  
ENDBRANCH  14  23
ENDBRANCH  12  14
ENDBRANCH   9  10
ENDBRANCH   8   9
ENDBRANCH   2   8
TORSDOF 7
ENDMDL
MODEL      264
REMARK 921   NORMALIZED FREE ENERGY PREDICTED BY IDOCK:   -3.30 KCAL/MOL
REMARK 922        TOTAL FREE ENERGY PREDICTED BY IDOCK:   -5.22 KCAL/MOL
REMARK 923 INTER-LIGAND FREE ENERGY PREDICTED BY IDOCK:   -5.57 KCAL/MOL
REMARK 924 INTRA-LIGAND FREE ENERGY PREDICTED BY IDOCK:    0.35 KCAL/MOL
REMARK 927      BINDING AFFINITY PREDICTED BY RF-SCORE:    0.00 PKD
ROOT
HETATM    1  N   UNK A   1     -12.113  14.402  67.384  1.00  0.00    -0.588 NA 
HETATM    2  C   UNK A   1     -11.351  13.476  66.495  1.00  0.00    -0.319 C  
HETATM    3  H2  UNK A   1     -11.620  14.551  68.264  1.00  0.00     0.000 HD 
HETATM    4  H1  UNK A   1     -12.335  15.290  66.935  1.00  0.00     0.000 HD 
HETATM    5  O   UNK A   1     -13.252  14.044  65.158  1.00  0.00    -0.768 OA 
HETATM    6  C   UNK A   1     -12.143  13.261  65.193  1.00  0.00    -0.413 C  
HETATM    7  O   UNK A   1     -11.844  12.472  64.311  1.00  0.00    -0.347 OA 
ENDROOT
BRANCH   2   8
HETATM    8  C   UNK A   1     -11.019  12.141  67.170  1.00  0.00    -0.316 C  
BRANCH   8   9
HETATM    9  C   UNK A   1     -10.559  12.262  68.625  1.00  0.00    -0.249 C  
BRANCH   9  10
HETATM   10  C   UNK A   1     -11.210  11.189  69.466  1.00  0.00    -0.277 C  
HETATM   11  O   UNK A   1     -12.427  11.034  69.504  1.00  0.00    -0.293 OA 
HETATM   12  N   UNK A   1     -10.337  10.389  70.156  1.00  0.00    -0.438 N  
HETATM   13  H   UNK A   1      -9.336  10.568  70.082  1.00  0.00     0.000 HD 
BRANCH  12  14
HETATM   14  C   UNK A   1     -10.800   9.287  70.993  1.00  0.00    -0.314 C  
BRANCH  14  15
HETATM   15  C   UNK A   1      -9.631   8.299  71.166  1.00  0.00    -0.163 C  
ATOM     16  H   GLY A   2      -9.007   9.333  72.872  1.00  0.00     0.000 HD 
ATOM     17  N   GLY A   2      -8.780   8.580  72.222  1.00  0.00    -0.208 N  
HETATM   18  O   UNK A   1      -9.517   7.288  70.478  1.00  0.00    -0.165 OA 
BRANCH  17  19
ATOM     19  CA  GLY A   2      -7.551   7.797  72.410  1.00  0.00    -0.089 C  
ATOM     20  C   GLY A   2      -6.283   8.542  71.995  1.00  0.00    -0.069 C  
ATOM     21  O   GLY A   2      -6.518   9.789  71.523  1.00  0.00    -0.308 OA 
ATOM     22  OXT GLY A   2      -5.163   8.056  72.039  1.00  0.00    -0.035 OA 
ENDBRANCH  17  19
ENDBRANCH  14  15
BRANCH  14  23
HETATM   23  C   UNK A   1     -11.968   8.501  70.378  1.00  0.00     0.172 C  
HETATM   24  S   UNK A   1     -12.612   7.123  71.381  1.00  0.00    -0.382 SA 
HETATM   25  H   UNK A   1     -13.669   6.412  70.824  1.00  0.00     0.000 H  
ENDBRANCH  14  23
ENDBRANCH  12  14
ENDBRANCH   9  10
ENDBRANCH   8   9
ENDBRANCH   2   8
TORSDOF 7
ENDMDL
MODEL      265
REMARK 921   NORMALIZED FREE ENERGY PREDICTED BY IDOCK:   -3.30 KCAL/MOL
REMARK 922        TOTAL FREE ENERGY PREDICTED BY IDOCK:   -5.21 KCAL/MOL
REMARK 923 INTER-LIGAND FREE ENERGY PREDICTED BY IDOCK:   -5.34 KCAL/MOL
REMARK 924 INTRA-LIGAND FREE ENERGY PREDICTED BY IDOCK:    0.13 KCAL/MOL
REMARK 927      BINDING AFFINITY PREDICTED BY RF-SCORE:    0.00 PKD
ROOT
HETATM    1  N   UNK A   1     -11.597  16.641  70.853  1.00  0.00    -0.469 NA 
HETATM    2  C   UNK A   1     -12.370  15.369  70.736  1.00  0.00    -0.396 C  
HETATM    3  H2  UNK A   1     -11.220  16.923  69.948  1.00  0.00     0.000 HD 
HETATM    4  H1  UNK A   1     -12.137  17.396  71.275  1.00  0.00     0.000 HD 
HETATM    5  O   UNK A   1     -12.614  15.922  73.050  1.00  0.00    -0.413 OA 
HETATM    6  C   UNK A   1     -12.897  14.969  72.125  1.00  0.00    -0.335 C  
HETATM    7  O   UNK A   1     -13.470  13.924  72.386  1.00  0.00    -0.468 OA 
ENDROOT
BRANCH   2   8
HETATM    8  C   UNK A   1     -11.559  14.234  70.103  1.00  0.00    -0.312 C  
BRANCH   8   9
HETATM    9  C   UNK A   1     -12.191  12.846  70.242  1.00  0.00    -0.362 C  
BRANCH   9  10
HETATM   10  C   UNK A   1     -11.599  11.902  69.222  1.00  0.00    -0.315 C  
HETATM   11  O   UNK A   1     -12.264  11.421  68.309  1.00  0.00    -0.588 OA 
HETATM   12  N   UNK A   1     -10.262  11.649  69.380  1.00  0.00    -0.411 N  
HETATM   13  H   UNK A   1      -9.764  12.080  70.159  1.00  0.00     0.000 HD 
BRANCH  12  14
HETATM   14  C   UNK A   1      -9.529  10.779  68.465  1.00  0.00    -0.181 C  
BRANCH  14  15
HETATM   15  C   UNK A   1      -9.205   9.471  69.211  1.00  0.00    -0.169 C  
ATOM     16  H   GLY A   2      -9.908   8.366  67.583  1.00  0.00     0.000 HD 
ATOM     17  N   GLY A   2      -9.558   8.312  68.540  1.00  0.00    -0.147 N  
HETATM   18  O   UNK A   1      -8.596   9.455  70.278  1.00  0.00    -0.184 OA 
BRANCH  17  19
ATOM     19  CA  GLY A   2      -9.430   7.006  69.201  1.00  0.00    -0.143 C  
ATOM     20  C   GLY A   2      -8.385   6.096  68.557  1.00  0.00    -0.114 C  
ATOM     21  O   GLY A   2      -7.767   6.652  67.488  1.00  0.00    -0.105 OA 
ATOM     22  OXT GLY A   2      -8.151   4.957  68.932  1.00  0.00    -0.082 OA 
ENDBRANCH  17  19
ENDBRANCH  14  15
BRANCH  14  23
HETATM   23  C   UNK A   1      -8.192  11.375  67.996  1.00  0.00    -0.140 C  
HETATM   24  S   UNK A   1      -7.862  11.269  66.207  1.00  0.00    -0.005 SA 
HETATM   25  H   UNK A   1      -6.654  11.808  65.783  1.00  0.00     0.000 H  
ENDBRANCH  14  23
ENDBRANCH  12  14
ENDBRANCH   9  10
ENDBRANCH   8   9
ENDBRANCH   2   8
TORSDOF 7
ENDMDL
MODEL      266
REMARK 921   NORMALIZED FREE ENERGY PREDICTED BY IDOCK:   -3.29 KCAL/MOL
REMARK 922        TOTAL FREE ENERGY PREDICTED BY IDOCK:   -5.20 KCAL/MOL
REMARK 923 INTER-LIGAND FREE ENERGY PREDICTED BY IDOCK:   -4.67 KCAL/MOL
REMARK 924 INTRA-LIGAND FREE ENERGY PREDICTED BY IDOCK:   -0.54 KCAL/MOL
REMARK 927      BINDING AFFINITY PREDICTED BY RF-SCORE:    0.00 PKD
ROOT
HETATM    1  N   UNK A   1      -9.486   4.075  68.653  1.00  0.00    -0.160 NA 
HETATM    2  C   UNK A   1     -10.144   5.415  68.686  1.00  0.00    -0.179 C  
HETATM    3  H2  UNK A   1      -9.163   3.805  69.581  1.00  0.00     0.000 HD 
HETATM    4  H1  UNK A   1     -10.080   3.351  68.248  1.00  0.00     0.000 HD 
HETATM    5  O   UNK A   1     -10.371   4.774  66.392  1.00  0.00    -0.263 OA 
HETATM    6  C   UNK A   1     -10.593   5.792  67.263  1.00  0.00    -0.279 C  
HETATM    7  O   UNK A   1     -11.062   6.871  66.936  1.00  0.00    -0.379 OA 
ENDROOT
BRANCH   2   8
HETATM    8  C   UNK A   1      -9.253   6.502  69.293  1.00  0.00    -0.139 C  
BRANCH   8   9
HETATM    9  C   UNK A   1      -9.978   7.463  70.241  1.00  0.00    -0.188 C  
BRANCH   9  10
HETATM   10  C   UNK A   1      -9.170   8.728  70.415  1.00  0.00    -0.180 C  
HETATM   11  O   UNK A   1      -8.876   9.171  71.521  1.00  0.00    -0.330 OA 
HETATM   12  N   UNK A   1      -8.770   9.321  69.246  1.00  0.00    -0.136 N  
HETATM   13  H   UNK A   1      -9.046   8.902  68.358  1.00  0.00     0.000 HD 
BRANCH  12  14
HETATM   14  C   UNK A   1      -7.961  10.535  69.237  1.00  0.00    -0.154 C  
BRANCH  14  15
HETATM   15  C   UNK A   1      -8.641  11.552  68.301  1.00  0.00    -0.161 C  
ATOM     16  H   GLY A   2      -9.812  10.023  67.488  1.00  0.00     0.000 HD 
ATOM     17  N   GLY A   2      -9.560  11.009  67.418  1.00  0.00    -0.163 N  
HETATM   18  O   UNK A   1      -8.451  12.762  68.394  1.00  0.00    -0.164 OA 
BRANCH  17  19
ATOM     19  CA  GLY A   2     -10.174  11.849  66.380  1.00  0.00    -0.209 C  
ATOM     20  C   GLY A   2     -11.636  12.192  66.658  1.00  0.00    -0.350 C  
ATOM     21  O   GLY A   2     -12.109  11.656  67.809  1.00  0.00    -0.613 OA 
ATOM     22  OXT GLY A   2     -12.337  12.849  65.903  1.00  0.00    -0.493 OA 
ENDBRANCH  17  19
ENDBRANCH  14  15
BRANCH  14  23
HETATM   23  C   UNK A   1      -6.536  10.314  68.705  1.00  0.00    -0.052 C  
HETATM   24  S   UNK A   1      -6.363  10.290  66.891  1.00  0.00    -0.073 SA 
HETATM   25  H   UNK A   1      -5.075  10.090  66.410  1.00  0.00     0.000 H  
ENDBRANCH  14  23
ENDBRANCH  12  14
ENDBRANCH   9  10
ENDBRANCH   8   9
ENDBRANCH   2   8
TORSDOF 7
ENDMDL
MODEL      267
REMARK 921   NORMALIZED FREE ENERGY PREDICTED BY IDOCK:   -3.28 KCAL/MOL
REMARK 922        TOTAL FREE ENERGY PREDICTED BY IDOCK:   -5.19 KCAL/MOL
REMARK 923 INTER-LIGAND FREE ENERGY PREDICTED BY IDOCK:   -4.92 KCAL/MOL
REMARK 924 INTRA-LIGAND FREE ENERGY PREDICTED BY IDOCK:   -0.27 KCAL/MOL
REMARK 927      BINDING AFFINITY PREDICTED BY RF-SCORE:    0.00 PKD
ROOT
HETATM    1  N   UNK A   1     -11.230  12.169  68.241  1.00  0.00    -0.245 NA 
HETATM    2  C   UNK A   1     -10.106  11.271  67.845  1.00  0.00    -0.178 C  
HETATM    3  H2  UNK A   1     -11.786  11.751  68.987  1.00  0.00     0.000 HD 
HETATM    4  H1  UNK A   1     -10.918  13.105  68.500  1.00  0.00     0.000 HD 
HETATM    5  O   UNK A   1      -9.775  13.179  66.441  1.00  0.00    -0.261 OA 
HETATM    6  C   UNK A   1      -9.312  11.930  66.703  1.00  0.00    -0.205 C  
HETATM    7  O   UNK A   1      -8.403  11.402  66.083  1.00  0.00    -0.155 OA 
ENDROOT
BRANCH   2   8
HETATM    8  C   UNK A   1     -10.574   9.865  67.457  1.00  0.00    -0.333 C  
BRANCH   8   9
HETATM    9  C   UNK A   1      -9.813   8.729  68.146  1.00  0.00    -0.194 C  
BRANCH   9  10
HETATM   10  C   UNK A   1     -10.122   8.721  69.625  1.00  0.00    -0.204 C  
HETATM   11  O   UNK A   1      -9.557   9.470  70.417  1.00  0.00    -0.244 OA 
HETATM   12  N   UNK A   1     -11.097   7.837  70.005  1.00  0.00    -0.384 N  
HETATM   13  H   UNK A   1     -11.531   7.243  69.298  1.00  0.00     0.000 HD 
BRANCH  12  14
HETATM   14  C   UNK A   1     -11.534   7.723  71.393  1.00  0.00    -0.260 C  
BRANCH  14  15
HETATM   15  C   UNK A   1     -10.412   7.028  72.187  1.00  0.00    -0.209 C  
ATOM     16  H   GLY A   2     -10.510   8.529  73.640  1.00  0.00     0.000 HD 
ATOM     17  N   GLY A   2     -10.006   7.697  73.330  1.00  0.00    -0.313 N  
HETATM   18  O   UNK A   1      -9.976   5.921  71.881  1.00  0.00    -0.168 OA 
BRANCH  17  19
ATOM     19  CA  GLY A   2      -8.851   7.213  74.099  1.00  0.00    -0.210 C  
ATOM     20  C   GLY A   2      -7.544   7.921  73.748  1.00  0.00    -0.155 C  
ATOM     21  O   GLY A   2      -7.680   8.864  72.786  1.00  0.00    -0.366 OA 
ATOM     22  OXT GLY A   2      -6.464   7.643  74.247  1.00  0.00    -0.086 OA 
ENDBRANCH  17  19
ENDBRANCH  14  15
BRANCH  14  23
HETATM   23  C   UNK A   1     -12.802   6.872  71.565  1.00  0.00    -0.333 C  
HETATM   24  S   UNK A   1     -14.378   7.787  71.559  1.00  0.00    -0.416 SA 
HETATM   25  H   UNK A   1     -15.525   7.017  71.715  1.00  0.00     0.000 H  
ENDBRANCH  14  23
ENDBRANCH  12  14
ENDBRANCH   9  10
ENDBRANCH   8   9
ENDBRANCH   2   8
TORSDOF 7
ENDMDL
MODEL      268
REMARK 921   NORMALIZED FREE ENERGY PREDICTED BY IDOCK:   -3.28 KCAL/MOL
REMARK 922        TOTAL FREE ENERGY PREDICTED BY IDOCK:   -5.19 KCAL/MOL
REMARK 923 INTER-LIGAND FREE ENERGY PREDICTED BY IDOCK:   -4.43 KCAL/MOL
REMARK 924 INTRA-LIGAND FREE ENERGY PREDICTED BY IDOCK:   -0.76 KCAL/MOL
REMARK 927      BINDING AFFINITY PREDICTED BY RF-SCORE:    0.00 PKD
ROOT
HETATM    1  N   UNK A   1      -9.183   8.668  66.323  1.00  0.00    -0.187 NA 
HETATM    2  C   UNK A   1     -10.375   9.552  66.481  1.00  0.00    -0.193 C  
HETATM    3  H2  UNK A   1      -9.309   7.791  66.828  1.00  0.00     0.000 HD 
HETATM    4  H1  UNK A   1      -8.943   8.495  65.347  1.00  0.00     0.000 HD 
HETATM    5  O   UNK A   1      -8.959  10.831  65.039  1.00  0.00    -0.195 OA 
HETATM    6  C   UNK A   1     -10.130  10.870  65.726  1.00  0.00    -0.252 C  
HETATM    7  O   UNK A   1     -10.866  11.843  65.753  1.00  0.00    -0.277 OA 
ENDROOT
BRANCH   2   8
HETATM    8  C   UNK A   1     -10.735   9.811  67.948  1.00  0.00    -0.312 C  
BRANCH   8   9
HETATM    9  C   UNK A   1      -9.534  10.096  68.855  1.00  0.00    -0.183 C  
BRANCH   9  10
HETATM   10  C   UNK A   1      -9.657   9.310  70.139  1.00  0.00    -0.220 C  
HETATM   11  O   UNK A   1      -8.848   9.420  71.056  1.00  0.00    -0.250 OA 
HETATM   12  N   UNK A   1     -10.752   8.490  70.210  1.00  0.00    -0.228 N  
HETATM   13  H   UNK A   1     -11.390   8.444  69.415  1.00  0.00     0.000 HD 
BRANCH  12  14
HETATM   14  C   UNK A   1     -11.034   7.682  71.392  1.00  0.00    -0.231 C  
BRANCH  14  15
HETATM   15  C   UNK A   1     -10.320   6.327  71.221  1.00  0.00    -0.212 C  
ATOM     16  H   GLY A   2     -10.862   6.294  69.203  1.00  0.00     0.000 HD 
ATOM     17  N   GLY A   2     -10.425   5.766  69.959  1.00  0.00    -0.256 N  
HETATM   18  O   UNK A   1      -9.633   5.829  72.110  1.00  0.00    -0.150 OA 
BRANCH  17  19
ATOM     19  CA  GLY A   2      -9.908   4.414  69.706  1.00  0.00    -0.214 C  
ATOM     20  C   GLY A   2      -8.758   4.379  68.701  1.00  0.00    -0.095 C  
ATOM     21  O   GLY A   2      -8.422   5.599  68.218  1.00  0.00    -0.105 OA 
ATOM     22  OXT GLY A   2      -8.213   3.352  68.326  1.00  0.00    -0.076 OA 
ENDBRANCH  17  19
ENDBRANCH  14  15
BRANCH  14  23
HETATM   23  C   UNK A   1     -12.529   7.382  71.585  1.00  0.00    -0.349 C  
HETATM   24  S   UNK A   1     -13.576   8.813  72.007  1.00  0.00    -0.449 SA 
HETATM   25  H   UNK A   1     -14.927   8.542  72.182  1.00  0.00     0.000 H  
ENDBRANCH  14  23
ENDBRANCH  12  14
ENDBRANCH   9  10
ENDBRANCH   8   9
ENDBRANCH   2   8
TORSDOF 7
ENDMDL
MODEL      269
REMARK 921   NORMALIZED FREE ENERGY PREDICTED BY IDOCK:   -3.28 KCAL/MOL
REMARK 922        TOTAL FREE ENERGY PREDICTED BY IDOCK:   -5.19 KCAL/MOL
REMARK 923 INTER-LIGAND FREE ENERGY PREDICTED BY IDOCK:   -4.53 KCAL/MOL
REMARK 924 INTRA-LIGAND FREE ENERGY PREDICTED BY IDOCK:   -0.66 KCAL/MOL
REMARK 927      BINDING AFFINITY PREDICTED BY RF-SCORE:    0.00 PKD
ROOT
HETATM    1  N   UNK A   1      -8.809   5.973  74.474  1.00  0.00    -0.125 NA 
HETATM    2  C   UNK A   1      -9.834   6.908  73.922  1.00  0.00    -0.307 C  
HETATM    3  H2  UNK A   1      -8.189   6.455  75.124  1.00  0.00     0.000 HD 
HETATM    4  H1  UNK A   1      -9.219   5.146  74.908  1.00  0.00     0.000 HD 
HETATM    5  O   UNK A   1     -10.422   4.822  72.908  1.00  0.00    -0.181 OA 
HETATM    6  C   UNK A   1     -10.731   6.145  72.931  1.00  0.00    -0.247 C  
HETATM    7  O   UNK A   1     -11.591   6.651  72.228  1.00  0.00    -0.272 OA 
ENDROOT
BRANCH   2   8
HETATM    8  C   UNK A   1      -9.219   8.150  73.271  1.00  0.00    -0.316 C  
BRANCH   8   9
HETATM    9  C   UNK A   1      -7.946   7.880  72.464  1.00  0.00    -0.157 C  
BRANCH   9  10
HETATM   10  C   UNK A   1      -7.975   8.664  71.172  1.00  0.00    -0.138 C  
HETATM   11  O   UNK A   1      -7.309   9.683  71.009  1.00  0.00    -0.321 OA 
HETATM   12  N   UNK A   1      -8.775   8.135  70.195  1.00  0.00    -0.129 N  
HETATM   13  H   UNK A   1      -9.303   7.284  70.392  1.00  0.00     0.000 HD 
BRANCH  12  14
HETATM   14  C   UNK A   1      -8.895   8.754  68.879  1.00  0.00    -0.137 C  
BRANCH  14  15
HETATM   15  C   UNK A   1     -10.135   9.669  68.896  1.00  0.00    -0.187 C  
ATOM     16  H   GLY A   2      -9.448  10.635  67.175  1.00  0.00     0.000 HD 
ATOM     17  N   GLY A   2     -10.163  10.634  67.903  1.00  0.00    -0.171 N  
HETATM   18  O   UNK A   1     -11.070   9.496  69.674  1.00  0.00    -0.234 OA 
BRANCH  17  19
ATOM     19  CA  GLY A   2     -11.218  11.656  67.894  1.00  0.00    -0.269 C  
ATOM     20  C   GLY A   2     -11.625  12.100  66.490  1.00  0.00    -0.359 C  
ATOM     21  O   GLY A   2     -10.937  11.479  65.503  1.00  0.00    -0.284 OA 
ATOM     22  OXT GLY A   2     -12.459  12.965  66.265  1.00  0.00    -0.453 OA 
ENDBRANCH  17  19
ENDBRANCH  14  15
BRANCH  14  23
HETATM   23  C   UNK A   1      -9.099   7.739  67.743  1.00  0.00    -0.134 C  
HETATM   24  S   UNK A   1      -7.596   6.889  67.161  1.00  0.00    -0.109 SA 
HETATM   25  H   UNK A   1      -7.781   5.971  66.134  1.00  0.00     0.000 H  
ENDBRANCH  14  23
ENDBRANCH  12  14
ENDBRANCH   9  10
ENDBRANCH   8   9
ENDBRANCH   2   8
TORSDOF 7
ENDMDL
MODEL      270
REMARK 921   NORMALIZED FREE ENERGY PREDICTED BY IDOCK:   -3.28 KCAL/MOL
REMARK 922        TOTAL FREE ENERGY PREDICTED BY IDOCK:   -5.19 KCAL/MOL
REMARK 923 INTER-LIGAND FREE ENERGY PREDICTED BY IDOCK:   -5.87 KCAL/MOL
REMARK 924 INTRA-LIGAND FREE ENERGY PREDICTED BY IDOCK:    0.68 KCAL/MOL
REMARK 927      BINDING AFFINITY PREDICTED BY RF-SCORE:    0.00 PKD
ROOT
HETATM    1  N   UNK A   1     -12.636  14.015  63.425  1.00  0.00    -1.030 NA 
HETATM    2  C   UNK A   1     -11.454  13.253  63.929  1.00  0.00    -0.362 C  
HETATM    3  H2  UNK A   1     -12.533  15.012  63.612  1.00  0.00     0.000 HD 
HETATM    4  H1  UNK A   1     -12.825  13.847  62.437  1.00  0.00     0.000 HD 
HETATM    5  O   UNK A   1     -12.797  11.543  62.931  1.00  0.00    -0.195 OA 
HETATM    6  C   UNK A   1     -11.663  11.755  63.648  1.00  0.00    -0.415 C  
HETATM    7  O   UNK A   1     -10.931  10.858  64.035  1.00  0.00    -0.215 OA 
ENDROOT
BRANCH   2   8
HETATM    8  C   UNK A   1     -11.171  13.505  65.413  1.00  0.00    -0.301 C  
BRANCH   8   9
HETATM    9  C   UNK A   1      -9.685  13.622  65.765  1.00  0.00    -0.162 C  
BRANCH   9  10
HETATM   10  C   UNK A   1      -9.310  15.073  65.957  1.00  0.00    -0.269 C  
HETATM   11  O   UNK A   1      -9.929  15.988  65.420  1.00  0.00    -0.445 OA 
HETATM   12  N   UNK A   1      -8.250  15.288  66.798  1.00  0.00    -0.313 N  
HETATM   13  H   UNK A   1      -7.777  14.486  67.215  1.00  0.00     0.000 HD 
BRANCH  12  14
HETATM   14  C   UNK A   1      -7.776  16.632  67.112  1.00  0.00    -0.180 C  
BRANCH  14  15
HETATM   15  C   UNK A   1      -8.511  17.109  68.380  1.00  0.00    -0.241 C  
ATOM     16  H   GLY A   2      -9.977  15.649  68.082  1.00  0.00     0.000 HD 
ATOM     17  N   GLY A   2      -9.700  16.452  68.648  1.00  0.00    -0.230 N  
HETATM   18  O   UNK A   1      -8.032  17.945  69.143  1.00  0.00    -0.119 OA 
BRANCH  17  19
ATOM     19  CA  GLY A   2     -10.564  16.906  69.746  1.00  0.00    -0.096 C  
ATOM     20  C   GLY A   2     -11.472  15.809  70.302  1.00  0.00    -0.359 C  
ATOM     21  O   GLY A   2     -11.323  14.615  69.679  1.00  0.00    -0.259 OA 
ATOM     22  OXT GLY A   2     -12.290  15.988  71.191  1.00  0.00    -0.422 OA 
ENDBRANCH  17  19
ENDBRANCH  14  15
BRANCH  14  23
HETATM   23  C   UNK A   1      -8.071  17.657  66.007  1.00  0.00    -0.113 C  
HETATM   24  S   UNK A   1      -6.631  18.580  65.377  1.00  0.00    -0.138 SA 
HETATM   25  H   UNK A   1      -6.898  19.508  64.377  1.00  0.00     0.000 H  
ENDBRANCH  14  23
ENDBRANCH  12  14
ENDBRANCH   9  10
ENDBRANCH   8   9
ENDBRANCH   2   8
TORSDOF 7
ENDMDL
MODEL      271
REMARK 921   NORMALIZED FREE ENERGY PREDICTED BY IDOCK:   -3.27 KCAL/MOL
REMARK 922        TOTAL FREE ENERGY PREDICTED BY IDOCK:   -5.17 KCAL/MOL
REMARK 923 INTER-LIGAND FREE ENERGY PREDICTED BY IDOCK:   -5.62 KCAL/MOL
REMARK 924 INTRA-LIGAND FREE ENERGY PREDICTED BY IDOCK:    0.45 KCAL/MOL
REMARK 927      BINDING AFFINITY PREDICTED BY RF-SCORE:    0.00 PKD
ROOT
HETATM    1  N   UNK A   1     -12.626  14.235  63.778  1.00  0.00    -0.953 NA 
HETATM    2  C   UNK A   1     -11.724  14.458  64.946  1.00  0.00    -0.408 C  
HETATM    3  H2  UNK A   1     -13.134  13.356  63.873  1.00  0.00     0.000 HD 
HETATM    4  H1  UNK A   1     -13.267  15.011  63.617  1.00  0.00     0.000 HD 
HETATM    5  O   UNK A   1     -11.386  16.431  63.636  1.00  0.00    -0.752 OA 
HETATM    6  C   UNK A   1     -10.961  15.780  64.749  1.00  0.00    -0.393 C  
HETATM    7  O   UNK A   1     -10.067  16.190  65.472  1.00  0.00    -0.435 OA 
ENDROOT
BRANCH   2   8
HETATM    8  C   UNK A   1     -10.761  13.292  65.188  1.00  0.00    -0.333 C  
BRANCH   8   9
HETATM    9  C   UNK A   1     -11.312  12.191  66.100  1.00  0.00    -0.414 C  
BRANCH   9  10
HETATM   10  C   UNK A   1     -10.183  11.539  66.865  1.00  0.00    -0.217 C  
HETATM   11  O   UNK A   1     -10.048  11.676  68.077  1.00  0.00    -0.179 OA 
HETATM   12  N   UNK A   1      -9.346  10.764  66.106  1.00  0.00    -0.177 N  
HETATM   13  H   UNK A   1      -9.512  10.689  65.103  1.00  0.00     0.000 HD 
BRANCH  12  14
HETATM   14  C   UNK A   1      -8.222  10.043  66.694  1.00  0.00    -0.122 C  
BRANCH  14  15
HETATM   15  C   UNK A   1      -8.142   8.659  66.021  1.00  0.00    -0.109 C  
ATOM     16  H   GLY A   2      -8.836   7.763  67.778  1.00  0.00     0.000 HD 
ATOM     17  N   GLY A   2      -8.473   7.592  66.840  1.00  0.00    -0.120 N  
HETATM   18  O   UNK A   1      -7.894   8.522  64.826  1.00  0.00    -0.110 OA 
BRANCH  17  19
ATOM     19  CA  GLY A   2      -8.303   6.213  66.361  1.00  0.00    -0.120 C  
ATOM     20  C   GLY A   2      -9.615   5.438  66.255  1.00  0.00    -0.160 C  
ATOM     21  O   GLY A   2     -10.701   6.157  66.627  1.00  0.00    -0.273 OA 
ATOM     22  OXT GLY A   2      -9.688   4.267  65.912  1.00  0.00    -0.175 OA 
ENDBRANCH  17  19
ENDBRANCH  14  15
BRANCH  14  23
HETATM   23  C   UNK A   1      -8.373   9.802  68.204  1.00  0.00    -0.110 C  
HETATM   24  S   UNK A   1      -6.851   9.973  69.191  1.00  0.00    -0.061 SA 
HETATM   25  H   UNK A   1      -6.988   9.755  70.557  1.00  0.00     0.000 H  
ENDBRANCH  14  23
ENDBRANCH  12  14
ENDBRANCH   9  10
ENDBRANCH   8   9
ENDBRANCH   2   8
TORSDOF 7
ENDMDL
MODEL      272
REMARK 921   NORMALIZED FREE ENERGY PREDICTED BY IDOCK:   -3.24 KCAL/MOL
REMARK 922        TOTAL FREE ENERGY PREDICTED BY IDOCK:   -5.13 KCAL/MOL
REMARK 923 INTER-LIGAND FREE ENERGY PREDICTED BY IDOCK:   -4.32 KCAL/MOL
REMARK 924 INTRA-LIGAND FREE ENERGY PREDICTED BY IDOCK:   -0.81 KCAL/MOL
REMARK 927      BINDING AFFINITY PREDICTED BY RF-SCORE:    0.00 PKD
ROOT
HETATM    1  N   UNK A   1      -8.736   7.457  66.333  1.00  0.00    -0.136 NA 
HETATM    2  C   UNK A   1      -8.788   7.113  67.785  1.00  0.00    -0.124 C  
HETATM    3  H2  UNK A   1      -9.034   8.420  66.176  1.00  0.00     0.000 HD 
HETATM    4  H1  UNK A   1      -7.821   7.286  65.917  1.00  0.00     0.000 HD 
HETATM    5  O   UNK A   1      -7.946   5.104  66.797  1.00  0.00    -0.103 OA 
HETATM    6  C   UNK A   1      -8.356   5.648  67.972  1.00  0.00    -0.100 C  
HETATM    7  O   UNK A   1      -8.397   5.032  69.025  1.00  0.00    -0.086 OA 
ENDROOT
BRANCH   2   8
HETATM    8  C   UNK A   1     -10.163   7.371  68.410  1.00  0.00    -0.207 C  
BRANCH   8   9
HETATM    9  C   UNK A   1     -10.121   8.093  69.760  1.00  0.00    -0.197 C  
BRANCH   9  10
HETATM   10  C   UNK A   1     -10.786   9.446  69.644  1.00  0.00    -0.228 C  
HETATM   11  O   UNK A   1     -11.522   9.892  70.520  1.00  0.00    -0.273 OA 
HETATM   12  N   UNK A   1     -10.481  10.142  68.505  1.00  0.00    -0.185 N  
HETATM   13  H   UNK A   1      -9.861   9.717  67.815  1.00  0.00     0.000 HD 
BRANCH  12  14
HETATM   14  C   UNK A   1     -11.017  11.475  68.250  1.00  0.00    -0.224 C  
BRANCH  14  15
HETATM   15  C   UNK A   1     -11.274  11.601  66.736  1.00  0.00    -0.308 C  
ATOM     16  H   GLY A   2      -9.738  10.235  66.359  1.00  0.00     0.000 HD 
ATOM     17  N   GLY A   2     -10.411  10.874  65.934  1.00  0.00    -0.245 N  
HETATM   18  O   UNK A   1     -12.229  12.226  66.281  1.00  0.00    -0.628 OA 
BRANCH  17  19
ATOM     19  CA  GLY A   2     -10.461  11.018  64.473  1.00  0.00    -0.342 C  
ATOM     20  C   GLY A   2      -9.163  10.616  63.775  1.00  0.00    -0.254 C  
ATOM     21  O   GLY A   2      -8.194  10.205  64.628  1.00  0.00    -0.155 OA 
ATOM     22  OXT GLY A   2      -8.985  10.695  62.569  1.00  0.00    -0.228 OA 
ENDBRANCH  17  19
ENDBRANCH  14  15
BRANCH  14  23
HETATM   23  C   UNK A   1     -10.052  12.606  68.640  1.00  0.00    -0.122 C  
HETATM   24  S   UNK A   1      -8.305  12.346  68.193  1.00  0.00    -0.180 SA 
HETATM   25  H   UNK A   1      -7.433  13.369  68.545  1.00  0.00     0.000 H  
ENDBRANCH  14  23
ENDBRANCH  12  14
ENDBRANCH   9  10
ENDBRANCH   8   9
ENDBRANCH   2   8
TORSDOF 7
ENDMDL
MODEL      273
REMARK 921   NORMALIZED FREE ENERGY PREDICTED BY IDOCK:   -3.24 KCAL/MOL
REMARK 922        TOTAL FREE ENERGY PREDICTED BY IDOCK:   -5.13 KCAL/MOL
REMARK 923 INTER-LIGAND FREE ENERGY PREDICTED BY IDOCK:   -4.70 KCAL/MOL
REMARK 924 INTRA-LIGAND FREE ENERGY PREDICTED BY IDOCK:   -0.43 KCAL/MOL
REMARK 927      BINDING AFFINITY PREDICTED BY RF-SCORE:    0.00 PKD
ROOT
HETATM    1  N   UNK A   1      -9.989  12.590  65.000  1.00  0.00    -0.436 NA 
HETATM    2  C   UNK A   1     -11.392  12.228  65.360  1.00  0.00    -0.343 C  
HETATM    3  H2  UNK A   1      -9.353  11.816  65.190  1.00  0.00     0.000 HD 
HETATM    4  H1  UNK A   1      -9.897  12.910  64.036  1.00  0.00     0.000 HD 
HETATM    5  O   UNK A   1     -11.627  14.444  64.490  1.00  0.00    -0.393 OA 
HETATM    6  C   UNK A   1     -12.311  13.430  65.081  1.00  0.00    -0.456 C  
HETATM    7  O   UNK A   1     -13.495  13.493  65.373  1.00  0.00    -0.467 OA 
ENDROOT
BRANCH   2   8
HETATM    8  C   UNK A   1     -11.531  11.747  66.808  1.00  0.00    -0.352 C  
BRANCH   8   9
HETATM    9  C   UNK A   1     -10.272  11.090  67.382  1.00  0.00    -0.229 C  
BRANCH   9  10
HETATM   10  C   UNK A   1     -10.555  10.547  68.764  1.00  0.00    -0.207 C  
HETATM   11  O   UNK A   1     -11.309  11.114  69.550  1.00  0.00    -0.244 OA 
HETATM   12  N   UNK A   1      -9.931   9.363  69.057  1.00  0.00    -0.171 N  
HETATM   13  H   UNK A   1      -9.318   8.940  68.360  1.00  0.00     0.000 HD 
BRANCH  12  14
HETATM   14  C   UNK A   1     -10.119   8.690  70.337  1.00  0.00    -0.188 C  
BRANCH  14  15
HETATM   15  C   UNK A   1      -8.937   7.723  70.543  1.00  0.00    -0.150 C  
ATOM     16  H   GLY A   2      -9.190   6.996  68.600  1.00  0.00     0.000 HD 
ATOM     17  N   GLY A   2      -8.678   6.880  69.475  1.00  0.00    -0.133 N  
HETATM   18  O   UNK A   1      -8.221   7.762  71.541  1.00  0.00    -0.099 OA 
BRANCH  17  19
ATOM     19  CA  GLY A   2      -7.670   5.819  69.598  1.00  0.00    -0.091 C  
ATOM     20  C   GLY A   2      -8.255   4.462  69.983  1.00  0.00    -0.062 C  
ATOM     21  O   GLY A   2      -9.600   4.479  70.149  1.00  0.00    -0.156 OA 
ATOM     22  OXT GLY A   2      -7.583   3.458  70.170  1.00  0.00    -0.044 OA 
ENDBRANCH  17  19
ENDBRANCH  14  15
BRANCH  14  23
HETATM   23  C   UNK A   1     -11.404   7.850  70.403  1.00  0.00    -0.194 C  
HETATM   24  S   UNK A   1     -12.024   7.480  72.076  1.00  0.00    -0.289 SA 
HETATM   25  H   UNK A   1     -13.187   6.721  72.136  1.00  0.00     0.000 H  
ENDBRANCH  14  23
ENDBRANCH  12  14
ENDBRANCH   9  10
ENDBRANCH   8   9
ENDBRANCH   2   8
TORSDOF 7
ENDMDL
MODEL      274
REMARK 921   NORMALIZED FREE ENERGY PREDICTED BY IDOCK:   -3.22 KCAL/MOL
REMARK 922        TOTAL FREE ENERGY PREDICTED BY IDOCK:   -5.11 KCAL/MOL
REMARK 923 INTER-LIGAND FREE ENERGY PREDICTED BY IDOCK:   -4.41 KCAL/MOL
REMARK 924 INTRA-LIGAND FREE ENERGY PREDICTED BY IDOCK:   -0.70 KCAL/MOL
REMARK 927      BINDING AFFINITY PREDICTED BY RF-SCORE:    0.00 PKD
ROOT
HETATM    1  N   UNK A   1     -11.459  11.718  65.317  1.00  0.00    -0.242 NA 
HETATM    2  C   UNK A   1     -11.889  12.873  66.159  1.00  0.00    -0.429 C  
HETATM    3  H2  UNK A   1     -11.917  10.858  65.616  1.00  0.00     0.000 HD 
HETATM    4  H1  UNK A   1     -11.601  11.879  64.320  1.00  0.00     0.000 HD 
HETATM    5  O   UNK A   1     -10.408  13.895  64.582  1.00  0.00    -0.432 OA 
HETATM    6  C   UNK A   1     -11.155  14.142  65.689  1.00  0.00    -0.307 C  
HETATM    7  O   UNK A   1     -11.204  15.228  66.243  1.00  0.00    -0.316 OA 
ENDROOT
BRANCH   2   8
HETATM    8  C   UNK A   1     -11.675  12.631  67.657  1.00  0.00    -0.420 C  
BRANCH   8   9
HETATM    9  C   UNK A   1     -11.557  11.156  68.051  1.00  0.00    -0.337 C  
BRANCH   9  10
HETATM   10  C   UNK A   1     -10.197  10.887  68.651  1.00  0.00    -0.189 C  
HETATM   11  O   UNK A   1      -9.241  11.637  68.472  1.00  0.00    -0.193 OA 
HETATM   12  N   UNK A   1     -10.122   9.762  69.429  1.00  0.00    -0.195 N  
HETATM   13  H   UNK A   1     -10.953   9.180  69.540  1.00  0.00     0.000 HD 
BRANCH  12  14
HETATM   14  C   UNK A   1      -8.888   9.372  70.103  1.00  0.00    -0.223 C  
BRANCH  14  15
HETATM   15  C   UNK A   1      -8.077   8.490  69.135  1.00  0.00    -0.117 C  
ATOM     16  H   GLY A   2      -9.813   7.440  68.633  1.00  0.00     0.000 HD 
ATOM     17  N   GLY A   2      -8.801   7.488  68.510  1.00  0.00    -0.127 N  
HETATM   18  O   UNK A   1      -6.899   8.717  68.868  1.00  0.00    -0.059 OA 
BRANCH  17  19
ATOM     19  CA  GLY A   2      -8.117   6.494  67.672  1.00  0.00    -0.118 C  
ATOM     20  C   GLY A   2      -8.274   6.747  66.174  1.00  0.00    -0.124 C  
ATOM     21  O   GLY A   2      -9.021   7.839  65.884  1.00  0.00    -0.168 OA 
ATOM     22  OXT GLY A   2      -7.813   6.017  65.309  1.00  0.00    -0.094 OA 
ENDBRANCH  17  19
ENDBRANCH  14  15
BRANCH  14  23
HETATM   23  C   UNK A   1      -9.124   8.545  71.377  1.00  0.00    -0.206 C  
HETATM   24  S   UNK A   1      -7.624   8.001  72.257  1.00  0.00    -0.117 SA 
HETATM   25  H   UNK A   1      -7.837   7.253  73.409  1.00  0.00     0.000 H  
ENDBRANCH  14  23
ENDBRANCH  12  14
ENDBRANCH   9  10
ENDBRANCH   8   9
ENDBRANCH   2   8
TORSDOF 7
ENDMDL
MODEL      275
REMARK 921   NORMALIZED FREE ENERGY PREDICTED BY IDOCK:   -3.21 KCAL/MOL
REMARK 922        TOTAL FREE ENERGY PREDICTED BY IDOCK:   -5.09 KCAL/MOL
REMARK 923 INTER-LIGAND FREE ENERGY PREDICTED BY IDOCK:   -4.67 KCAL/MOL
REMARK 924 INTRA-LIGAND FREE ENERGY PREDICTED BY IDOCK:   -0.42 KCAL/MOL
REMARK 927      BINDING AFFINITY PREDICTED BY RF-SCORE:    0.00 PKD
ROOT
HETATM    1  N   UNK A   1     -12.430  14.364  67.474  1.00  0.00    -0.529 NA 
HETATM    2  C   UNK A   1     -11.773  13.243  66.738  1.00  0.00    -0.385 C  
HETATM    3  H2  UNK A   1     -12.040  14.463  68.410  1.00  0.00     0.000 HD 
HETATM    4  H1  UNK A   1     -12.391  15.248  66.967  1.00  0.00     0.000 HD 
HETATM    5  O   UNK A   1     -13.306  14.108  65.118  1.00  0.00    -0.684 OA 
HETATM    6  C   UNK A   1     -12.408  13.114  65.342  1.00  0.00    -0.481 C  
HETATM    7  O   UNK A   1     -12.170  12.225  64.541  1.00  0.00    -0.410 OA 
ENDROOT
BRANCH   2   8
HETATM    8  C   UNK A   1     -11.832  11.915  67.499  1.00  0.00    -0.249 C  
BRANCH   8   9
HETATM    9  C   UNK A   1     -10.693  10.944  67.172  1.00  0.00    -0.320 C  
BRANCH   9  10
HETATM   10  C   UNK A   1     -10.121  10.368  68.446  1.00  0.00    -0.163 C  
HETATM   11  O   UNK A   1      -9.883  11.061  69.431  1.00  0.00    -0.105 OA 
HETATM   12  N   UNK A   1      -9.918   9.013  68.426  1.00  0.00    -0.173 N  
HETATM   13  H   UNK A   1     -10.137   8.491  67.577  1.00  0.00     0.000 HD 
BRANCH  12  14
HETATM   14  C   UNK A   1      -9.396   8.295  69.584  1.00  0.00    -0.158 C  
BRANCH  14  15
HETATM   15  C   UNK A   1      -8.280   7.352  69.094  1.00  0.00    -0.121 C  
ATOM     16  H   GLY A   2      -8.727   7.849  67.114  1.00  0.00     0.000 HD 
ATOM     17  N   GLY A   2      -8.164   7.249  67.718  1.00  0.00    -0.118 N  
HETATM   18  O   UNK A   1      -7.494   6.807  69.865  1.00  0.00    -0.089 OA 
BRANCH  17  19
ATOM     19  CA  GLY A   2      -7.233   6.279  67.125  1.00  0.00    -0.075 C  
ATOM     20  C   GLY A   2      -6.256   6.901  66.129  1.00  0.00    -0.042 C  
ATOM     21  O   GLY A   2      -6.425   8.235  65.964  1.00  0.00    -0.049 OA 
ATOM     22  OXT GLY A   2      -5.426   6.262  65.500  1.00  0.00    -0.016 OA 
ENDBRANCH  17  19
ENDBRANCH  14  15
BRANCH  14  23
HETATM   23  C   UNK A   1     -10.448   7.422  70.286  1.00  0.00    -0.221 C  
HETATM   24  S   UNK A   1     -10.929   5.899  69.407  1.00  0.00    -0.283 SA 
HETATM   25  H   UNK A   1     -11.880   5.110  70.041  1.00  0.00     0.000 H  
ENDBRANCH  14  23
ENDBRANCH  12  14
ENDBRANCH   9  10
ENDBRANCH   8   9
ENDBRANCH   2   8
TORSDOF 7
ENDMDL
MODEL      276
REMARK 921   NORMALIZED FREE ENERGY PREDICTED BY IDOCK:   -3.19 KCAL/MOL
REMARK 922        TOTAL FREE ENERGY PREDICTED BY IDOCK:   -5.06 KCAL/MOL
REMARK 923 INTER-LIGAND FREE ENERGY PREDICTED BY IDOCK:   -5.58 KCAL/MOL
REMARK 924 INTRA-LIGAND FREE ENERGY PREDICTED BY IDOCK:    0.52 KCAL/MOL
REMARK 927      BINDING AFFINITY PREDICTED BY RF-SCORE:    0.00 PKD
ROOT
HETATM    1  N   UNK A   1      -9.842   9.037  71.458  1.00  0.00    -0.315 NA 
HETATM    2  C   UNK A   1     -10.261   8.813  70.043  1.00  0.00    -0.198 C  
HETATM    3  H2  UNK A   1     -10.391   9.782  71.887  1.00  0.00     0.000 HD 
HETATM    4  H1  UNK A   1      -9.877   8.188  72.022  1.00  0.00     0.000 HD 
HETATM    5  O   UNK A   1      -8.565   7.155  70.359  1.00  0.00    -0.139 OA 
HETATM    6  C   UNK A   1      -9.392   7.700  69.430  1.00  0.00    -0.152 C  
HETATM    7  O   UNK A   1      -9.410   7.360  68.258  1.00  0.00    -0.140 OA 
ENDROOT
BRANCH   2   8
HETATM    8  C   UNK A   1     -10.208  10.089  69.197  1.00  0.00    -0.224 C  
BRANCH   8   9
HETATM    9  C   UNK A   1     -11.568  10.754  68.964  1.00  0.00    -0.370 C  
BRANCH   9  10
HETATM   10  C   UNK A   1     -11.382  12.088  68.278  1.00  0.00    -0.286 C  
HETATM   11  O   UNK A   1     -12.286  12.635  67.653  1.00  0.00    -0.367 OA 
HETATM   12  N   UNK A   1     -10.141  12.647  68.433  1.00  0.00    -0.239 N  
HETATM   13  H   UNK A   1      -9.432  12.142  68.966  1.00  0.00     0.000 HD 
BRANCH  12  14
HETATM   14  C   UNK A   1      -9.804  13.944  67.857  1.00  0.00    -0.228 C  
BRANCH  14  15
HETATM   15  C   UNK A   1      -9.879  14.996  68.980  1.00  0.00    -0.236 C  
ATOM     16  H   GLY A   2     -11.900  14.544  69.270  1.00  0.00     0.000 HD 
ATOM     17  N   GLY A   2     -11.135  15.164  69.540  1.00  0.00    -0.261 N  
HETATM   18  O   UNK A   1      -8.884  15.574  69.409  1.00  0.00    -0.243 OA 
BRANCH  17  19
ATOM     19  CA  GLY A   2     -11.371  16.232  70.521  1.00  0.00    -0.299 C  
ATOM     20  C   GLY A   2     -12.046  15.746  71.802  1.00  0.00    -0.464 C  
ATOM     21  O   GLY A   2     -12.314  14.418  71.803  1.00  0.00    -0.341 OA 
ATOM     22  OXT GLY A   2     -12.362  16.480  72.727  1.00  0.00    -0.402 OA 
ENDBRANCH  17  19
ENDBRANCH  14  15
BRANCH  14  23
HETATM   23  C   UNK A   1     -10.774  14.393  66.753  1.00  0.00    -0.292 C  
HETATM   24  S   UNK A   1     -10.181  15.737  65.674  1.00  0.00    -0.388 SA 
HETATM   25  H   UNK A   1     -11.059  16.142  64.676  1.00  0.00     0.000 H  
ENDBRANCH  14  23
ENDBRANCH  12  14
ENDBRANCH   9  10
ENDBRANCH   8   9
ENDBRANCH   2   8
TORSDOF 7
ENDMDL
MODEL      277
REMARK 921   NORMALIZED FREE ENERGY PREDICTED BY IDOCK:   -3.18 KCAL/MOL
REMARK 922        TOTAL FREE ENERGY PREDICTED BY IDOCK:   -5.04 KCAL/MOL
REMARK 923 INTER-LIGAND FREE ENERGY PREDICTED BY IDOCK:   -4.15 KCAL/MOL
REMARK 924 INTRA-LIGAND FREE ENERGY PREDICTED BY IDOCK:   -0.89 KCAL/MOL
REMARK 927      BINDING AFFINITY PREDICTED BY RF-SCORE:    0.00 PKD
ROOT
HETATM    1  N   UNK A   1     -11.998  13.683  68.870  1.00  0.00    -0.356 NA 
HETATM    2  C   UNK A   1     -11.261  14.926  68.495  1.00  0.00    -0.279 C  
HETATM    3  H2  UNK A   1     -11.879  13.473  69.861  1.00  0.00     0.000 HD 
HETATM    4  H1  UNK A   1     -12.986  13.716  68.620  1.00  0.00     0.000 HD 
HETATM    5  O   UNK A   1     -12.306  14.293  66.438  1.00  0.00    -0.448 OA 
HETATM    6  C   UNK A   1     -11.447  15.188  66.990  1.00  0.00    -0.228 C  
HETATM    7  O   UNK A   1     -10.881  16.063  66.354  1.00  0.00    -0.269 OA 
ENDROOT
BRANCH   2   8
HETATM    8  C   UNK A   1      -9.777  14.876  68.871  1.00  0.00    -0.223 C  
BRANCH   8   9
HETATM    9  C   UNK A   1      -8.899  14.096  67.888  1.00  0.00    -0.182 C  
BRANCH   9  10
HETATM   10  C   UNK A   1      -8.571  12.733  68.454  1.00  0.00    -0.123 C  
HETATM   11  O   UNK A   1      -7.515  12.501  69.036  1.00  0.00    -0.040 OA 
HETATM   12  N   UNK A   1      -9.553  11.792  68.294  1.00  0.00    -0.196 N  
HETATM   13  H   UNK A   1     -10.410  12.047  67.802  1.00  0.00     0.000 HD 
BRANCH  12  14
HETATM   14  C   UNK A   1      -9.409  10.433  68.806  1.00  0.00    -0.175 C  
BRANCH  14  15
HETATM   15  C   UNK A   1      -8.748   9.580  67.706  1.00  0.00    -0.115 C  
ATOM     16  H   GLY A   2     -10.293  10.077  66.389  1.00  0.00     0.000 HD 
ATOM     17  N   GLY A   2      -9.455   9.508  66.518  1.00  0.00    -0.169 N  
HETATM   18  O   UNK A   1      -7.635   9.077  67.843  1.00  0.00    -0.091 OA 
BRANCH  17  19
ATOM     19  CA  GLY A   2      -9.004   8.616  65.441  1.00  0.00    -0.130 C  
ATOM     20  C   GLY A   2      -8.764   9.333  64.114  1.00  0.00    -0.173 C  
ATOM     21  O   GLY A   2      -9.016  10.663  64.163  1.00  0.00    -0.194 OA 
ATOM     22  OXT GLY A   2      -8.422   8.768  63.087  1.00  0.00    -0.187 OA 
ENDBRANCH  17  19
ENDBRANCH  14  15
BRANCH  14  23
HETATM   23  C   UNK A   1     -10.748   9.765  69.151  1.00  0.00    -0.221 C  
HETATM   24  S   UNK A   1     -11.621  10.442  70.601  1.00  0.00    -0.354 SA 
HETATM   25  H   UNK A   1     -12.833   9.837  70.914  1.00  0.00     0.000 H  
ENDBRANCH  14  23
ENDBRANCH  12  14
ENDBRANCH   9  10
ENDBRANCH   8   9
ENDBRANCH   2   8
TORSDOF 7
ENDMDL
MODEL      278
REMARK 921   NORMALIZED FREE ENERGY PREDICTED BY IDOCK:   -3.18 KCAL/MOL
REMARK 922        TOTAL FREE ENERGY PREDICTED BY IDOCK:   -5.04 KCAL/MOL
REMARK 923 INTER-LIGAND FREE ENERGY PREDICTED BY IDOCK:   -4.97 KCAL/MOL
REMARK 924 INTRA-LIGAND FREE ENERGY PREDICTED BY IDOCK:   -0.07 KCAL/MOL
REMARK 927      BINDING AFFINITY PREDICTED BY RF-SCORE:    0.00 PKD
ROOT
HETATM    1  N   UNK A   1      -8.090  11.650  66.878  1.00  0.00    -0.163 NA 
HETATM    2  C   UNK A   1      -9.563  11.732  67.106  1.00  0.00    -0.181 C  
HETATM    3  H2  UNK A   1      -7.864  10.908  66.216  1.00  0.00     0.000 HD 
HETATM    4  H1  UNK A   1      -7.685  12.538  66.582  1.00  0.00     0.000 HD 
HETATM    5  O   UNK A   1      -8.722  13.517  68.458  1.00  0.00    -0.160 OA 
HETATM    6  C   UNK A   1      -9.855  12.846  68.127  1.00  0.00    -0.227 C  
HETATM    7  O   UNK A   1     -10.950  13.089  68.609  1.00  0.00    -0.247 OA 
ENDROOT
BRANCH   2   8
HETATM    8  C   UNK A   1     -10.172  10.398  67.551  1.00  0.00    -0.251 C  
BRANCH   8   9
HETATM    9  C   UNK A   1     -10.283   9.349  66.441  1.00  0.00    -0.300 C  
BRANCH   9  10
HETATM   10  C   UNK A   1      -9.920   7.984  66.980  1.00  0.00    -0.254 C  
HETATM   11  O   UNK A   1      -8.789   7.714  67.375  1.00  0.00    -0.123 OA 
HETATM   12  N   UNK A   1     -10.955   7.087  67.019  1.00  0.00    -0.573 N  
HETATM   13  H   UNK A   1     -11.873   7.373  66.678  1.00  0.00     0.000 HD 
BRANCH  12  14
HETATM   14  C   UNK A   1     -10.781   5.734  67.537  1.00  0.00    -0.236 C  
BRANCH  14  15
HETATM   15  C   UNK A   1     -10.579   5.831  69.061  1.00  0.00    -0.281 C  
ATOM     16  H   GLY A   2     -12.562   6.453  69.286  1.00  0.00     0.000 HD 
ATOM     17  N   GLY A   2     -11.676   6.297  69.767  1.00  0.00    -0.294 N  
HETATM   18  O   UNK A   1      -9.556   5.438  69.616  1.00  0.00    -0.141 OA 
BRANCH  17  19
ATOM     19  CA  GLY A   2     -11.568   6.568  71.207  1.00  0.00    -0.327 C  
ATOM     20  C   GLY A   2     -11.629   8.054  71.555  1.00  0.00    -0.275 C  
ATOM     21  O   GLY A   2     -11.766   8.858  70.474  1.00  0.00    -0.228 OA 
ATOM     22  OXT GLY A   2     -11.522   8.492  72.691  1.00  0.00    -0.351 OA 
ENDBRANCH  17  19
ENDBRANCH  14  15
BRANCH  14  23
HETATM   23  C   UNK A   1      -9.550   5.015  66.963  1.00  0.00    -0.152 C  
HETATM   24  S   UNK A   1      -9.748   4.313  65.293  1.00  0.00    -0.206 SA 
HETATM   25  H   UNK A   1      -8.635   3.662  64.775  1.00  0.00     0.000 H  
ENDBRANCH  14  23
ENDBRANCH  12  14
ENDBRANCH   9  10
ENDBRANCH   8   9
ENDBRANCH   2   8
TORSDOF 7
ENDMDL
MODEL      279
REMARK 921   NORMALIZED FREE ENERGY PREDICTED BY IDOCK:   -3.16 KCAL/MOL
REMARK 922        TOTAL FREE ENERGY PREDICTED BY IDOCK:   -5.02 KCAL/MOL
REMARK 923 INTER-LIGAND FREE ENERGY PREDICTED BY IDOCK:   -4.34 KCAL/MOL
REMARK 924 INTRA-LIGAND FREE ENERGY PREDICTED BY IDOCK:   -0.68 KCAL/MOL
REMARK 927      BINDING AFFINITY PREDICTED BY RF-SCORE:    0.00 PKD
ROOT
HETATM    1  N   UNK A   1      -9.979  14.598  69.309  1.00  0.00    -0.391 NA 
HETATM    2  C   UNK A   1     -10.588  14.921  67.986  1.00  0.00    -0.248 C  
HETATM    3  H2  UNK A   1      -9.074  15.056  69.416  1.00  0.00     0.000 HD 
HETATM    4  H1  UNK A   1     -10.593  14.816  70.093  1.00  0.00     0.000 HD 
HETATM    5  O   UNK A   1     -12.255  13.544  69.010  1.00  0.00    -0.320 OA 
HETATM    6  C   UNK A   1     -11.936  14.190  67.858  1.00  0.00    -0.343 C  
HETATM    7  O   UNK A   1     -12.627  14.159  66.853  1.00  0.00    -0.260 OA 
ENDROOT
BRANCH   2   8
HETATM    8  C   UNK A   1      -9.665  14.592  66.808  1.00  0.00    -0.267 C  
BRANCH   8   9
HETATM    9  C   UNK A   1      -8.820  13.329  66.996  1.00  0.00    -0.216 C  
BRANCH   9  10
HETATM   10  C   UNK A   1      -9.385  12.199  66.167  1.00  0.00    -0.195 C  
HETATM   11  O   UNK A   1     -10.406  12.324  65.497  1.00  0.00    -0.254 OA 
HETATM   12  N   UNK A   1      -8.656  11.040  66.200  1.00  0.00    -0.173 N  
HETATM   13  H   UNK A   1      -7.814  10.999  66.776  1.00  0.00     0.000 HD 
BRANCH  12  14
HETATM   14  C   UNK A   1      -9.048   9.861  65.434  1.00  0.00    -0.196 C  
BRANCH  14  15
HETATM   15  C   UNK A   1      -9.661   8.842  66.413  1.00  0.00    -0.262 C  
ATOM     16  H   GLY A   2      -7.882   7.746  66.389  1.00  0.00     0.000 HD 
ATOM     17  N   GLY A   2      -8.846   7.767  66.724  1.00  0.00    -0.133 N  
HETATM   18  O   UNK A   1     -10.753   9.018  66.948  1.00  0.00    -0.215 OA 
BRANCH  17  19
ATOM     19  CA  GLY A   2      -9.363   6.656  67.535  1.00  0.00    -0.123 C  
ATOM     20  C   GLY A   2      -9.386   5.320  66.795  1.00  0.00    -0.134 C  
ATOM     21  O   GLY A   2      -8.931   5.397  65.521  1.00  0.00    -0.159 OA 
ATOM     22  OXT GLY A   2      -9.812   4.281  67.277  1.00  0.00    -0.197 OA 
ENDBRANCH  17  19
ENDBRANCH  14  15
BRANCH  14  23
HETATM   23  C   UNK A   1      -7.868   9.165  64.738  1.00  0.00    -0.119 C  
HETATM   24  S   UNK A   1      -7.860   9.249  62.918  1.00  0.00    -0.136 SA 
HETATM   25  H   UNK A   1      -6.793   8.620  62.288  1.00  0.00     0.000 H  
ENDBRANCH  14  23
ENDBRANCH  12  14
ENDBRANCH   9  10
ENDBRANCH   8   9
ENDBRANCH   2   8
TORSDOF 7
ENDMDL
MODEL      280
REMARK 921   NORMALIZED FREE ENERGY PREDICTED BY IDOCK:   -3.16 KCAL/MOL
REMARK 922        TOTAL FREE ENERGY PREDICTED BY IDOCK:   -5.02 KCAL/MOL
REMARK 923 INTER-LIGAND FREE ENERGY PREDICTED BY IDOCK:   -4.33 KCAL/MOL
REMARK 924 INTRA-LIGAND FREE ENERGY PREDICTED BY IDOCK:   -0.68 KCAL/MOL
REMARK 927      BINDING AFFINITY PREDICTED BY RF-SCORE:    0.00 PKD
ROOT
HETATM    1  N   UNK A   1     -13.368  10.033  70.532  1.00  0.00    -0.567 NA 
HETATM    2  C   UNK A   1     -12.064   9.335  70.734  1.00  0.00    -0.171 C  
HETATM    3  H2  UNK A   1     -13.434  10.417  69.590  1.00  0.00     0.000 HD 
HETATM    4  H1  UNK A   1     -14.172   9.441  70.742  1.00  0.00     0.000 HD 
HETATM    5  O   UNK A   1     -13.170   8.999  72.829  1.00  0.00    -0.403 OA 
HETATM    6  C   UNK A   1     -11.998   8.794  72.174  1.00  0.00    -0.366 C  
HETATM    7  O   UNK A   1     -11.020   8.274  72.685  1.00  0.00    -0.352 OA 
ENDROOT
BRANCH   2   8
HETATM    8  C   UNK A   1     -10.857  10.225  70.420  1.00  0.00    -0.320 C  
BRANCH   8   9
HETATM    9  C   UNK A   1     -11.209  11.569  69.775  1.00  0.00    -0.237 C  
BRANCH   9  10
HETATM   10  C   UNK A   1     -10.425  11.751  68.496  1.00  0.00    -0.215 C  
HETATM   11  O   UNK A   1     -10.499  12.774  67.821  1.00  0.00    -0.216 OA 
HETATM   12  N   UNK A   1      -9.608  10.702  68.167  1.00  0.00    -0.153 N  
HETATM   13  H   UNK A   1      -9.589   9.879  68.770  1.00  0.00     0.000 HD 
BRANCH  12  14
HETATM   14  C   UNK A   1      -8.763  10.728  66.978  1.00  0.00    -0.136 C  
BRANCH  14  15
HETATM   15  C   UNK A   1      -9.090   9.480  66.136  1.00  0.00    -0.166 C  
ATOM     16  H   GLY A   2      -8.808   8.270  67.817  1.00  0.00     0.000 HD 
ATOM     17  N   GLY A   2      -8.988   8.276  66.812  1.00  0.00    -0.140 N  
HETATM   18  O   UNK A   1      -9.499   9.554  64.980  1.00  0.00    -0.267 OA 
BRANCH  17  19
ATOM     19  CA  GLY A   2      -9.137   7.006  66.088  1.00  0.00    -0.115 C  
ATOM     20  C   GLY A   2      -8.384   5.843  66.733  1.00  0.00    -0.109 C  
ATOM     21  O   GLY A   2      -7.708   6.191  67.854  1.00  0.00    -0.099 OA 
ATOM     22  OXT GLY A   2      -8.350   4.713  66.270  1.00  0.00    -0.110 OA 
ENDBRANCH  17  19
ENDBRANCH  14  15
BRANCH  14  23
HETATM   23  C   UNK A   1      -7.260  10.677  67.295  1.00  0.00    -0.091 C  
HETATM   24  S   UNK A   1      -6.532  12.220  67.936  1.00  0.00    -0.102 SA 
HETATM   25  H   UNK A   1      -5.174  12.174  68.223  1.00  0.00     0.000 H  
ENDBRANCH  14  23
ENDBRANCH  12  14
ENDBRANCH   9  10
ENDBRANCH   8   9
ENDBRANCH   2   8
TORSDOF 7
ENDMDL
MODEL      281
REMARK 921   NORMALIZED FREE ENERGY PREDICTED BY IDOCK:   -3.16 KCAL/MOL
REMARK 922        TOTAL FREE ENERGY PREDICTED BY IDOCK:   -5.01 KCAL/MOL
REMARK 923 INTER-LIGAND FREE ENERGY PREDICTED BY IDOCK:   -4.38 KCAL/MOL
REMARK 924 INTRA-LIGAND FREE ENERGY PREDICTED BY IDOCK:   -0.64 KCAL/MOL
REMARK 927      BINDING AFFINITY PREDICTED BY RF-SCORE:    0.00 PKD
ROOT
HETATM    1  N   UNK A   1     -11.955  14.613  67.537  1.00  0.00    -0.534 NA 
HETATM    2  C   UNK A   1     -11.307  14.060  66.311  1.00  0.00    -0.333 C  
HETATM    3  H2  UNK A   1     -11.268  14.769  68.274  1.00  0.00     0.000 HD 
HETATM    4  H1  UNK A   1     -12.492  15.461  67.354  1.00  0.00     0.000 HD 
HETATM    5  O   UNK A   1     -13.596  14.267  65.649  1.00  0.00    -0.394 OA 
HETATM    6  C   UNK A   1     -12.383  13.818  65.237  1.00  0.00    -0.464 C  
HETATM    7  O   UNK A   1     -12.193  13.269  64.164  1.00  0.00    -0.464 OA 
ENDROOT
BRANCH   2   8
HETATM    8  C   UNK A   1     -10.500  12.787  66.586  1.00  0.00    -0.270 C  
BRANCH   8   9
HETATM    9  C   UNK A   1     -11.328  11.613  67.119  1.00  0.00    -0.373 C  
BRANCH   9  10
HETATM   10  C   UNK A   1     -11.132  11.477  68.611  1.00  0.00    -0.238 C  
HETATM   11  O   UNK A   1     -10.360  10.657  69.099  1.00  0.00    -0.202 OA 
HETATM   12  N   UNK A   1     -11.860  12.356  69.370  1.00  0.00    -0.312 N  
HETATM   13  H   UNK A   1     -12.483  13.015  68.904  1.00  0.00     0.000 HD 
BRANCH  12  14
HETATM   14  C   UNK A   1     -11.767  12.376  70.826  1.00  0.00     0.478 C  
BRANCH  14  15
HETATM   15  C   UNK A   1     -12.800  11.376  71.381  1.00  0.00    -0.397 C  
ATOM     16  H   GLY A   2     -11.383   9.844  71.262  1.00  0.00     0.000 HD 
ATOM     17  N   GLY A   2     -12.358  10.066  71.465  1.00  0.00    -0.395 N  
HETATM   18  O   UNK A   1     -13.898  11.731  71.802  1.00  0.00     0.157 OA 
BRANCH  17  19
ATOM     19  CA  GLY A   2     -13.289   8.995  71.845  1.00  0.00    -0.417 C  
ATOM     20  C   GLY A   2     -13.042   7.681  71.106  1.00  0.00    -0.151 C  
ATOM     21  O   GLY A   2     -12.013   7.738  70.227  1.00  0.00     0.013 OA 
ATOM     22  OXT GLY A   2     -13.727   6.679  71.251  1.00  0.00    -0.008 OA 
ENDBRANCH  17  19
ENDBRANCH  14  15
BRANCH  14  23
HETATM   23  C   UNK A   1     -12.091  13.747  71.440  1.00  0.00    -0.018 C  
HETATM   24  S   UNK A   1     -10.941  15.096  71.019  1.00  0.00    -0.055 SA 
HETATM   25  H   UNK A   1     -11.234  16.336  71.573  1.00  0.00     0.000 H  
ENDBRANCH  14  23
ENDBRANCH  12  14
ENDBRANCH   9  10
ENDBRANCH   8   9
ENDBRANCH   2   8
TORSDOF 7
ENDMDL
MODEL      282
REMARK 921   NORMALIZED FREE ENERGY PREDICTED BY IDOCK:   -3.15 KCAL/MOL
REMARK 922        TOTAL FREE ENERGY PREDICTED BY IDOCK:   -5.00 KCAL/MOL
REMARK 923 INTER-LIGAND FREE ENERGY PREDICTED BY IDOCK:   -5.03 KCAL/MOL
REMARK 924 INTRA-LIGAND FREE ENERGY PREDICTED BY IDOCK:    0.02 KCAL/MOL
REMARK 927      BINDING AFFINITY PREDICTED BY RF-SCORE:    0.00 PKD
ROOT
HETATM    1  N   UNK A   1     -11.962  15.863  67.669  1.00  0.00     0.085 NA 
HETATM    2  C   UNK A   1     -10.724  16.633  67.989  1.00  0.00    -0.350 C  
HETATM    3  H2  UNK A   1     -12.503  15.675  68.513  1.00  0.00     0.000 HD 
HETATM    4  H1  UNK A   1     -12.538  16.316  66.960  1.00  0.00     0.000 HD 
HETATM    5  O   UNK A   1     -10.610  16.421  65.609  1.00  0.00    -0.360 OA 
HETATM    6  C   UNK A   1      -9.929  16.872  66.694  1.00  0.00    -0.296 C  
HETATM    7  O   UNK A   1      -8.818  17.374  66.633  1.00  0.00    -0.235 OA 
ENDROOT
BRANCH   2   8
HETATM    8  C   UNK A   1      -9.858  15.953  69.055  1.00  0.00    -0.234 C  
BRANCH   8   9
HETATM    9  C   UNK A   1     -10.645  15.341  70.217  1.00  0.00    -0.257 C  
BRANCH   9  10
HETATM   10  C   UNK A   1     -10.971  13.896  69.919  1.00  0.00     0.164 C  
HETATM   11  O   UNK A   1     -11.981  13.348  70.352  1.00  0.00    -0.331 OA 
HETATM   12  N   UNK A   1     -10.071  13.258  69.106  1.00  0.00    -0.408 N  
HETATM   13  H   UNK A   1      -9.251  13.769  68.777  1.00  0.00     0.000 HD 
BRANCH  12  14
HETATM   14  C   UNK A   1     -10.251  11.869  68.699  1.00  0.00    -0.191 C  
BRANCH  14  15
HETATM   15  C   UNK A   1     -11.313  11.835  67.583  1.00  0.00    -0.302 C  
ATOM     16  H   GLY A   2     -10.232  13.265  66.508  1.00  0.00     0.000 HD 
ATOM     17  N   GLY A   2     -11.096  12.723  66.543  1.00  0.00    -0.277 N  
HETATM   18  O   UNK A   1     -12.231  11.019  67.573  1.00  0.00    -0.080 OA 
BRANCH  17  19
ATOM     19  CA  GLY A   2     -12.106  12.889  65.489  1.00  0.00    -0.458 C  
ATOM     20  C   GLY A   2     -11.710  12.249  64.159  1.00  0.00    -0.402 C  
ATOM     21  O   GLY A   2     -10.497  11.649  64.186  1.00  0.00    -0.291 OA 
ATOM     22  OXT GLY A   2     -12.393  12.305  63.147  1.00  0.00    -0.461 OA 
ENDBRANCH  17  19
ENDBRANCH  14  15
BRANCH  14  23
HETATM   23  C   UNK A   1     -10.757  10.961  69.831  1.00  0.00    -0.075 C  
HETATM   24  S   UNK A   1      -9.691   9.544  70.248  1.00  0.00    -0.269 SA 
HETATM   25  H   UNK A   1     -10.149   8.723  71.272  1.00  0.00     0.000 H  
ENDBRANCH  14  23
ENDBRANCH  12  14
ENDBRANCH   9  10
ENDBRANCH   8   9
ENDBRANCH   2   8
TORSDOF 7
ENDMDL
MODEL      283
REMARK 921   NORMALIZED FREE ENERGY PREDICTED BY IDOCK:   -3.14 KCAL/MOL
REMARK 922        TOTAL FREE ENERGY PREDICTED BY IDOCK:   -4.98 KCAL/MOL
REMARK 923 INTER-LIGAND FREE ENERGY PREDICTED BY IDOCK:   -4.47 KCAL/MOL
REMARK 924 INTRA-LIGAND FREE ENERGY PREDICTED BY IDOCK:   -0.51 KCAL/MOL
REMARK 927      BINDING AFFINITY PREDICTED BY RF-SCORE:    0.00 PKD
ROOT
HETATM    1  N   UNK A   1      -8.713  11.377  63.533  1.00  0.00    -0.400 NA 
HETATM    2  C   UNK A   1      -7.792  10.289  63.977  1.00  0.00    -0.114 C  
HETATM    3  H2  UNK A   1      -8.445  12.272  63.942  1.00  0.00     0.000 HD 
HETATM    4  H1  UNK A   1      -8.783  11.447  62.518  1.00  0.00     0.000 HD 
HETATM    5  O   UNK A   1      -9.284   9.145  62.498  1.00  0.00    -0.127 OA 
HETATM    6  C   UNK A   1      -8.248   8.957  63.357  1.00  0.00    -0.181 C  
HETATM    7  O   UNK A   1      -7.773   7.863  63.613  1.00  0.00    -0.122 OA 
ENDROOT
BRANCH   2   8
HETATM    8  C   UNK A   1      -7.686  10.184  65.502  1.00  0.00    -0.145 C  
BRANCH   8   9
HETATM    9  C   UNK A   1      -8.721  11.013  66.269  1.00  0.00    -0.178 C  
BRANCH   9  10
HETATM   10  C   UNK A   1      -9.585  10.108  67.116  1.00  0.00    -0.169 C  
HETATM   11  O   UNK A   1     -10.812  10.157  67.086  1.00  0.00    -0.251 OA 
HETATM   12  N   UNK A   1      -8.896   9.214  67.892  1.00  0.00    -0.128 N  
HETATM   13  H   UNK A   1      -7.876   9.222  67.872  1.00  0.00     0.000 HD 
BRANCH  12  14
HETATM   14  C   UNK A   1      -9.580   8.251  68.749  1.00  0.00    -0.150 C  
BRANCH  14  15
HETATM   15  C   UNK A   1     -10.010   8.981  70.035  1.00  0.00    -0.188 C  
ATOM     16  H   GLY A   2     -11.855   7.999  69.978  1.00  0.00     0.000 HD 
ATOM     17  N   GLY A   2     -11.302   8.712  70.456  1.00  0.00    -0.248 N  
HETATM   18  O   UNK A   1      -9.236   9.676  70.688  1.00  0.00    -0.229 OA 
BRANCH  17  19
ATOM     19  CA  GLY A   2     -11.881   9.450  71.588  1.00  0.00    -0.394 C  
ATOM     20  C   GLY A   2     -12.574  10.748  71.179  1.00  0.00    -0.428 C  
ATOM     21  O   GLY A   2     -12.527  10.992  69.848  1.00  0.00    -0.299 OA 
ATOM     22  OXT GLY A   2     -13.087  11.524  71.972  1.00  0.00    -0.486 OA 
ENDBRANCH  17  19
ENDBRANCH  14  15
BRANCH  14  23
HETATM   23  C   UNK A   1      -8.690   7.073  69.175  1.00  0.00    -0.132 C  
HETATM   24  S   UNK A   1      -7.762   6.256  67.836  1.00  0.00    -0.104 SA 
HETATM   25  H   UNK A   1      -6.957   5.191  68.221  1.00  0.00     0.000 H  
ENDBRANCH  14  23
ENDBRANCH  12  14
ENDBRANCH   9  10
ENDBRANCH   8   9
ENDBRANCH   2   8
TORSDOF 7
ENDMDL
MODEL      284
REMARK 921   NORMALIZED FREE ENERGY PREDICTED BY IDOCK:   -3.13 KCAL/MOL
REMARK 922        TOTAL FREE ENERGY PREDICTED BY IDOCK:   -4.98 KCAL/MOL
REMARK 923 INTER-LIGAND FREE ENERGY PREDICTED BY IDOCK:   -5.01 KCAL/MOL
REMARK 924 INTRA-LIGAND FREE ENERGY PREDICTED BY IDOCK:    0.03 KCAL/MOL
REMARK 927      BINDING AFFINITY PREDICTED BY RF-SCORE:    0.00 PKD
ROOT
HETATM    1  N   UNK A   1     -12.270  15.719  67.712  1.00  0.00     0.097 NA 
HETATM    2  C   UNK A   1     -11.218  15.746  68.771  1.00  0.00    -0.342 C  
HETATM    3  H2  UNK A   1     -13.075  15.169  68.012  1.00  0.00     0.000 HD 
HETATM    4  H1  UNK A   1     -12.556  16.651  67.413  1.00  0.00     0.000 HD 
HETATM    5  O   UNK A   1     -10.275  17.123  67.057  1.00  0.00    -0.298 OA 
HETATM    6  C   UNK A   1     -10.015  16.563  68.267  1.00  0.00    -0.250 C  
HETATM    7  O   UNK A   1      -8.950  16.680  68.851  1.00  0.00    -0.250 OA 
ENDROOT
BRANCH   2   8
HETATM    8  C   UNK A   1     -10.788  14.346  69.220  1.00  0.00    -0.261 C  
BRANCH   8   9
HETATM    9  C   UNK A   1     -11.938  13.345  69.369  1.00  0.00    -0.369 C  
BRANCH   9  10
HETATM   10  C   UNK A   1     -11.465  11.955  69.011  1.00  0.00    -0.297 C  
HETATM   11  O   UNK A   1     -12.234  11.001  68.930  1.00  0.00    -0.519 OA 
HETATM   12  N   UNK A   1     -10.123  11.851  68.758  1.00  0.00    -0.369 N  
HETATM   13  H   UNK A   1      -9.536  12.682  68.840  1.00  0.00     0.000 HD 
BRANCH  12  14
HETATM   14  C   UNK A   1      -9.508  10.585  68.372  1.00  0.00    -0.157 C  
BRANCH  14  15
HETATM   15  C   UNK A   1     -10.032  10.209  66.973  1.00  0.00    -0.199 C  
ATOM     16  H   GLY A   2      -9.091  11.891  66.166  1.00  0.00     0.000 HD 
ATOM     17  N   GLY A   2      -9.714  11.108  65.969  1.00  0.00    -0.216 N  
HETATM   18  O   UNK A   1     -10.609   9.147  66.750  1.00  0.00    -0.227 OA 
BRANCH  17  19
ATOM     19  CA  GLY A   2     -10.272  10.938  64.620  1.00  0.00    -0.345 C  
ATOM     20  C   GLY A   2      -9.326  10.226  63.655  1.00  0.00    -0.296 C  
ATOM     21  O   GLY A   2      -8.140   9.883  64.211  1.00  0.00    -0.136 OA 
ATOM     22  OXT GLY A   2      -9.584  10.018  62.478  1.00  0.00    -0.272 OA 
ENDBRANCH  17  19
ENDBRANCH  14  15
BRANCH  14  23
HETATM   23  C   UNK A   1      -9.862   9.423  69.314  1.00  0.00    -0.174 C  
HETATM   24  S   UNK A   1      -8.491   8.298  69.735  1.00  0.00    -0.129 SA 
HETATM   25  H   UNK A   1      -8.811   7.248  70.587  1.00  0.00     0.000 H  
ENDBRANCH  14  23
ENDBRANCH  12  14
ENDBRANCH   9  10
ENDBRANCH   8   9
ENDBRANCH   2   8
TORSDOF 7
ENDMDL
MODEL      285
REMARK 921   NORMALIZED FREE ENERGY PREDICTED BY IDOCK:   -3.13 KCAL/MOL
REMARK 922        TOTAL FREE ENERGY PREDICTED BY IDOCK:   -4.98 KCAL/MOL
REMARK 923 INTER-LIGAND FREE ENERGY PREDICTED BY IDOCK:   -4.17 KCAL/MOL
REMARK 924 INTRA-LIGAND FREE ENERGY PREDICTED BY IDOCK:   -0.81 KCAL/MOL
REMARK 927      BINDING AFFINITY PREDICTED BY RF-SCORE:    0.00 PKD
ROOT
HETATM    1  N   UNK A   1      -6.870   9.459  67.362  1.00  0.00    -0.079 NA 
HETATM    2  C   UNK A   1      -8.286   9.890  67.557  1.00  0.00    -0.114 C  
HETATM    3  H2  UNK A   1      -6.443   9.196  68.250  1.00  0.00     0.000 HD 
HETATM    4  H1  UNK A   1      -6.774   8.711  66.676  1.00  0.00     0.000 HD 
HETATM    5  O   UNK A   1      -8.006  10.059  65.187  1.00  0.00    -0.133 OA 
HETATM    6  C   UNK A   1      -8.881  10.299  66.198  1.00  0.00    -0.151 C  
HETATM    7  O   UNK A   1      -9.980  10.803  66.034  1.00  0.00    -0.223 OA 
ENDROOT
BRANCH   2   8
HETATM    8  C   UNK A   1      -8.430  11.014  68.587  1.00  0.00    -0.157 C  
BRANCH   8   9
HETATM    9  C   UNK A   1      -7.260  12.001  68.619  1.00  0.00    -0.110 C  
BRANCH   9  10
HETATM   10  C   UNK A   1      -7.615  13.252  67.849  1.00  0.00    -0.152 C  
HETATM   11  O   UNK A   1      -6.777  13.901  67.229  1.00  0.00    -0.237 OA 
HETATM   12  N   UNK A   1      -8.944  13.585  67.872  1.00  0.00    -0.190 N  
HETATM   13  H   UNK A   1      -9.592  13.003  68.404  1.00  0.00     0.000 HD 
BRANCH  12  14
HETATM   14  C   UNK A   1      -9.459  14.748  67.158  1.00  0.00    -0.227 C  
BRANCH  14  15
HETATM   15  C   UNK A   1      -9.363  15.964  68.099  1.00  0.00    -0.198 C  
ATOM     16  H   GLY A   2      -9.079  17.219  66.452  1.00  0.00     0.000 HD 
ATOM     17  N   GLY A   2      -9.098  17.170  67.471  1.00  0.00    -0.224 N  
HETATM   18  O   UNK A   1      -9.595  15.884  69.303  1.00  0.00    -0.238 OA 
BRANCH  17  19
ATOM     19  CA  GLY A   2      -8.844  18.378  68.267  1.00  0.00    -0.305 C  
ATOM     20  C   GLY A   2      -7.360  18.687  68.450  1.00  0.00    -0.287 C  
ATOM     21  O   GLY A   2      -6.541  17.790  67.852  1.00  0.00    -0.183 OA 
ATOM     22  OXT GLY A   2      -6.936  19.626  69.108  1.00  0.00    -0.338 OA 
ENDBRANCH  17  19
ENDBRANCH  14  15
BRANCH  14  23
HETATM   23  C   UNK A   1     -10.934  14.609  66.749  1.00  0.00    -0.323 C  
HETATM   24  S   UNK A   1     -11.971  13.598  67.854  1.00  0.00    -0.299 SA 
HETATM   25  H   UNK A   1     -13.305  13.473  67.485  1.00  0.00     0.000 H  
ENDBRANCH  14  23
ENDBRANCH  12  14
ENDBRANCH   9  10
ENDBRANCH   8   9
ENDBRANCH   2   8
TORSDOF 7
ENDMDL
MODEL      286
REMARK 921   NORMALIZED FREE ENERGY PREDICTED BY IDOCK:   -3.12 KCAL/MOL
REMARK 922        TOTAL FREE ENERGY PREDICTED BY IDOCK:   -4.97 KCAL/MOL
REMARK 923 INTER-LIGAND FREE ENERGY PREDICTED BY IDOCK:   -4.51 KCAL/MOL
REMARK 924 INTRA-LIGAND FREE ENERGY PREDICTED BY IDOCK:   -0.46 KCAL/MOL
REMARK 927      BINDING AFFINITY PREDICTED BY RF-SCORE:    0.00 PKD
ROOT
HETATM    1  N   UNK A   1     -11.160   9.377  71.643  1.00  0.00    -0.373 NA 
HETATM    2  C   UNK A   1     -11.912   8.199  71.118  1.00  0.00    -0.273 C  
HETATM    3  H2  UNK A   1     -10.197   9.373  71.310  1.00  0.00     0.000 HD 
HETATM    4  H1  UNK A   1     -11.616  10.265  71.432  1.00  0.00     0.000 HD 
HETATM    5  O   UNK A   1     -13.577   9.365  72.379  1.00  0.00    -0.457 OA 
HETATM    6  C   UNK A   1     -13.350   8.233  71.665  1.00  0.00    -0.330 C  
HETATM    7  O   UNK A   1     -14.182   7.353  71.511  1.00  0.00    -0.437 OA 
ENDROOT
BRANCH   2   8
HETATM    8  C   UNK A   1     -11.229   6.865  71.436  1.00  0.00    -0.296 C  
BRANCH   8   9
HETATM    9  C   UNK A   1      -9.712   6.959  71.629  1.00  0.00    -0.163 C  
BRANCH   9  10
HETATM   10  C   UNK A   1      -9.023   7.053  70.288  1.00  0.00    -0.149 C  
HETATM   11  O   UNK A   1      -8.544   6.071  69.726  1.00  0.00    -0.127 OA 
HETATM   12  N   UNK A   1      -9.002   8.307  69.737  1.00  0.00    -0.145 N  
HETATM   13  H   UNK A   1      -9.420   9.082  70.253  1.00  0.00     0.000 HD 
BRANCH  12  14
HETATM   14  C   UNK A   1      -8.400   8.566  68.434  1.00  0.00    -0.124 C  
BRANCH  14  15
HETATM   15  C   UNK A   1      -8.452  10.085  68.181  1.00  0.00    -0.114 C  
ATOM     16  H   GLY A   2      -9.047   9.737  66.207  1.00  0.00     0.000 HD 
ATOM     17  N   GLY A   2      -8.772  10.450  66.884  1.00  0.00    -0.127 N  
HETATM   18  O   UNK A   1      -8.310  10.908  69.082  1.00  0.00    -0.141 OA 
BRANCH  17  19
ATOM     19  CA  GLY A   2      -8.718  11.862  66.478  1.00  0.00    -0.158 C  
ATOM     20  C   GLY A   2     -10.095  12.488  66.264  1.00  0.00    -0.250 C  
ATOM     21  O   GLY A   2     -11.121  11.631  66.480  1.00  0.00    -0.289 OA 
ATOM     22  OXT GLY A   2     -10.269  13.639  65.891  1.00  0.00    -0.296 OA 
ENDBRANCH  17  19
ENDBRANCH  14  15
BRANCH  14  23
HETATM   23  C   UNK A   1      -9.144   7.889  67.272  1.00  0.00    -0.135 C  
HETATM   24  S   UNK A   1      -8.115   6.896  66.143  1.00  0.00    -0.122 SA 
HETATM   25  H   UNK A   1      -8.788   6.284  65.093  1.00  0.00     0.000 H  
ENDBRANCH  14  23
ENDBRANCH  12  14
ENDBRANCH   9  10
ENDBRANCH   8   9
ENDBRANCH   2   8
TORSDOF 7
ENDMDL
MODEL      287
REMARK 921   NORMALIZED FREE ENERGY PREDICTED BY IDOCK:   -3.12 KCAL/MOL
REMARK 922        TOTAL FREE ENERGY PREDICTED BY IDOCK:   -4.96 KCAL/MOL
REMARK 923 INTER-LIGAND FREE ENERGY PREDICTED BY IDOCK:   -4.41 KCAL/MOL
REMARK 924 INTRA-LIGAND FREE ENERGY PREDICTED BY IDOCK:   -0.55 KCAL/MOL
REMARK 927      BINDING AFFINITY PREDICTED BY RF-SCORE:    0.00 PKD
ROOT
HETATM    1  N   UNK A   1      -7.407   6.164  70.603  1.00  0.00    -0.083 NA 
HETATM    2  C   UNK A   1      -7.497   7.507  71.249  1.00  0.00    -0.079 C  
HETATM    3  H2  UNK A   1      -7.828   5.447  71.193  1.00  0.00     0.000 HD 
HETATM    4  H1  UNK A   1      -7.809   6.147  69.666  1.00  0.00     0.000 HD 
HETATM    5  O   UNK A   1      -6.441   7.998  69.159  1.00  0.00    -0.035 OA 
HETATM    6  C   UNK A   1      -6.829   8.551  70.337  1.00  0.00    -0.037 C  
HETATM    7  O   UNK A   1      -6.639   9.721  70.630  1.00  0.00    -0.102 OA 
ENDROOT
BRANCH   2   8
HETATM    8  C   UNK A   1      -6.893   7.532  72.657  1.00  0.00    -0.065 C  
BRANCH   8   9
HETATM    9  C   UNK A   1      -7.734   8.281  73.696  1.00  0.00    -0.202 C  
BRANCH   9  10
HETATM   10  C   UNK A   1      -9.160   7.782  73.664  1.00  0.00    -0.286 C  
HETATM   11  O   UNK A   1      -9.569   6.914  74.429  1.00  0.00    -0.249 OA 
HETATM   12  N   UNK A   1      -9.964   8.394  72.738  1.00  0.00    -0.266 N  
HETATM   13  H   UNK A   1      -9.565   9.111  72.131  1.00  0.00     0.000 HD 
BRANCH  12  14
HETATM   14  C   UNK A   1     -11.374   8.050  72.595  1.00  0.00    -0.405 C  
BRANCH  14  15
HETATM   15  C   UNK A   1     -11.470   6.806  71.690  1.00  0.00    -0.282 C  
ATOM     16  H   GLY A   2     -10.495   7.843  70.159  1.00  0.00     0.000 HD 
ATOM     17  N   GLY A   2     -10.973   6.977  70.409  1.00  0.00    -0.257 N  
HETATM   18  O   UNK A   1     -11.871   5.721  72.103  1.00  0.00    -0.242 OA 
BRANCH  17  19
ATOM     19  CA  GLY A   2     -11.131   5.913  69.407  1.00  0.00    -0.299 C  
ATOM     20  C   GLY A   2     -10.677   6.322  68.007  1.00  0.00    -0.295 C  
ATOM     21  O   GLY A   2     -10.216   7.594  67.936  1.00  0.00    -0.179 OA 
ATOM     22  OXT GLY A   2     -10.758   5.598  67.026  1.00  0.00    -0.271 OA 
ENDBRANCH  17  19
ENDBRANCH  14  15
BRANCH  14  23
HETATM   23  C   UNK A   1     -12.209   9.156  71.930  1.00  0.00    -0.379 C  
HETATM   24  S   UNK A   1     -14.013   8.902  71.940  1.00  0.00    -0.398 SA 
HETATM   25  H   UNK A   1     -14.767   9.903  71.339  1.00  0.00     0.000 H  
ENDBRANCH  14  23
ENDBRANCH  12  14
ENDBRANCH   9  10
ENDBRANCH   8   9
ENDBRANCH   2   8
TORSDOF 7
ENDMDL
MODEL      288
REMARK 921   NORMALIZED FREE ENERGY PREDICTED BY IDOCK:   -3.10 KCAL/MOL
REMARK 922        TOTAL FREE ENERGY PREDICTED BY IDOCK:   -4.94 KCAL/MOL
REMARK 923 INTER-LIGAND FREE ENERGY PREDICTED BY IDOCK:   -5.08 KCAL/MOL
REMARK 924 INTRA-LIGAND FREE ENERGY PREDICTED BY IDOCK:    0.14 KCAL/MOL
REMARK 927      BINDING AFFINITY PREDICTED BY RF-SCORE:    0.00 PKD
ROOT
HETATM    1  N   UNK A   1     -10.324   9.819  70.985  1.00  0.00    -0.318 NA 
HETATM    2  C   UNK A   1      -9.641   8.547  70.604  1.00  0.00    -0.173 C  
HETATM    3  H2  UNK A   1     -10.619  10.336  70.158  1.00  0.00     0.000 HD 
HETATM    4  H1  UNK A   1     -11.106   9.673  71.624  1.00  0.00     0.000 HD 
HETATM    5  O   UNK A   1      -9.625   8.456  72.994  1.00  0.00    -0.246 OA 
HETATM    6  C   UNK A   1      -9.191   7.813  71.880  1.00  0.00    -0.141 C  
HETATM    7  O   UNK A   1      -8.508   6.802  71.905  1.00  0.00    -0.116 OA 
ENDROOT
BRANCH   2   8
HETATM    8  C   UNK A   1      -8.466   8.766  69.646  1.00  0.00    -0.129 C  
BRANCH   8   9
HETATM    9  C   UNK A   1      -8.519   7.919  68.371  1.00  0.00    -0.128 C  
BRANCH   9  10
HETATM   10  C   UNK A   1      -9.037   8.748  67.219  1.00  0.00    -0.132 C  
HETATM   11  O   UNK A   1     -10.107   8.508  66.667  1.00  0.00    -0.265 OA 
HETATM   12  N   UNK A   1      -8.236   9.801  66.861  1.00  0.00    -0.117 N  
HETATM   13  H   UNK A   1      -7.359   9.949  67.361  1.00  0.00     0.000 HD 
BRANCH  12  14
HETATM   14  C   UNK A   1      -8.603  10.717  65.786  1.00  0.00    -0.181 C  
BRANCH  14  15
HETATM   15  C   UNK A   1      -9.485  11.827  66.389  1.00  0.00    -0.221 C  
ATOM     16  H   GLY A   2     -10.782  11.685  64.756  1.00  0.00     0.000 HD 
ATOM     17  N   GLY A   2     -10.566  12.203  65.608  1.00  0.00    -0.253 N  
HETATM   18  O   UNK A   1      -9.296  12.279  67.515  1.00  0.00    -0.174 OA 
BRANCH  17  19
ATOM     19  CA  GLY A   2     -11.402  13.344  66.003  1.00  0.00    -0.309 C  
ATOM     20  C   GLY A   2     -12.749  13.391  65.285  1.00  0.00    -0.422 C  
ATOM     21  O   GLY A   2     -12.932  12.376  64.407  1.00  0.00    -0.721 OA 
ATOM     22  OXT GLY A   2     -13.575  14.278  65.444  1.00  0.00    -0.516 OA 
ENDBRANCH  17  19
ENDBRANCH  14  15
BRANCH  14  23
HETATM   23  C   UNK A   1      -9.419  10.049  64.668  1.00  0.00    -0.305 C  
HETATM   24  S   UNK A   1      -8.452   9.351  63.290  1.00  0.00    -0.208 SA 
HETATM   25  H   UNK A   1      -9.190   8.748  62.279  1.00  0.00     0.000 H  
ENDBRANCH  14  23
ENDBRANCH  12  14
ENDBRANCH   9  10
ENDBRANCH   8   9
ENDBRANCH   2   8
TORSDOF 7
ENDMDL
MODEL      289
REMARK 921   NORMALIZED FREE ENERGY PREDICTED BY IDOCK:   -3.10 KCAL/MOL
REMARK 922        TOTAL FREE ENERGY PREDICTED BY IDOCK:   -4.93 KCAL/MOL
REMARK 923 INTER-LIGAND FREE ENERGY PREDICTED BY IDOCK:   -4.37 KCAL/MOL
REMARK 924 INTRA-LIGAND FREE ENERGY PREDICTED BY IDOCK:   -0.56 KCAL/MOL
REMARK 927      BINDING AFFINITY PREDICTED BY RF-SCORE:    0.00 PKD
ROOT
HETATM    1  N   UNK A   1      -9.508   6.420  68.141  1.00  0.00    -0.115 NA 
HETATM    2  C   UNK A   1      -9.193   7.467  67.124  1.00  0.00    -0.136 C  
HETATM    3  H2  UNK A   1      -9.852   6.841  69.003  1.00  0.00     0.000 HD 
HETATM    4  H1  UNK A   1     -10.157   5.714  67.795  1.00  0.00     0.000 HD 
HETATM    5  O   UNK A   1      -8.712   5.436  65.955  1.00  0.00    -0.134 OA 
HETATM    6  C   UNK A   1      -8.654   6.789  65.852  1.00  0.00    -0.147 C  
HETATM    7  O   UNK A   1      -8.204   7.375  64.881  1.00  0.00    -0.131 OA 
ENDROOT
BRANCH   2   8
HETATM    8  C   UNK A   1      -8.217   8.528  67.643  1.00  0.00    -0.118 C  
BRANCH   8   9
HETATM    9  C   UNK A   1      -8.208   9.831  66.838  1.00  0.00    -0.117 C  
BRANCH   9  10
HETATM   10  C   UNK A   1      -9.607  10.394  66.747  1.00  0.00    -0.171 C  
HETATM   11  O   UNK A   1     -10.277  10.322  65.721  1.00  0.00    -0.257 OA 
HETATM   12  N   UNK A   1     -10.076  10.962  67.902  1.00  0.00    -0.173 N  
HETATM   13  H   UNK A   1      -9.470  10.989  68.723  1.00  0.00     0.000 HD 
BRANCH  12  14
HETATM   14  C   UNK A   1     -11.418  11.528  67.992  1.00  0.00    -0.311 C  
BRANCH  14  15
HETATM   15  C   UNK A   1     -11.328  13.021  67.621  1.00  0.00    -0.300 C  
ATOM     16  H   GLY A   2     -10.814  13.482  69.594  1.00  0.00     0.000 HD 
ATOM     17  N   GLY A   2     -11.042  13.869  68.678  1.00  0.00    -0.254 N  
HETATM   18  O   UNK A   1     -11.412  13.417  66.461  1.00  0.00    -0.317 OA 
BRANCH  17  19
ATOM     19  CA  GLY A   2     -11.067  15.326  68.485  1.00  0.00    -0.282 C  
ATOM     20  C   GLY A   2      -9.745  16.010  68.827  1.00  0.00    -0.226 C  
ATOM     21  O   GLY A   2      -8.786  15.154  69.254  1.00  0.00    -0.222 OA 
ATOM     22  OXT GLY A   2      -9.568  17.217  68.769  1.00  0.00    -0.271 OA 
ENDBRANCH  17  19
ENDBRANCH  14  15
BRANCH  14  23
HETATM   23  C   UNK A   1     -12.020  11.450  69.404  1.00  0.00    -0.339 C  
HETATM   24  S   UNK A   1     -11.388  10.106  70.461  1.00  0.00    -0.355 SA 
HETATM   25  H   UNK A   1     -11.933  10.035  71.738  1.00  0.00     0.000 H  
ENDBRANCH  14  23
ENDBRANCH  12  14
ENDBRANCH   9  10
ENDBRANCH   8   9
ENDBRANCH   2   8
TORSDOF 7
ENDMDL
MODEL      290
REMARK 921   NORMALIZED FREE ENERGY PREDICTED BY IDOCK:   -3.10 KCAL/MOL
REMARK 922        TOTAL FREE ENERGY PREDICTED BY IDOCK:   -4.93 KCAL/MOL
REMARK 923 INTER-LIGAND FREE ENERGY PREDICTED BY IDOCK:   -5.16 KCAL/MOL
REMARK 924 INTRA-LIGAND FREE ENERGY PREDICTED BY IDOCK:    0.23 KCAL/MOL
REMARK 927      BINDING AFFINITY PREDICTED BY RF-SCORE:    0.00 PKD
ROOT
HETATM    1  N   UNK A   1      -8.430   8.517  66.148  1.00  0.00    -0.124 NA 
HETATM    2  C   UNK A   1      -9.691   9.299  66.315  1.00  0.00    -0.271 C  
HETATM    3  H2  UNK A   1      -8.227   7.968  66.983  1.00  0.00     0.000 HD 
HETATM    4  H1  UNK A   1      -8.437   7.926  65.316  1.00  0.00     0.000 HD 
HETATM    5  O   UNK A   1      -9.024   9.846  64.084  1.00  0.00    -0.206 OA 
HETATM    6  C   UNK A   1      -9.943  10.128  65.043  1.00  0.00    -0.305 C  
HETATM    7  O   UNK A   1     -10.830  10.955  64.908  1.00  0.00    -0.227 OA 
ENDROOT
BRANCH   2   8
HETATM    8  C   UNK A   1      -9.680  10.186  67.564  1.00  0.00    -0.190 C  
BRANCH   8   9
HETATM    9  C   UNK A   1     -10.472  11.490  67.423  1.00  0.00    -0.240 C  
BRANCH   9  10
HETATM   10  C   UNK A   1      -9.536  12.674  67.487  1.00  0.00    -0.184 C  
HETATM   11  O   UNK A   1      -8.354  12.560  67.797  1.00  0.00    -0.147 OA 
HETATM   12  N   UNK A   1     -10.102  13.874  67.144  1.00  0.00    -0.249 N  
HETATM   13  H   UNK A   1     -11.090  13.903  66.893  1.00  0.00     0.000 HD 
BRANCH  12  14
HETATM   14  C   UNK A   1      -9.330  15.112  67.127  1.00  0.00    -0.212 C  
BRANCH  14  15
HETATM   15  C   UNK A   1      -9.535  15.818  68.481  1.00  0.00    -0.201 C  
ATOM     16  H   GLY A   2     -11.464  15.023  68.605  1.00  0.00     0.000 HD 
ATOM     17  N   GLY A   2     -10.791  15.655  69.040  1.00  0.00    -0.239 N  
HETATM   18  O   UNK A   1      -8.625  16.403  69.063  1.00  0.00    -0.245 OA 
BRANCH  17  19
ATOM     19  CA  GLY A   2     -11.160  16.390  70.258  1.00  0.00    -0.256 C  
ATOM     20  C   GLY A   2     -11.928  15.544  71.272  1.00  0.00    -0.388 C  
ATOM     21  O   GLY A   2     -12.139  14.269  70.866  1.00  0.00    -0.320 OA 
ATOM     22  OXT GLY A   2     -12.357  15.975  72.333  1.00  0.00    -0.440 OA 
ENDBRANCH  17  19
ENDBRANCH  14  15
BRANCH  14  23
HETATM   23  C   UNK A   1      -9.776  16.095  66.034  1.00  0.00    -0.344 C  
HETATM   24  S   UNK A   1     -11.069  15.488  64.902  1.00  0.00    -0.369 SA 
HETATM   25  H   UNK A   1     -11.473  16.377  63.913  1.00  0.00     0.000 H  
ENDBRANCH  14  23
ENDBRANCH  12  14
ENDBRANCH   9  10
ENDBRANCH   8   9
ENDBRANCH   2   8
TORSDOF 7
ENDMDL
MODEL      291
REMARK 921   NORMALIZED FREE ENERGY PREDICTED BY IDOCK:   -3.09 KCAL/MOL
REMARK 922        TOTAL FREE ENERGY PREDICTED BY IDOCK:   -4.92 KCAL/MOL
REMARK 923 INTER-LIGAND FREE ENERGY PREDICTED BY IDOCK:   -4.85 KCAL/MOL
REMARK 924 INTRA-LIGAND FREE ENERGY PREDICTED BY IDOCK:   -0.07 KCAL/MOL
REMARK 927      BINDING AFFINITY PREDICTED BY RF-SCORE:    0.00 PKD
ROOT
HETATM    1  N   UNK A   1      -8.961   4.857  74.363  1.00  0.00    -0.111 NA 
HETATM    2  C   UNK A   1     -10.218   5.643  74.189  1.00  0.00    -0.270 C  
HETATM    3  H2  UNK A   1      -8.362   5.278  75.072  1.00  0.00     0.000 HD 
HETATM    4  H1  UNK A   1      -9.134   3.873  74.569  1.00  0.00     0.000 HD 
HETATM    5  O   UNK A   1     -10.521   3.825  72.665  1.00  0.00    -0.164 OA 
HETATM    6  C   UNK A   1     -11.077   4.986  73.095  1.00  0.00    -0.326 C  
HETATM    7  O   UNK A   1     -12.111   5.449  72.640  1.00  0.00    -0.169 OA 
ENDROOT
BRANCH   2   8
HETATM    8  C   UNK A   1      -9.958   7.121  73.879  1.00  0.00    -0.360 C  
BRANCH   8   9
HETATM    9  C   UNK A   1      -8.845   7.369  72.856  1.00  0.00    -0.173 C  
BRANCH   9  10
HETATM   10  C   UNK A   1      -9.344   8.279  71.757  1.00  0.00    -0.202 C  
HETATM   11  O   UNK A   1      -8.723   9.276  71.399  1.00  0.00    -0.317 OA 
HETATM   12  N   UNK A   1     -10.522   7.889  71.177  1.00  0.00    -0.204 N  
HETATM   13  H   UNK A   1     -10.989   7.049  71.519  1.00  0.00     0.000 HD 
BRANCH  12  14
HETATM   14  C   UNK A   1     -11.128   8.641  70.083  1.00  0.00    -0.192 C  
BRANCH  14  15
HETATM   15  C   UNK A   1     -10.444   8.207  68.773  1.00  0.00    -0.174 C  
ATOM     16  H   GLY A   2     -10.678  10.138  68.009  1.00  0.00     0.000 HD 
ATOM     17  N   GLY A   2     -10.378   9.186  67.796  1.00  0.00    -0.232 N  
HETATM   18  O   UNK A   1      -9.917   7.105  68.639  1.00  0.00    -0.152 OA 
BRANCH  17  19
ATOM     19  CA  GLY A   2      -9.877   8.859  66.454  1.00  0.00    -0.283 C  
ATOM     20  C   GLY A   2      -9.964  10.024  65.470  1.00  0.00    -0.296 C  
ATOM     21  O   GLY A   2     -10.493  11.150  66.007  1.00  0.00    -0.251 OA 
ATOM     22  OXT GLY A   2      -9.633   9.950  64.295  1.00  0.00    -0.282 OA 
ENDBRANCH  17  19
ENDBRANCH  14  15
BRANCH  14  23
HETATM   23  C   UNK A   1     -10.937  10.161  70.209  1.00  0.00    -0.317 C  
HETATM   24  S   UNK A   1     -12.324  11.074  70.960  1.00  0.00    -0.372 SA 
HETATM   25  H   UNK A   1     -12.152  12.448  71.074  1.00  0.00     0.000 H  
ENDBRANCH  14  23
ENDBRANCH  12  14
ENDBRANCH   9  10
ENDBRANCH   8   9
ENDBRANCH   2   8
TORSDOF 7
ENDMDL
MODEL      292
REMARK 921   NORMALIZED FREE ENERGY PREDICTED BY IDOCK:   -3.05 KCAL/MOL
REMARK 922        TOTAL FREE ENERGY PREDICTED BY IDOCK:   -4.87 KCAL/MOL
REMARK 923 INTER-LIGAND FREE ENERGY PREDICTED BY IDOCK:   -4.24 KCAL/MOL
REMARK 924 INTRA-LIGAND FREE ENERGY PREDICTED BY IDOCK:   -0.63 KCAL/MOL
REMARK 927      BINDING AFFINITY PREDICTED BY RF-SCORE:    0.00 PKD
ROOT
HETATM    1  N   UNK A   1     -12.290   8.211  72.461  1.00  0.00    -0.567 NA 
HETATM    2  C   UNK A   1     -12.009   6.776  72.162  1.00  0.00    -0.273 C  
HETATM    3  H2  UNK A   1     -13.085   8.548  71.918  1.00  0.00     0.000 HD 
HETATM    4  H1  UNK A   1     -12.426   8.390  73.456  1.00  0.00     0.000 HD 
HETATM    5  O   UNK A   1     -10.372   7.297  73.827  1.00  0.00    -0.360 OA 
HETATM    6  C   UNK A   1     -10.791   6.319  72.984  1.00  0.00    -0.259 C  
HETATM    7  O   UNK A   1     -10.242   5.233  72.881  1.00  0.00    -0.171 OA 
ENDROOT
BRANCH   2   8
HETATM    8  C   UNK A   1     -11.804   6.507  70.668  1.00  0.00    -0.398 C  
BRANCH   8   9
HETATM    9  C   UNK A   1     -10.867   7.495  69.968  1.00  0.00    -0.260 C  
BRANCH   9  10
HETATM   10  C   UNK A   1      -9.757   6.748  69.265  1.00  0.00    -0.151 C  
HETATM   11  O   UNK A   1      -8.749   6.366  69.853  1.00  0.00    -0.139 OA 
HETATM   12  N   UNK A   1      -9.978   6.506  67.935  1.00  0.00    -0.126 N  
HETATM   13  H   UNK A   1     -10.838   6.848  67.505  1.00  0.00     0.000 HD 
BRANCH  12  14
HETATM   14  C   UNK A   1      -9.019   5.772  67.116  1.00  0.00    -0.113 C  
BRANCH  14  15
HETATM   15  C   UNK A   1      -8.362   6.772  66.145  1.00  0.00    -0.130 C  
ATOM     16  H   GLY A   2      -9.254   8.359  67.172  1.00  0.00     0.000 HD 
ATOM     17  N   GLY A   2      -8.696   8.099  66.358  1.00  0.00    -0.140 N  
HETATM   18  O   UNK A   1      -7.535   6.427  65.305  1.00  0.00    -0.074 OA 
BRANCH  17  19
ATOM     19  CA  GLY A   2      -8.248   9.135  65.417  1.00  0.00    -0.130 C  
ATOM     20  C   GLY A   2      -9.324  10.169  65.091  1.00  0.00    -0.235 C  
ATOM     21  O   GLY A   2     -10.501   9.944  65.723  1.00  0.00    -0.156 OA 
ATOM     22  OXT GLY A   2      -9.167  11.090  64.304  1.00  0.00    -0.200 OA 
ENDBRANCH  17  19
ENDBRANCH  14  15
BRANCH  14  23
HETATM   23  C   UNK A   1      -9.663   4.669  66.261  1.00  0.00    -0.202 C  
HETATM   24  S   UNK A   1      -9.027   2.983  66.533  1.00  0.00    -0.152 SA 
HETATM   25  H   UNK A   1      -9.609   1.986  65.760  1.00  0.00     0.000 H  
ENDBRANCH  14  23
ENDBRANCH  12  14
ENDBRANCH   9  10
ENDBRANCH   8   9
ENDBRANCH   2   8
TORSDOF 7
ENDMDL
MODEL      293
REMARK 921   NORMALIZED FREE ENERGY PREDICTED BY IDOCK:   -3.02 KCAL/MOL
REMARK 922        TOTAL FREE ENERGY PREDICTED BY IDOCK:   -4.82 KCAL/MOL
REMARK 923 INTER-LIGAND FREE ENERGY PREDICTED BY IDOCK:   -4.24 KCAL/MOL
REMARK 924 INTRA-LIGAND FREE ENERGY PREDICTED BY IDOCK:   -0.58 KCAL/MOL
REMARK 927      BINDING AFFINITY PREDICTED BY RF-SCORE:    0.00 PKD
ROOT
HETATM    1  N   UNK A   1     -11.888   8.082  72.933  1.00  0.00    -0.587 NA 
HETATM    2  C   UNK A   1     -11.069   7.661  71.757  1.00  0.00    -0.242 C  
HETATM    3  H2  UNK A   1     -11.321   8.593  73.608  1.00  0.00     0.000 HD 
HETATM    4  H1  UNK A   1     -12.714   8.618  72.669  1.00  0.00     0.000 HD 
HETATM    5  O   UNK A   1     -13.253   6.865  71.189  1.00  0.00    -0.283 OA 
HETATM    6  C   UNK A   1     -11.958   6.873  70.779  1.00  0.00    -0.373 C  
HETATM    7  O   UNK A   1     -11.563   6.298  69.777  1.00  0.00    -0.436 OA 
ENDROOT
BRANCH   2   8
HETATM    8  C   UNK A   1      -9.828   6.854  72.153  1.00  0.00    -0.159 C  
BRANCH   8   9
HETATM    9  C   UNK A   1      -8.650   6.985  71.183  1.00  0.00    -0.133 C  
BRANCH   9  10
HETATM   10  C   UNK A   1      -8.325   8.443  70.956  1.00  0.00    -0.134 C  
HETATM   11  O   UNK A   1      -7.898   9.167  71.851  1.00  0.00    -0.335 OA 
HETATM   12  N   UNK A   1      -8.516   8.882  69.672  1.00  0.00    -0.125 N  
HETATM   13  H   UNK A   1      -8.872   8.230  68.973  1.00  0.00     0.000 HD 
BRANCH  12  14
HETATM   14  C   UNK A   1      -8.224  10.256  69.277  1.00  0.00    -0.162 C  
BRANCH  14  15
HETATM   15  C   UNK A   1      -9.033  10.566  68.003  1.00  0.00    -0.135 C  
ATOM     16  H   GLY A   2      -7.277  10.510  66.872  1.00  0.00     0.000 HD 
ATOM     17  N   GLY A   2      -8.278  10.707  66.851  1.00  0.00    -0.120 N  
HETATM   18  O   UNK A   1     -10.262  10.593  67.994  1.00  0.00    -0.165 OA 
BRANCH  17  19
ATOM     19  CA  GLY A   2      -8.913  11.140  65.599  1.00  0.00    -0.184 C  
ATOM     20  C   GLY A   2      -8.464  10.338  64.378  1.00  0.00    -0.179 C  
ATOM     21  O   GLY A   2      -7.556   9.376  64.666  1.00  0.00    -0.102 OA 
ATOM     22  OXT GLY A   2      -8.845  10.562  63.239  1.00  0.00    -0.178 OA 
ENDBRANCH  17  19
ENDBRANCH  14  15
BRANCH  14  23
HETATM   23  C   UNK A   1      -6.744  10.493  68.940  1.00  0.00    -0.060 C  
HETATM   24  S   UNK A   1      -5.979  11.956  69.713  1.00  0.00    -0.145 SA 
HETATM   25  H   UNK A   1      -4.641  12.170  69.408  1.00  0.00     0.000 H  
ENDBRANCH  14  23
ENDBRANCH  12  14
ENDBRANCH   9  10
ENDBRANCH   8   9
ENDBRANCH   2   8
TORSDOF 7
ENDMDL
MODEL      294
REMARK 921   NORMALIZED FREE ENERGY PREDICTED BY IDOCK:   -3.02 KCAL/MOL
REMARK 922        TOTAL FREE ENERGY PREDICTED BY IDOCK:   -4.82 KCAL/MOL
REMARK 923 INTER-LIGAND FREE ENERGY PREDICTED BY IDOCK:   -3.92 KCAL/MOL
REMARK 924 INTRA-LIGAND FREE ENERGY PREDICTED BY IDOCK:   -0.90 KCAL/MOL
REMARK 927      BINDING AFFINITY PREDICTED BY RF-SCORE:    0.00 PKD
ROOT
HETATM    1  N   UNK A   1      -9.290   4.845  71.371  1.00  0.00    -0.145 NA 
HETATM    2  C   UNK A   1     -10.146   4.856  72.595  1.00  0.00    -0.174 C  
HETATM    3  H2  UNK A   1      -8.949   5.782  71.156  1.00  0.00     0.000 HD 
HETATM    4  H1  UNK A   1      -8.519   4.181  71.432  1.00  0.00     0.000 HD 
HETATM    5  O   UNK A   1     -10.114   2.540  71.996  1.00  0.00    -0.162 OA 
HETATM    6  C   UNK A   1     -10.657   3.430  72.865  1.00  0.00    -0.123 C  
HETATM    7  O   UNK A   1     -11.468   3.126  73.726  1.00  0.00    -0.171 OA 
ENDROOT
BRANCH   2   8
HETATM    8  C   UNK A   1     -11.305   5.854  72.503  1.00  0.00    -0.352 C  
BRANCH   8   9
HETATM    9  C   UNK A   1     -10.948   7.283  72.922  1.00  0.00    -0.381 C  
BRANCH   9  10
HETATM   10  C   UNK A   1     -11.233   8.242  71.790  1.00  0.00    -0.283 C  
HETATM   11  O   UNK A   1     -12.189   9.011  71.806  1.00  0.00    -0.318 OA 
HETATM   12  N   UNK A   1     -10.327   8.205  70.763  1.00  0.00    -0.195 N  
HETATM   13  H   UNK A   1      -9.551   7.544  70.809  1.00  0.00     0.000 HD 
BRANCH  12  14
HETATM   14  C   UNK A   1     -10.440   9.086  69.605  1.00  0.00    -0.222 C  
BRANCH  14  15
HETATM   15  C   UNK A   1     -10.170   8.245  68.342  1.00  0.00    -0.209 C  
ATOM     16  H   GLY A   2      -9.189   6.811  69.504  1.00  0.00     0.000 HD 
ATOM     17  N   GLY A   2      -9.429   7.095  68.553  1.00  0.00    -0.139 N  
HETATM   18  O   UNK A   1     -10.654   8.527  67.248  1.00  0.00    -0.295 OA 
BRANCH  17  19
ATOM     19  CA  GLY A   2      -8.985   6.281  67.413  1.00  0.00    -0.109 C  
ATOM     20  C   GLY A   2      -9.430   4.822  67.494  1.00  0.00    -0.146 C  
ATOM     21  O   GLY A   2     -10.149   4.536  68.606  1.00  0.00    -0.086 OA 
ATOM     22  OXT GLY A   2      -9.135   3.973  66.666  1.00  0.00    -0.123 OA 
ENDBRANCH  17  19
ENDBRANCH  14  15
BRANCH  14  23
HETATM   23  C   UNK A   1      -9.419  10.234  69.609  1.00  0.00    -0.151 C  
HETATM   24  S   UNK A   1      -7.667   9.738  69.541  1.00  0.00    -0.137 SA 
HETATM   25  H   UNK A   1      -6.744  10.777  69.544  1.00  0.00     0.000 H  
ENDBRANCH  14  23
ENDBRANCH  12  14
ENDBRANCH   9  10
ENDBRANCH   8   9
ENDBRANCH   2   8
TORSDOF 7
ENDMDL
MODEL      295
REMARK 921   NORMALIZED FREE ENERGY PREDICTED BY IDOCK:   -3.01 KCAL/MOL
REMARK 922        TOTAL FREE ENERGY PREDICTED BY IDOCK:   -4.80 KCAL/MOL
REMARK 923 INTER-LIGAND FREE ENERGY PREDICTED BY IDOCK:   -4.37 KCAL/MOL
REMARK 924 INTRA-LIGAND FREE ENERGY PREDICTED BY IDOCK:   -0.43 KCAL/MOL
REMARK 927      BINDING AFFINITY PREDICTED BY RF-SCORE:    0.00 PKD
ROOT
HETATM    1  N   UNK A   1     -11.487   4.251  64.756  1.00  0.00    -0.992 NA 
HETATM    2  C   UNK A   1     -10.002   4.313  64.904  1.00  0.00    -0.168 C  
HETATM    3  H2  UNK A   1     -11.925   5.096  65.120  1.00  0.00     0.000 HD 
HETATM    4  H1  UNK A   1     -11.783   4.071  63.796  1.00  0.00     0.000 HD 
HETATM    5  O   UNK A   1     -10.335   2.212  63.808  1.00  0.00    -0.139 OA 
HETATM    6  C   UNK A   1      -9.387   3.009  64.365  1.00  0.00    -0.142 C  
HETATM    7  O   UNK A   1      -8.208   2.703  64.445  1.00  0.00    -0.082 OA 
ENDROOT
BRANCH   2   8
HETATM    8  C   UNK A   1      -9.558   4.582  66.345  1.00  0.00    -0.197 C  
BRANCH   8   9
HETATM    9  C   UNK A   1     -10.457   5.554  67.116  1.00  0.00    -0.321 C  
BRANCH   9  10
HETATM   10  C   UNK A   1      -9.631   6.362  68.089  1.00  0.00    -0.115 C  
HETATM   11  O   UNK A   1      -9.367   5.959  69.219  1.00  0.00    -0.127 OA 
HETATM   12  N   UNK A   1      -9.177   7.560  67.604  1.00  0.00    -0.128 N  
HETATM   13  H   UNK A   1      -9.429   7.839  66.655  1.00  0.00     0.000 HD 
BRANCH  12  14
HETATM   14  C   UNK A   1      -8.344   8.450  68.406  1.00  0.00    -0.131 C  
BRANCH  14  15
HETATM   15  C   UNK A   1      -8.478   9.873  67.830  1.00  0.00    -0.121 C  
ATOM     16  H   GLY A   2     -10.552   9.637  67.725  1.00  0.00     0.000 HD 
ATOM     17  N   GLY A   2      -9.768  10.248  67.494  1.00  0.00    -0.166 N  
HETATM   18  O   UNK A   1      -7.527  10.647  67.760  1.00  0.00    -0.089 OA 
BRANCH  17  19
ATOM     19  CA  GLY A   2     -10.012  11.524  66.807  1.00  0.00    -0.208 C  
ATOM     20  C   GLY A   2     -11.444  12.034  66.959  1.00  0.00    -0.338 C  
ATOM     21  O   GLY A   2     -12.236  11.217  67.693  1.00  0.00    -0.423 OA 
ATOM     22  OXT GLY A   2     -11.862  13.057  66.435  1.00  0.00    -0.370 OA 
ENDBRANCH  17  19
ENDBRANCH  14  15
BRANCH  14  23
HETATM   23  C   UNK A   1      -6.851   8.087  68.369  1.00  0.00    -0.068 C  
HETATM   24  S   UNK A   1      -6.162   7.734  66.719  1.00  0.00    -0.050 SA 
HETATM   25  H   UNK A   1      -4.813   7.406  66.685  1.00  0.00     0.000 H  
ENDBRANCH  14  23
ENDBRANCH  12  14
ENDBRANCH   9  10
ENDBRANCH   8   9
ENDBRANCH   2   8
TORSDOF 7
ENDMDL
MODEL      296
REMARK 921   NORMALIZED FREE ENERGY PREDICTED BY IDOCK:   -2.99 KCAL/MOL
REMARK 922        TOTAL FREE ENERGY PREDICTED BY IDOCK:   -4.78 KCAL/MOL
REMARK 923 INTER-LIGAND FREE ENERGY PREDICTED BY IDOCK:   -3.71 KCAL/MOL
REMARK 924 INTRA-LIGAND FREE ENERGY PREDICTED BY IDOCK:   -1.07 KCAL/MOL
REMARK 927      BINDING AFFINITY PREDICTED BY RF-SCORE:    0.00 PKD
ROOT
HETATM    1  N   UNK A   1     -11.681  10.497  70.237  1.00  0.00    -0.305 NA 
HETATM    2  C   UNK A   1     -11.800   9.017  70.383  1.00  0.00     0.011 C  
HETATM    3  H2  UNK A   1     -11.215  10.742  69.364  1.00  0.00     0.000 HD 
HETATM    4  H1  UNK A   1     -12.577  10.978  70.319  1.00  0.00     0.000 HD 
HETATM    5  O   UNK A   1     -12.888   9.829  72.353  1.00  0.00    -0.328 OA 
HETATM    6  C   UNK A   1     -12.485   8.695  71.723  1.00  0.00    -0.346 C  
HETATM    7  O   UNK A   1     -12.629   7.576  72.188  1.00  0.00    -0.258 OA 
ENDROOT
BRANCH   2   8
HETATM    8  C   UNK A   1     -10.454   8.295  70.260  1.00  0.00    -0.221 C  
BRANCH   8   9
HETATM    9  C   UNK A   1      -9.306   8.958  71.027  1.00  0.00    -0.313 C  
BRANCH   9  10
HETATM   10  C   UNK A   1      -8.384   9.670  70.065  1.00  0.00    -0.182 C  
HETATM   11  O   UNK A   1      -7.185   9.814  70.289  1.00  0.00    -0.119 OA 
HETATM   12  N   UNK A   1      -8.983  10.115  68.916  1.00  0.00    -0.145 N  
HETATM   13  H   UNK A   1      -9.983   9.963  68.787  1.00  0.00     0.000 HD 
BRANCH  12  14
HETATM   14  C   UNK A   1      -8.229  10.800  67.870  1.00  0.00    -0.113 C  
BRANCH  14  15
HETATM   15  C   UNK A   1      -9.031  12.045  67.446  1.00  0.00    -0.176 C  
ATOM     16  H   GLY A   2      -9.404  12.491  69.454  1.00  0.00     0.000 HD 
ATOM     17  N   GLY A   2      -9.607  12.752  68.488  1.00  0.00    -0.162 N  
HETATM   18  O   UNK A   1      -9.077  12.433  66.281  1.00  0.00    -0.194 OA 
BRANCH  17  19
ATOM     19  CA  GLY A   2     -10.511  13.876  68.209  1.00  0.00    -0.250 C  
ATOM     20  C   GLY A   2     -11.451  14.206  69.367  1.00  0.00    -0.288 C  
ATOM     21  O   GLY A   2     -11.289  13.400  70.443  1.00  0.00     0.062 OA 
ATOM     22  OXT GLY A   2     -12.302  15.081  69.324  1.00  0.00    -0.206 OA 
ENDBRANCH  17  19
ENDBRANCH  14  15
BRANCH  14  23
HETATM   23  C   UNK A   1      -8.021   9.946  66.609  1.00  0.00    -0.113 C  
HETATM   24  S   UNK A   1      -6.337   9.295  66.362  1.00  0.00    -0.066 SA 
HETATM   25  H   UNK A   1      -6.149   8.524  65.222  1.00  0.00     0.000 H  
ENDBRANCH  14  23
ENDBRANCH  12  14
ENDBRANCH   9  10
ENDBRANCH   8   9
ENDBRANCH   2   8
TORSDOF 7
ENDMDL
MODEL      297
REMARK 921   NORMALIZED FREE ENERGY PREDICTED BY IDOCK:   -2.99 KCAL/MOL
REMARK 922        TOTAL FREE ENERGY PREDICTED BY IDOCK:   -4.78 KCAL/MOL
REMARK 923 INTER-LIGAND FREE ENERGY PREDICTED BY IDOCK:   -5.15 KCAL/MOL
REMARK 924 INTRA-LIGAND FREE ENERGY PREDICTED BY IDOCK:    0.37 KCAL/MOL
REMARK 927      BINDING AFFINITY PREDICTED BY RF-SCORE:    0.00 PKD
ROOT
HETATM    1  N   UNK A   1      -9.147  19.149  68.869  1.00  0.00    -0.343 NA 
HETATM    2  C   UNK A   1      -8.609  18.120  67.931  1.00  0.00    -0.254 C  
HETATM    3  H2  UNK A   1     -10.136  19.323  68.691  1.00  0.00     0.000 HD 
HETATM    4  H1  UNK A   1      -8.989  18.914  69.849  1.00  0.00     0.000 HD 
HETATM    5  O   UNK A   1      -6.715  18.622  69.304  1.00  0.00    -0.275 OA 
HETATM    6  C   UNK A   1      -7.112  17.907  68.220  1.00  0.00    -0.232 C  
HETATM    7  O   UNK A   1      -6.360  17.215  67.554  1.00  0.00    -0.131 OA 
ENDROOT
BRANCH   2   8
HETATM    8  C   UNK A   1      -8.846  18.473  66.459  1.00  0.00    -0.301 C  
BRANCH   8   9
HETATM    9  C   UNK A   1     -10.296  18.309  65.993  1.00  0.00    -0.377 C  
BRANCH   9  10
HETATM   10  C   UNK A   1     -10.781  16.909  66.287  1.00  0.00    -0.096 C  
HETATM   11  O   UNK A   1     -11.218  16.584  67.387  1.00  0.00    -0.107 OA 
HETATM   12  N   UNK A   1     -10.721  16.044  65.226  1.00  0.00    -0.415 N  
HETATM   13  H   UNK A   1     -10.349  16.376  64.336  1.00  0.00     0.000 HD 
BRANCH  12  14
HETATM   14  C   UNK A   1     -11.175  14.661  65.333  1.00  0.00    -0.347 C  
BRANCH  14  15
HETATM   15  C   UNK A   1     -10.279  13.946  66.362  1.00  0.00    -0.292 C  
ATOM     16  H   GLY A   2     -11.954  12.973  67.147  1.00  0.00     0.000 HD 
ATOM     17  N   GLY A   2     -10.953  13.136  67.261  1.00  0.00    -0.263 N  
HETATM   18  O   UNK A   1      -9.053  14.017  66.330  1.00  0.00    -0.160 OA 
BRANCH  17  19
ATOM     19  CA  GLY A   2     -10.232  12.509  68.377  1.00  0.00    -0.228 C  
ATOM     20  C   GLY A   2     -11.033  11.418  69.085  1.00  0.00    -0.236 C  
ATOM     21  O   GLY A   2     -12.268  11.226  68.563  1.00  0.00    -0.588 OA 
ATOM     22  OXT GLY A   2     -10.628  10.800  70.059  1.00  0.00    -0.181 OA 
ENDBRANCH  17  19
ENDBRANCH  14  15
BRANCH  14  23
HETATM   23  C   UNK A   1     -11.063  13.878  64.016  1.00  0.00     0.057 C  
HETATM   24  S   UNK A   1     -10.375  12.196  64.150  1.00  0.00    -0.376 SA 
HETATM   25  H   UNK A   1     -10.274  11.488  62.959  1.00  0.00     0.000 H  
ENDBRANCH  14  23
ENDBRANCH  12  14
ENDBRANCH   9  10
ENDBRANCH   8   9
ENDBRANCH   2   8
TORSDOF 7
ENDMDL
MODEL      298
REMARK 921   NORMALIZED FREE ENERGY PREDICTED BY IDOCK:   -2.98 KCAL/MOL
REMARK 922        TOTAL FREE ENERGY PREDICTED BY IDOCK:   -4.76 KCAL/MOL
REMARK 923 INTER-LIGAND FREE ENERGY PREDICTED BY IDOCK:   -4.86 KCAL/MOL
REMARK 924 INTRA-LIGAND FREE ENERGY PREDICTED BY IDOCK:    0.10 KCAL/MOL
REMARK 927      BINDING AFFINITY PREDICTED BY RF-SCORE:    0.00 PKD
ROOT
HETATM    1  N   UNK A   1     -12.248  14.536  67.493  1.00  0.00    -0.608 NA 
HETATM    2  C   UNK A   1     -11.700  13.400  66.694  1.00  0.00    -0.385 C  
HETATM    3  H2  UNK A   1     -11.690  14.695  68.331  1.00  0.00     0.000 HD 
HETATM    4  H1  UNK A   1     -12.343  15.393  66.950  1.00  0.00     0.000 HD 
HETATM    5  O   UNK A   1     -13.549  14.133  65.365  1.00  0.00    -0.568 OA 
HETATM    6  C   UNK A   1     -12.586  13.180  65.455  1.00  0.00    -0.454 C  
HETATM    7  O   UNK A   1     -12.470  12.259  64.662  1.00  0.00    -0.432 OA 
ENDROOT
BRANCH   2   8
HETATM    8  C   UNK A   1     -11.558  12.111  67.510  1.00  0.00    -0.413 C  
BRANCH   8   9
HETATM    9  C   UNK A   1     -10.482  12.164  68.599  1.00  0.00    -0.237 C  
BRANCH   9  10
HETATM   10  C   UNK A   1      -9.565  10.969  68.480  1.00  0.00    -0.187 C  
HETATM   11  O   UNK A   1      -9.421  10.159  69.392  1.00  0.00    -0.204 OA 
HETATM   12  N   UNK A   1      -8.933  10.846  67.271  1.00  0.00    -0.137 N  
HETATM   13  H   UNK A   1      -9.095  11.552  66.552  1.00  0.00     0.000 HD 
BRANCH  12  14
HETATM   14  C   UNK A   1      -8.034   9.734  66.982  1.00  0.00    -0.105 C  
BRANCH  14  15
HETATM   15  C   UNK A   1      -8.884   8.453  66.871  1.00  0.00    -0.142 C  
ATOM     16  H   GLY A   2      -7.720   7.550  68.353  1.00  0.00     0.000 HD 
ATOM     17  N   GLY A   2      -8.470   7.406  67.677  1.00  0.00    -0.120 N  
HETATM   18  O   UNK A   1      -9.904   8.398  66.188  1.00  0.00    -0.221 OA 
BRANCH  17  19
ATOM     19  CA  GLY A   2      -9.109   6.087  67.562  1.00  0.00    -0.109 C  
ATOM     20  C   GLY A   2      -9.227   5.348  68.894  1.00  0.00    -0.120 C  
ATOM     21  O   GLY A   2      -8.716   6.036  69.943  1.00  0.00    -0.128 OA 
ATOM     22  OXT GLY A   2      -9.694   4.225  69.010  1.00  0.00    -0.174 OA 
ENDBRANCH  17  19
ENDBRANCH  14  15
BRANCH  14  23
HETATM   23  C   UNK A   1      -6.992   9.489  68.084  1.00  0.00    -0.078 C  
HETATM   24  S   UNK A   1      -5.282   9.221  67.513  1.00  0.00    -0.037 SA 
HETATM   25  H   UNK A   1      -4.339   9.000  68.509  1.00  0.00     0.000 H  
ENDBRANCH  14  23
ENDBRANCH  12  14
ENDBRANCH   9  10
ENDBRANCH   8   9
ENDBRANCH   2   8
TORSDOF 7
ENDMDL
MODEL      299
REMARK 921   NORMALIZED FREE ENERGY PREDICTED BY IDOCK:   -2.94 KCAL/MOL
REMARK 922        TOTAL FREE ENERGY PREDICTED BY IDOCK:   -4.71 KCAL/MOL
REMARK 923 INTER-LIGAND FREE ENERGY PREDICTED BY IDOCK:   -4.03 KCAL/MOL
REMARK 924 INTRA-LIGAND FREE ENERGY PREDICTED BY IDOCK:   -0.68 KCAL/MOL
REMARK 927      BINDING AFFINITY PREDICTED BY RF-SCORE:    0.00 PKD
ROOT
HETATM    1  N   UNK A   1      -8.686  11.423  63.550  1.00  0.00    -0.400 NA 
HETATM    2  C   UNK A   1      -7.913  10.306  64.170  1.00  0.00    -0.126 C  
HETATM    3  H2  UNK A   1      -8.406  12.322  63.944  1.00  0.00     0.000 HD 
HETATM    4  H1  UNK A   1      -8.621  11.435  62.533  1.00  0.00     0.000 HD 
HETATM    5  O   UNK A   1      -9.285   9.174  62.569  1.00  0.00    -0.127 OA 
HETATM    6  C   UNK A   1      -8.385   8.971  63.565  1.00  0.00    -0.181 C  
HETATM    7  O   UNK A   1      -8.029   7.865  63.940  1.00  0.00    -0.142 OA 
ENDROOT
BRANCH   2   8
HETATM    8  C   UNK A   1      -8.012  10.289  65.698  1.00  0.00    -0.150 C  
BRANCH   8   9
HETATM    9  C   UNK A   1      -9.014  11.289  66.282  1.00  0.00    -0.204 C  
BRANCH   9  10
HETATM   10  C   UNK A   1     -10.140  10.552  66.969  1.00  0.00    -0.213 C  
HETATM   11  O   UNK A   1     -11.321  10.767  66.708  1.00  0.00    -0.248 OA 
HETATM   12  N   UNK A   1      -9.741   9.610  67.881  1.00  0.00    -0.143 N  
HETATM   13  H   UNK A   1      -8.744   9.477  68.052  1.00  0.00     0.000 HD 
BRANCH  12  14
HETATM   14  C   UNK A   1     -10.701   8.792  68.613  1.00  0.00    -0.068 C  
BRANCH  14  15
HETATM   15  C   UNK A   1     -10.352   8.876  70.111  1.00  0.00    -0.206 C  
ATOM     16  H   GLY A   2     -11.383   7.091  70.454  1.00  0.00     0.000 HD 
ATOM     17  N   GLY A   2     -10.888   7.867  70.894  1.00  0.00    -0.230 N  
HETATM   18  O   UNK A   1      -9.582   9.721  70.561  1.00  0.00    -0.239 OA 
BRANCH  17  19
ATOM     19  CA  GLY A   2     -10.746   7.911  72.356  1.00  0.00    -0.305 C  
ATOM     20  C   GLY A   2     -10.529   6.538  72.989  1.00  0.00    -0.234 C  
ATOM     21  O   GLY A   2     -10.513   5.523  72.092  1.00  0.00    -0.206 OA 
ATOM     22  OXT GLY A   2     -10.424   6.352  74.192  1.00  0.00    -0.320 OA 
ENDBRANCH  17  19
ENDBRANCH  14  15
BRANCH  14  23
HETATM   23  C   UNK A   1     -10.659   7.306  68.223  1.00  0.00    -0.172 C  
HETATM   24  S   UNK A   1      -9.117   6.735  67.438  1.00  0.00    -0.118 SA 
HETATM   25  H   UNK A   1      -9.078   5.392  67.086  1.00  0.00     0.000 H  
ENDBRANCH  14  23
ENDBRANCH  12  14
ENDBRANCH   9  10
ENDBRANCH   8   9
ENDBRANCH   2   8
TORSDOF 7
ENDMDL
MODEL      300
REMARK 921   NORMALIZED FREE ENERGY PREDICTED BY IDOCK:   -2.93 KCAL/MOL
REMARK 922        TOTAL FREE ENERGY PREDICTED BY IDOCK:   -4.69 KCAL/MOL
REMARK 923 INTER-LIGAND FREE ENERGY PREDICTED BY IDOCK:   -4.17 KCAL/MOL
REMARK 924 INTRA-LIGAND FREE ENERGY PREDICTED BY IDOCK:   -0.52 KCAL/MOL
REMARK 927      BINDING AFFINITY PREDICTED BY RF-SCORE:    0.00 PKD
ROOT
HETATM    1  N   UNK A   1      -8.342  10.654  63.519  1.00  0.00    -0.322 NA 
HETATM    2  C   UNK A   1      -7.478   9.583  64.097  1.00  0.00    -0.122 C  
HETATM    3  H2  UNK A   1      -8.153  11.553  63.961  1.00  0.00     0.000 HD 
HETATM    4  H1  UNK A   1      -8.264  10.723  62.504  1.00  0.00     0.000 HD 
HETATM    5  O   UNK A   1      -8.716   8.412  62.417  1.00  0.00    -0.153 OA 
HETATM    6  C   UNK A   1      -7.815   8.243  63.419  1.00  0.00    -0.152 C  
HETATM    7  O   UNK A   1      -7.363   7.157  63.746  1.00  0.00    -0.074 OA 
ENDROOT
BRANCH   2   8
HETATM    8  C   UNK A   1      -7.597   9.479  65.621  1.00  0.00    -0.101 C  
BRANCH   8   9
HETATM    9  C   UNK A   1      -8.925   8.899  66.117  1.00  0.00    -0.218 C  
BRANCH   9  10
HETATM   10  C   UNK A   1      -9.273   9.482  67.467  1.00  0.00    -0.126 C  
HETATM   11  O   UNK A   1      -9.321   8.797  68.485  1.00  0.00    -0.141 OA 
HETATM   12  N   UNK A   1      -9.500  10.833  67.469  1.00  0.00    -0.154 N  
HETATM   13  H   UNK A   1      -9.443  11.347  66.590  1.00  0.00     0.000 HD 
BRANCH  12  14
HETATM   14  C   UNK A   1      -9.822  11.558  68.694  1.00  0.00    -0.177 C  
BRANCH  14  15
HETATM   15  C   UNK A   1     -11.328  11.383  68.968  1.00  0.00    -0.280 C  
ATOM     16  H   GLY A   2     -10.942  11.254  71.018  1.00  0.00     0.000 HD 
ATOM     17  N   GLY A   2     -11.661  11.181  70.297  1.00  0.00    -0.312 N  
HETATM   18  O   UNK A   1     -12.176  11.505  68.087  1.00  0.00    -0.576 OA 
BRANCH  17  19
ATOM     19  CA  GLY A   2     -13.045  10.861  70.673  1.00  0.00    -0.068 C  
ATOM     20  C   GLY A   2     -13.187   9.527  71.403  1.00  0.00    -0.372 C  
ATOM     21  O   GLY A   2     -12.013   8.872  71.568  1.00  0.00    -0.294 OA 
ATOM     22  OXT GLY A   2     -14.256   9.061  71.768  1.00  0.00    -0.339 OA 
ENDBRANCH  17  19
ENDBRANCH  14  15
BRANCH  14  23
HETATM   23  C   UNK A   1      -9.553  13.068  68.599  1.00  0.00    -0.023 C  
HETATM   24  S   UNK A   1      -8.244  13.568  67.434  1.00  0.00    -0.165 SA 
HETATM   25  H   UNK A   1      -8.002  14.934  67.347  1.00  0.00     0.000 H  
ENDBRANCH  14  23
ENDBRANCH  12  14
ENDBRANCH   9  10
ENDBRANCH   8   9
ENDBRANCH   2   8
TORSDOF 7
ENDMDL
MODEL      301
REMARK 921   NORMALIZED FREE ENERGY PREDICTED BY IDOCK:   -2.91 KCAL/MOL
REMARK 922        TOTAL FREE ENERGY PREDICTED BY IDOCK:   -4.66 KCAL/MOL
REMARK 923 INTER-LIGAND FREE ENERGY PREDICTED BY IDOCK:   -4.05 KCAL/MOL
REMARK 924 INTRA-LIGAND FREE ENERGY PREDICTED BY IDOCK:   -0.61 KCAL/MOL
REMARK 927      BINDING AFFINITY PREDICTED BY RF-SCORE:    0.00 PKD
ROOT
HETATM    1  N   UNK A   1     -10.088  14.351  69.164  1.00  0.00    -0.398 NA 
HETATM    2  C   UNK A   1      -9.825  14.830  67.774  1.00  0.00    -0.214 C  
HETATM    3  H2  UNK A   1      -9.218  14.259  69.688  1.00  0.00     0.000 HD 
HETATM    4  H1  UNK A   1     -10.756  14.936  69.665  1.00  0.00     0.000 HD 
HETATM    5  O   UNK A   1     -12.211  14.664  67.831  1.00  0.00    -0.241 OA 
HETATM    6  C   UNK A   1     -11.159  14.930  67.014  1.00  0.00    -0.338 C  
HETATM    7  O   UNK A   1     -11.273  15.184  65.826  1.00  0.00    -0.337 OA 
ENDROOT
BRANCH   2   8
HETATM    8  C   UNK A   1      -8.821  13.951  67.021  1.00  0.00    -0.231 C  
BRANCH   8   9
HETATM    9  C   UNK A   1      -8.077  12.941  67.899  1.00  0.00    -0.161 C  
BRANCH   9  10
HETATM   10  C   UNK A   1      -8.523  11.536  67.565  1.00  0.00    -0.143 C  
HETATM   11  O   UNK A   1      -9.024  11.247  66.482  1.00  0.00    -0.172 OA 
HETATM   12  N   UNK A   1      -8.299  10.611  68.551  1.00  0.00    -0.123 N  
HETATM   13  H   UNK A   1      -7.877  10.914  69.429  1.00  0.00     0.000 HD 
BRANCH  12  14
HETATM   14  C   UNK A   1      -8.646   9.204  68.379  1.00  0.00    -0.129 C  
BRANCH  14  15
HETATM   15  C   UNK A   1      -9.827   8.890  69.317  1.00  0.00    -0.176 C  
ATOM     16  H   GLY A   2      -8.486   8.396  70.843  1.00  0.00     0.000 HD 
ATOM     17  N   GLY A   2      -9.469   8.419  70.570  1.00  0.00    -0.166 N  
HETATM   18  O   UNK A   1     -10.993   9.126  69.010  1.00  0.00    -0.143 OA 
BRANCH  17  19
ATOM     19  CA  GLY A   2     -10.501   7.951  71.506  1.00  0.00    -0.210 C  
ATOM     20  C   GLY A   2     -10.650   6.431  71.540  1.00  0.00    -0.231 C  
ATOM     21  O   GLY A   2      -9.810   5.785  70.696  1.00  0.00    -0.175 OA 
ATOM     22  OXT GLY A   2     -11.474   5.843  72.224  1.00  0.00    -0.293 OA 
ENDBRANCH  17  19
ENDBRANCH  14  15
BRANCH  14  23
HETATM   23  C   UNK A   1      -7.506   8.244  68.752  1.00  0.00    -0.096 C  
HETATM   24  S   UNK A   1      -6.898   7.175  67.408  1.00  0.00    -0.072 SA 
HETATM   25  H   UNK A   1      -5.867   6.307  67.745  1.00  0.00     0.000 H  
ENDBRANCH  14  23
ENDBRANCH  12  14
ENDBRANCH   9  10
ENDBRANCH   8   9
ENDBRANCH   2   8
TORSDOF 7
ENDMDL
MODEL      302
REMARK 921   NORMALIZED FREE ENERGY PREDICTED BY IDOCK:   -2.90 KCAL/MOL
REMARK 922        TOTAL FREE ENERGY PREDICTED BY IDOCK:   -4.66 KCAL/MOL
REMARK 923 INTER-LIGAND FREE ENERGY PREDICTED BY IDOCK:   -3.53 KCAL/MOL
REMARK 924 INTRA-LIGAND FREE ENERGY PREDICTED BY IDOCK:   -1.13 KCAL/MOL
REMARK 927      BINDING AFFINITY PREDICTED BY RF-SCORE:    0.00 PKD
ROOT
HETATM    1  N   UNK A   1      -9.417   2.970  69.150  1.00  0.00    -0.145 NA 
HETATM    2  C   UNK A   1      -9.745   4.387  68.814  1.00  0.00    -0.129 C  
HETATM    3  H2  UNK A   1     -10.216   2.502  69.576  1.00  0.00     0.000 HD 
HETATM    4  H1  UNK A   1      -9.068   2.443  68.350  1.00  0.00     0.000 HD 
HETATM    5  O   UNK A   1      -7.495   4.168  68.031  1.00  0.00    -0.066 OA 
HETATM    6  C   UNK A   1      -8.505   5.060  68.199  1.00  0.00    -0.099 C  
HETATM    7  O   UNK A   1      -8.414   6.245  67.921  1.00  0.00    -0.117 OA 
ENDROOT
BRANCH   2   8
HETATM    8  C   UNK A   1     -10.268   5.179  70.016  1.00  0.00    -0.354 C  
BRANCH   8   9
HETATM    9  C   UNK A   1     -11.329   6.230  69.672  1.00  0.00    -0.492 C  
BRANCH   9  10
HETATM   10  C   UNK A   1     -10.922   7.577  70.222  1.00  0.00    -0.250 C  
HETATM   11  O   UNK A   1     -11.722   8.334  70.763  1.00  0.00    -0.277 OA 
HETATM   12  N   UNK A   1      -9.590   7.872  70.094  1.00  0.00    -0.175 N  
HETATM   13  H   UNK A   1      -8.974   7.200  69.635  1.00  0.00     0.000 HD 
BRANCH  12  14
HETATM   14  C   UNK A   1      -9.027   9.121  70.596  1.00  0.00    -0.244 C  
BRANCH  14  15
HETATM   15  C   UNK A   1      -8.956  10.116  69.422  1.00  0.00    -0.191 C  
ATOM     16  H   GLY A   2      -7.088   9.349  68.882  1.00  0.00     0.000 HD 
ATOM     17  N   GLY A   2      -7.782  10.072  68.688  1.00  0.00    -0.084 N  
HETATM   18  O   UNK A   1      -9.905  10.828  69.104  1.00  0.00    -0.209 OA 
BRANCH  17  19
ATOM     19  CA  GLY A   2      -7.532  11.062  67.632  1.00  0.00    -0.096 C  
ATOM     20  C   GLY A   2      -6.555  12.161  68.044  1.00  0.00    -0.069 C  
ATOM     21  O   GLY A   2      -6.097  12.032  69.312  1.00  0.00    -0.072 OA 
ATOM     22  OXT GLY A   2      -6.241  13.098  67.325  1.00  0.00    -0.298 OA 
ENDBRANCH  17  19
ENDBRANCH  14  15
BRANCH  14  23
HETATM   23  C   UNK A   1      -7.599   8.970  71.145  1.00  0.00    -0.102 C  
HETATM   24  S   UNK A   1      -6.930   7.275  71.158  1.00  0.00    -0.060 SA 
HETATM   25  H   UNK A   1      -5.640   7.138  71.654  1.00  0.00     0.000 H  
ENDBRANCH  14  23
ENDBRANCH  12  14
ENDBRANCH   9  10
ENDBRANCH   8   9
ENDBRANCH   2   8
TORSDOF 7
ENDMDL
MODEL      303
REMARK 921   NORMALIZED FREE ENERGY PREDICTED BY IDOCK:   -2.89 KCAL/MOL
REMARK 922        TOTAL FREE ENERGY PREDICTED BY IDOCK:   -4.64 KCAL/MOL
REMARK 923 INTER-LIGAND FREE ENERGY PREDICTED BY IDOCK:   -5.43 KCAL/MOL
REMARK 924 INTRA-LIGAND FREE ENERGY PREDICTED BY IDOCK:    0.79 KCAL/MOL
REMARK 927      BINDING AFFINITY PREDICTED BY RF-SCORE:    0.00 PKD
ROOT
HETATM    1  N   UNK A   1     -12.396  10.953  68.527  1.00  0.00    -0.744 NA 
HETATM    2  C   UNK A   1     -10.970  10.707  68.896  1.00  0.00    -0.249 C  
HETATM    3  H2  UNK A   1     -12.993  10.192  68.850  1.00  0.00     0.000 HD 
HETATM    4  H1  UNK A   1     -12.741  11.854  68.857  1.00  0.00     0.000 HD 
HETATM    5  O   UNK A   1     -10.872  12.837  67.812  1.00  0.00    -0.217 OA 
HETATM    6  C   UNK A   1     -10.105  11.865  68.368  1.00  0.00    -0.206 C  
HETATM    7  O   UNK A   1      -8.886  11.906  68.409  1.00  0.00    -0.178 OA 
ENDROOT
BRANCH   2   8
HETATM    8  C   UNK A   1     -10.451   9.354  68.399  1.00  0.00    -0.256 C  
BRANCH   8   9
HETATM    9  C   UNK A   1      -9.000   9.372  67.907  1.00  0.00    -0.126 C  
BRANCH   9  10
HETATM   10  C   UNK A   1      -8.955   9.124  66.417  1.00  0.00    -0.149 C  
HETATM   11  O   UNK A   1      -9.441   8.120  65.904  1.00  0.00    -0.135 OA 
HETATM   12  N   UNK A   1      -8.359  10.117  65.686  1.00  0.00    -0.145 N  
HETATM   13  H   UNK A   1      -7.976  10.929  66.171  1.00  0.00     0.000 HD 
BRANCH  12  14
HETATM   14  C   UNK A   1      -8.256  10.048  64.232  1.00  0.00    -0.166 C  
BRANCH  14  15
HETATM   15  C   UNK A   1      -9.563  10.607  63.637  1.00  0.00    -0.314 C  
ATOM     16  H   GLY A   2      -9.794  11.846  65.304  1.00  0.00     0.000 HD 
ATOM     17  N   GLY A   2     -10.226  11.520  64.439  1.00  0.00    -0.278 N  
HETATM   18  O   UNK A   1      -9.938  10.334  62.499  1.00  0.00    -0.084 OA 
BRANCH  17  19
ATOM     19  CA  GLY A   2     -11.551  12.022  64.050  1.00  0.00    -0.411 C  
ATOM     20  C   GLY A   2     -11.661  13.545  64.081  1.00  0.00    -0.376 C  
ATOM     21  O   GLY A   2     -10.520  14.163  64.469  1.00  0.00    -0.408 OA 
ATOM     22  OXT GLY A   2     -12.686  14.159  63.827  1.00  0.00    -0.761 OA 
ENDBRANCH  17  19
ENDBRANCH  14  15
BRANCH  14  23
HETATM   23  C   UNK A   1      -8.095   8.615  63.700  1.00  0.00    -0.163 C  
HETATM   24  S   UNK A   1      -6.394   7.964  63.679  1.00  0.00    -0.063 SA 
HETATM   25  H   UNK A   1      -6.248   6.668  63.198  1.00  0.00     0.000 H  
ENDBRANCH  14  23
ENDBRANCH  12  14
ENDBRANCH   9  10
ENDBRANCH   8   9
ENDBRANCH   2   8
TORSDOF 7
ENDMDL
MODEL      304
REMARK 921   NORMALIZED FREE ENERGY PREDICTED BY IDOCK:   -2.88 KCAL/MOL
REMARK 922        TOTAL FREE ENERGY PREDICTED BY IDOCK:   -4.62 KCAL/MOL
REMARK 923 INTER-LIGAND FREE ENERGY PREDICTED BY IDOCK:   -3.99 KCAL/MOL
REMARK 924 INTRA-LIGAND FREE ENERGY PREDICTED BY IDOCK:   -0.63 KCAL/MOL
REMARK 927      BINDING AFFINITY PREDICTED BY RF-SCORE:    0.00 PKD
ROOT
HETATM    1  N   UNK A   1      -8.292  12.650  68.754  1.00  0.00    -0.356 NA 
HETATM    2  C   UNK A   1      -8.636  11.344  68.119  1.00  0.00    -0.153 C  
HETATM    3  H2  UNK A   1      -7.530  12.541  69.423  1.00  0.00     0.000 HD 
HETATM    4  H1  UNK A   1      -8.079  13.379  68.073  1.00  0.00     0.000 HD 
HETATM    5  O   UNK A   1     -10.131  12.866  67.036  1.00  0.00    -0.239 OA 
HETATM    6  C   UNK A   1      -9.804  11.552  67.138  1.00  0.00    -0.191 C  
HETATM    7  O   UNK A   1     -10.391  10.661  66.545  1.00  0.00    -0.232 OA 
ENDROOT
BRANCH   2   8
HETATM    8  C   UNK A   1      -8.958  10.250  69.142  1.00  0.00    -0.187 C  
BRANCH   8   9
HETATM    9  C   UNK A   1      -7.772   9.827  70.014  1.00  0.00    -0.179 C  
BRANCH   9  10
HETATM   10  C   UNK A   1      -7.717   8.321  70.119  1.00  0.00    -0.084 C  
HETATM   11  O   UNK A   1      -7.128   7.626  69.296  1.00  0.00    -0.072 OA 
HETATM   12  N   UNK A   1      -8.349   7.797  71.216  1.00  0.00    -0.101 N  
HETATM   13  H   UNK A   1      -8.820   8.427  71.866  1.00  0.00     0.000 HD 
BRANCH  12  14
HETATM   14  C   UNK A   1      -8.367   6.362  71.482  1.00  0.00    -0.125 C  
BRANCH  14  15
HETATM   15  C   UNK A   1      -9.832   5.938  71.699  1.00  0.00    -0.165 C  
ATOM     16  H   GLY A   2     -10.467   7.863  71.187  1.00  0.00     0.000 HD 
ATOM     17  N   GLY A   2     -10.764   6.949  71.530  1.00  0.00    -0.222 N  
HETATM   18  O   UNK A   1     -10.155   4.772  71.913  1.00  0.00    -0.186 OA 
BRANCH  17  19
ATOM     19  CA  GLY A   2     -12.180   6.710  71.843  1.00  0.00    -0.335 C  
ATOM     20  C   GLY A   2     -13.094   7.871  71.459  1.00  0.00    -0.311 C  
ATOM     21  O   GLY A   2     -12.437   8.918  70.905  1.00  0.00    -0.198 OA 
ATOM     22  OXT GLY A   2     -14.298   7.888  71.668  1.00  0.00    -0.426 OA 
ENDBRANCH  17  19
ENDBRANCH  14  15
BRANCH  14  23
HETATM   23  C   UNK A   1      -7.591   5.966  72.748  1.00  0.00    -0.096 C  
HETATM   24  S   UNK A   1      -8.016   6.890  74.260  1.00  0.00    -0.127 SA 
HETATM   25  H   UNK A   1      -7.315   6.532  75.405  1.00  0.00     0.000 H  
ENDBRANCH  14  23
ENDBRANCH  12  14
ENDBRANCH   9  10
ENDBRANCH   8   9
ENDBRANCH   2   8
TORSDOF 7
ENDMDL
MODEL      305
REMARK 921   NORMALIZED FREE ENERGY PREDICTED BY IDOCK:   -2.86 KCAL/MOL
REMARK 922        TOTAL FREE ENERGY PREDICTED BY IDOCK:   -4.60 KCAL/MOL
REMARK 923 INTER-LIGAND FREE ENERGY PREDICTED BY IDOCK:   -4.35 KCAL/MOL
REMARK 924 INTRA-LIGAND FREE ENERGY PREDICTED BY IDOCK:   -0.25 KCAL/MOL
REMARK 927      BINDING AFFINITY PREDICTED BY RF-SCORE:    0.00 PKD
ROOT
HETATM    1  N   UNK A   1     -11.209   7.275  69.253  1.00  0.00    -0.461 NA 
HETATM    2  C   UNK A   1     -11.076   8.686  69.721  1.00  0.00    -0.067 C  
HETATM    3  H2  UNK A   1     -12.015   7.169  68.637  1.00  0.00     0.000 HD 
HETATM    4  H1  UNK A   1     -10.361   6.922  68.809  1.00  0.00     0.000 HD 
HETATM    5  O   UNK A   1      -9.190   7.616  70.732  1.00  0.00    -0.156 OA 
HETATM    6  C   UNK A   1      -9.865   8.792  70.665  1.00  0.00    -0.194 C  
HETATM    7  O   UNK A   1      -9.555   9.787  71.302  1.00  0.00    -0.029 OA 
ENDROOT
BRANCH   2   8
HETATM    8  C   UNK A   1     -12.349   9.215  70.389  1.00  0.00     0.251 C  
BRANCH   8   9
HETATM    9  C   UNK A   1     -12.506  10.738  70.341  1.00  0.00    -0.430 C  
BRANCH   9  10
HETATM   10  C   UNK A   1     -11.775  11.296  69.142  1.00  0.00    -0.341 C  
HETATM   11  O   UNK A   1     -12.228  11.219  68.003  1.00  0.00    -0.621 OA 
HETATM   12  N   UNK A   1     -10.588  11.917  69.428  1.00  0.00    -0.444 N  
HETATM   13  H   UNK A   1     -10.267  11.950  70.396  1.00  0.00     0.000 HD 
BRANCH  12  14
HETATM   14  C   UNK A   1      -9.771  12.534  68.389  1.00  0.00    -0.189 C  
BRANCH  14  15
HETATM   15  C   UNK A   1      -9.288  11.419  67.441  1.00  0.00    -0.167 C  
ATOM     16  H   GLY A   2      -9.907  12.547  65.794  1.00  0.00     0.000 HD 
ATOM     17  N   GLY A   2      -9.530  11.649  66.097  1.00  0.00    -0.219 N  
HETATM   18  O   UNK A   1      -8.655  10.444  67.840  1.00  0.00    -0.117 OA 
BRANCH  17  19
ATOM     19  CA  GLY A   2      -9.245  10.603  65.105  1.00  0.00    -0.207 C  
ATOM     20  C   GLY A   2      -9.696  10.964  63.691  1.00  0.00    -0.329 C  
ATOM     21  O   GLY A   2     -10.284  12.181  63.604  1.00  0.00    -0.400 OA 
ATOM     22  OXT GLY A   2      -9.584  10.219  62.729  1.00  0.00    -0.315 OA 
ENDBRANCH  17  19
ENDBRANCH  14  15
BRANCH  14  23
HETATM   23  C   UNK A   1      -8.518  13.237  68.934  1.00  0.00     0.251 C  
HETATM   24  S   UNK A   1      -7.326  13.815  67.683  1.00  0.00    -0.166 SA 
HETATM   25  H   UNK A   1      -6.193  14.451  68.175  1.00  0.00     0.000 H  
ENDBRANCH  14  23
ENDBRANCH  12  14
ENDBRANCH   9  10
ENDBRANCH   8   9
ENDBRANCH   2   8
TORSDOF 7
ENDMDL
MODEL      306
REMARK 921   NORMALIZED FREE ENERGY PREDICTED BY IDOCK:   -2.86 KCAL/MOL
REMARK 922        TOTAL FREE ENERGY PREDICTED BY IDOCK:   -4.60 KCAL/MOL
REMARK 923 INTER-LIGAND FREE ENERGY PREDICTED BY IDOCK:   -4.01 KCAL/MOL
REMARK 924 INTRA-LIGAND FREE ENERGY PREDICTED BY IDOCK:   -0.59 KCAL/MOL
REMARK 927      BINDING AFFINITY PREDICTED BY RF-SCORE:    0.00 PKD
ROOT
HETATM    1  N   UNK A   1      -7.950  10.688  63.138  1.00  0.00    -0.328 NA 
HETATM    2  C   UNK A   1      -7.163   9.899  64.131  1.00  0.00    -0.134 C  
HETATM    3  H2  UNK A   1      -7.754  11.684  63.225  1.00  0.00     0.000 HD 
HETATM    4  H1  UNK A   1      -7.811  10.371  62.179  1.00  0.00     0.000 HD 
HETATM    5  O   UNK A   1      -8.344   8.201  62.929  1.00  0.00    -0.150 OA 
HETATM    6  C   UNK A   1      -7.510   8.407  63.980  1.00  0.00    -0.111 C  
HETATM    7  O   UNK A   1      -7.119   7.517  64.718  1.00  0.00    -0.059 OA 
ENDROOT
BRANCH   2   8
HETATM    8  C   UNK A   1      -7.373  10.375  65.572  1.00  0.00    -0.139 C  
BRANCH   8   9
HETATM    9  C   UNK A   1      -8.800  10.831  65.888  1.00  0.00    -0.191 C  
BRANCH   9  10
HETATM   10  C   UNK A   1      -9.414   9.928  66.933  1.00  0.00    -0.163 C  
HETATM   11  O   UNK A   1     -10.121   8.969  66.637  1.00  0.00    -0.255 OA 
HETATM   12  N   UNK A   1      -9.096  10.245  68.227  1.00  0.00    -0.136 N  
HETATM   13  H   UNK A   1      -8.501  11.054  68.408  1.00  0.00     0.000 HD 
BRANCH  12  14
HETATM   14  C   UNK A   1      -9.584   9.457  69.355  1.00  0.00    -0.173 C  
BRANCH  14  15
HETATM   15  C   UNK A   1     -10.722  10.247  70.028  1.00  0.00    -0.292 C  
ATOM     16  H   GLY A   2     -10.862  11.481  68.347  1.00  0.00     0.000 HD 
ATOM     17  N   GLY A   2     -11.198  11.324  69.298  1.00  0.00    -0.251 N  
HETATM   18  O   UNK A   1     -11.231   9.894  71.089  1.00  0.00    -0.354 OA 
BRANCH  17  19
ATOM     19  CA  GLY A   2     -12.184  12.239  69.887  1.00  0.00    -0.163 C  
ATOM     20  C   GLY A   2     -12.048  13.680  69.398  1.00  0.00    -0.314 C  
ATOM     21  O   GLY A   2     -11.038  13.859  68.512  1.00  0.00    -0.244 OA 
ATOM     22  OXT GLY A   2     -12.747  14.602  69.792  1.00  0.00    -0.201 OA 
ENDBRANCH  17  19
ENDBRANCH  14  15
BRANCH  14  23
HETATM   23  C   UNK A   1      -8.515   9.202  70.429  1.00  0.00    -0.199 C  
HETATM   24  S   UNK A   1      -6.933  10.078  70.197  1.00  0.00    -0.154 SA 
HETATM   25  H   UNK A   1      -5.967   9.847  71.169  1.00  0.00     0.000 H  
ENDBRANCH  14  23
ENDBRANCH  12  14
ENDBRANCH   9  10
ENDBRANCH   8   9
ENDBRANCH   2   8
TORSDOF 7
ENDMDL
MODEL      307
REMARK 921   NORMALIZED FREE ENERGY PREDICTED BY IDOCK:   -2.86 KCAL/MOL
REMARK 922        TOTAL FREE ENERGY PREDICTED BY IDOCK:   -4.59 KCAL/MOL
REMARK 923 INTER-LIGAND FREE ENERGY PREDICTED BY IDOCK:   -4.08 KCAL/MOL
REMARK 924 INTRA-LIGAND FREE ENERGY PREDICTED BY IDOCK:   -0.51 KCAL/MOL
REMARK 927      BINDING AFFINITY PREDICTED BY RF-SCORE:    0.00 PKD
ROOT
HETATM    1  N   UNK A   1     -10.555   3.491  72.897  1.00  0.00    -0.156 NA 
HETATM    2  C   UNK A   1      -9.811   3.627  71.609  1.00  0.00    -0.160 C  
HETATM    3  H2  UNK A   1     -11.487   3.898  72.824  1.00  0.00     0.000 HD 
HETATM    4  H1  UNK A   1     -10.602   2.527  73.227  1.00  0.00     0.000 HD 
HETATM    5  O   UNK A   1      -8.259   2.441  72.990  1.00  0.00    -0.057 OA 
HETATM    6  C   UNK A   1      -8.405   3.023  71.772  1.00  0.00    -0.061 C  
HETATM    7  O   UNK A   1      -7.516   3.078  70.937  1.00  0.00    -0.036 OA 
ENDROOT
BRANCH   2   8
HETATM    8  C   UNK A   1      -9.740   5.075  71.112  1.00  0.00    -0.241 C  
BRANCH   8   9
HETATM    9  C   UNK A   1      -9.920   5.237  69.600  1.00  0.00    -0.302 C  
BRANCH   9  10
HETATM   10  C   UNK A   1     -10.576   6.564  69.295  1.00  0.00    -0.247 C  
HETATM   11  O   UNK A   1     -11.706   6.842  69.688  1.00  0.00    -0.232 OA 
HETATM   12  N   UNK A   1      -9.803   7.437  68.576  1.00  0.00    -0.155 N  
HETATM   13  H   UNK A   1      -8.871   7.146  68.280  1.00  0.00     0.000 HD 
BRANCH  12  14
HETATM   14  C   UNK A   1     -10.276   8.770  68.220  1.00  0.00    -0.201 C  
BRANCH  14  15
HETATM   15  C   UNK A   1      -9.886   9.037  66.754  1.00  0.00    -0.234 C  
ATOM     16  H   GLY A   2     -10.758  10.934  66.865  1.00  0.00     0.000 HD 
ATOM     17  N   GLY A   2     -10.312  10.254  66.248  1.00  0.00    -0.215 N  
HETATM   18  O   UNK A   1      -9.171   8.270  66.113  1.00  0.00    -0.188 OA 
BRANCH  17  19
ATOM     19  CA  GLY A   2     -10.126  10.569  64.825  1.00  0.00    -0.336 C  
ATOM     20  C   GLY A   2     -10.184  12.064  64.519  1.00  0.00    -0.286 C  
ATOM     21  O   GLY A   2     -10.403  12.834  65.612  1.00  0.00    -0.271 OA 
ATOM     22  OXT GLY A   2     -10.088  12.533  63.394  1.00  0.00    -0.396 OA 
ENDBRANCH  17  19
ENDBRANCH  14  15
BRANCH  14  23
HETATM   23  C   UNK A   1      -9.645   9.888  69.066  1.00  0.00    -0.186 C  
HETATM   24  S   UNK A   1      -7.824   9.929  69.092  1.00  0.00    -0.116 SA 
HETATM   25  H   UNK A   1      -7.253  10.939  69.857  1.00  0.00     0.000 H  
ENDBRANCH  14  23
ENDBRANCH  12  14
ENDBRANCH   9  10
ENDBRANCH   8   9
ENDBRANCH   2   8
TORSDOF 7
ENDMDL
MODEL      308
REMARK 921   NORMALIZED FREE ENERGY PREDICTED BY IDOCK:   -2.86 KCAL/MOL
REMARK 922        TOTAL FREE ENERGY PREDICTED BY IDOCK:   -4.59 KCAL/MOL
REMARK 923 INTER-LIGAND FREE ENERGY PREDICTED BY IDOCK:   -4.21 KCAL/MOL
REMARK 924 INTRA-LIGAND FREE ENERGY PREDICTED BY IDOCK:   -0.38 KCAL/MOL
REMARK 927      BINDING AFFINITY PREDICTED BY RF-SCORE:    0.00 PKD
ROOT
HETATM    1  N   UNK A   1     -12.387   7.636  72.545  1.00  0.00    -0.547 NA 
HETATM    2  C   UNK A   1     -11.458   6.881  71.653  1.00  0.00    -0.275 C  
HETATM    3  H2  UNK A   1     -13.345   7.305  72.438  1.00  0.00     0.000 HD 
HETATM    4  H1  UNK A   1     -12.101   7.616  73.524  1.00  0.00     0.000 HD 
HETATM    5  O   UNK A   1      -9.983   8.366  72.813  1.00  0.00    -0.284 OA 
HETATM    6  C   UNK A   1     -10.031   7.431  71.829  1.00  0.00    -0.171 C  
HETATM    7  O   UNK A   1      -9.064   7.102  71.161  1.00  0.00    -0.151 OA 
ENDROOT
BRANCH   2   8
HETATM    8  C   UNK A   1     -11.887   6.912  70.182  1.00  0.00    -0.266 C  
BRANCH   8   9
HETATM    9  C   UNK A   1     -11.019   6.063  69.249  1.00  0.00    -0.436 C  
BRANCH   9  10
HETATM   10  C   UNK A   1     -10.721   6.826  67.980  1.00  0.00    -0.241 C  
HETATM   11  O   UNK A   1     -11.132   6.460  66.882  1.00  0.00    -0.384 OA 
HETATM   12  N   UNK A   1      -9.986   7.969  68.154  1.00  0.00    -0.178 N  
HETATM   13  H   UNK A   1      -9.676   8.221  69.093  1.00  0.00     0.000 HD 
BRANCH  12  14
HETATM   14  C   UNK A   1      -9.635   8.837  67.035  1.00  0.00    -0.179 C  
BRANCH  14  15
HETATM   15  C   UNK A   1      -8.247   8.409  66.521  1.00  0.00    -0.105 C  
ATOM     16  H   GLY A   2      -8.428   9.739  64.919  1.00  0.00     0.000 HD 
ATOM     17  N   GLY A   2      -7.855   9.003  65.333  1.00  0.00    -0.098 N  
HETATM   18  O   UNK A   1      -7.506   7.669  67.164  1.00  0.00    -0.091 OA 
BRANCH  17  19
ATOM     19  CA  GLY A   2      -6.617   8.577  64.666  1.00  0.00    -0.066 C  
ATOM     20  C   GLY A   2      -6.586   8.900  63.173  1.00  0.00    -0.090 C  
ATOM     21  O   GLY A   2      -7.707   9.516  62.728  1.00  0.00    -0.113 OA 
ATOM     22  OXT GLY A   2      -5.664   8.598  62.430  1.00  0.00    -0.079 OA 
ENDBRANCH  17  19
ENDBRANCH  14  15
BRANCH  14  23
HETATM   23  C   UNK A   1      -9.536  10.321  67.420  1.00  0.00    -0.153 C  
HETATM   24  S   UNK A   1     -11.101  11.253  67.392  1.00  0.00    -0.300 SA 
HETATM   25  H   UNK A   1     -11.012  12.595  67.741  1.00  0.00     0.000 H  
ENDBRANCH  14  23
ENDBRANCH  12  14
ENDBRANCH   9  10
ENDBRANCH   8   9
ENDBRANCH   2   8
TORSDOF 7
ENDMDL
MODEL      309
REMARK 921   NORMALIZED FREE ENERGY PREDICTED BY IDOCK:   -2.84 KCAL/MOL
REMARK 922        TOTAL FREE ENERGY PREDICTED BY IDOCK:   -4.57 KCAL/MOL
REMARK 923 INTER-LIGAND FREE ENERGY PREDICTED BY IDOCK:   -3.99 KCAL/MOL
REMARK 924 INTRA-LIGAND FREE ENERGY PREDICTED BY IDOCK:   -0.59 KCAL/MOL
REMARK 927      BINDING AFFINITY PREDICTED BY RF-SCORE:    0.00 PKD
ROOT
HETATM    1  N   UNK A   1     -11.389   4.656  64.949  1.00  0.00    -0.988 NA 
HETATM    2  C   UNK A   1     -10.017   4.212  64.564  1.00  0.00    -0.161 C  
HETATM    3  H2  UNK A   1     -11.359   5.546  65.446  1.00  0.00     0.000 HD 
HETATM    4  H1  UNK A   1     -12.028   4.703  64.156  1.00  0.00     0.000 HD 
HETATM    5  O   UNK A   1     -11.402   2.488  63.654  1.00  0.00    -0.236 OA 
HETATM    6  C   UNK A   1     -10.109   2.857  63.840  1.00  0.00    -0.162 C  
HETATM    7  O   UNK A   1      -9.155   2.177  63.499  1.00  0.00    -0.091 OA 
ENDROOT
BRANCH   2   8
HETATM    8  C   UNK A   1      -9.057   4.141  65.756  1.00  0.00    -0.136 C  
BRANCH   8   9
HETATM    9  C   UNK A   1      -9.739   4.202  67.126  1.00  0.00    -0.224 C  
BRANCH   9  10
HETATM   10  C   UNK A   1      -9.170   5.342  67.938  1.00  0.00    -0.110 C  
HETATM   11  O   UNK A   1      -7.979   5.640  67.906  1.00  0.00    -0.096 OA 
HETATM   12  N   UNK A   1     -10.088   6.031  68.686  1.00  0.00    -0.155 N  
HETATM   13  H   UNK A   1     -11.064   5.735  68.669  1.00  0.00     0.000 HD 
BRANCH  12  14
HETATM   14  C   UNK A   1      -9.708   7.176  69.507  1.00  0.00    -0.157 C  
BRANCH  14  15
HETATM   15  C   UNK A   1     -10.002   6.824  70.978  1.00  0.00    -0.182 C  
ATOM     16  H   GLY A   2      -8.263   5.667  71.050  1.00  0.00     0.000 HD 
ATOM     17  N   GLY A   2      -9.100   5.950  71.561  1.00  0.00    -0.143 N  
HETATM   18  O   UNK A   1     -10.914   7.351  71.611  1.00  0.00    -0.224 OA 
BRANCH  17  19
ATOM     19  CA  GLY A   2      -9.345   5.426  72.912  1.00  0.00    -0.137 C  
ATOM     20  C   GLY A   2      -9.818   3.974  72.927  1.00  0.00    -0.138 C  
ATOM     21  O   GLY A   2      -9.935   3.429  71.693  1.00  0.00    -0.168 OA 
ATOM     22  OXT GLY A   2     -10.111   3.364  73.945  1.00  0.00    -0.111 OA 
ENDBRANCH  17  19
ENDBRANCH  14  15
BRANCH  14  23
HETATM   23  C   UNK A   1     -10.503   8.451  69.181  1.00  0.00    -0.206 C  
HETATM   24  S   UNK A   1      -9.521   9.867  68.589  1.00  0.00    -0.158 SA 
HETATM   25  H   UNK A   1     -10.239  11.020  68.294  1.00  0.00     0.000 H  
ENDBRANCH  14  23
ENDBRANCH  12  14
ENDBRANCH   9  10
ENDBRANCH   8   9
ENDBRANCH   2   8
TORSDOF 7
ENDMDL
MODEL      310
REMARK 921   NORMALIZED FREE ENERGY PREDICTED BY IDOCK:   -2.83 KCAL/MOL
REMARK 922        TOTAL FREE ENERGY PREDICTED BY IDOCK:   -4.55 KCAL/MOL
REMARK 923 INTER-LIGAND FREE ENERGY PREDICTED BY IDOCK:   -4.27 KCAL/MOL
REMARK 924 INTRA-LIGAND FREE ENERGY PREDICTED BY IDOCK:   -0.28 KCAL/MOL
REMARK 927      BINDING AFFINITY PREDICTED BY RF-SCORE:    0.00 PKD
ROOT
HETATM    1  N   UNK A   1      -8.977   5.503  73.976  1.00  0.00    -0.119 NA 
HETATM    2  C   UNK A   1     -10.207   6.308  73.717  1.00  0.00    -0.273 C  
HETATM    3  H2  UNK A   1      -8.391   5.949  74.681  1.00  0.00     0.000 HD 
HETATM    4  H1  UNK A   1      -9.181   4.536  74.230  1.00  0.00     0.000 HD 
HETATM    5  O   UNK A   1     -10.505   4.415  72.285  1.00  0.00    -0.183 OA 
HETATM    6  C   UNK A   1     -11.046   5.611  72.631  1.00  0.00    -0.282 C  
HETATM    7  O   UNK A   1     -12.053   6.073  72.118  1.00  0.00    -0.304 OA 
ENDROOT
BRANCH   2   8
HETATM    8  C   UNK A   1      -9.900   7.759  73.336  1.00  0.00    -0.346 C  
BRANCH   8   9
HETATM    9  C   UNK A   1      -8.682   7.933  72.423  1.00  0.00    -0.206 C  
BRANCH   9  10
HETATM   10  C   UNK A   1      -9.078   8.669  71.164  1.00  0.00    -0.209 C  
HETATM   11  O   UNK A   1      -8.302   9.409  70.566  1.00  0.00    -0.178 OA 
HETATM   12  N   UNK A   1     -10.353   8.422  70.730  1.00  0.00    -0.192 N  
HETATM   13  H   UNK A   1     -10.949   7.794  71.271  1.00  0.00     0.000 HD 
BRANCH  12  14
HETATM   14  C   UNK A   1     -10.884   9.032  69.515  1.00  0.00    -0.166 C  
BRANCH  14  15
HETATM   15  C   UNK A   1     -10.352   8.232  68.311  1.00  0.00    -0.198 C  
ATOM     16  H   GLY A   2     -11.821   6.778  68.626  1.00  0.00     0.000 HD 
ATOM     17  N   GLY A   2     -10.995   7.027  68.080  1.00  0.00    -0.156 N  
HETATM   18  O   UNK A   1      -9.486   8.672  67.559  1.00  0.00    -0.144 OA 
BRANCH  17  19
ATOM     19  CA  GLY A   2     -10.494   6.106  67.050  1.00  0.00    -0.277 C  
ATOM     20  C   GLY A   2      -9.891   4.824  67.620  1.00  0.00    -0.152 C  
ATOM     21  O   GLY A   2      -9.919   4.766  68.973  1.00  0.00    -0.180 OA 
ATOM     22  OXT GLY A   2      -9.386   3.946  66.936  1.00  0.00    -0.161 OA 
ENDBRANCH  17  19
ENDBRANCH  14  15
BRANCH  14  23
HETATM   23  C   UNK A   1     -10.440  10.490  69.320  1.00  0.00    -0.235 C  
HETATM   24  S   UNK A   1     -11.611  11.561  68.424  1.00  0.00    -0.306 SA 
HETATM   25  H   UNK A   1     -11.209  12.880  68.247  1.00  0.00     0.000 H  
ENDBRANCH  14  23
ENDBRANCH  12  14
ENDBRANCH   9  10
ENDBRANCH   8   9
ENDBRANCH   2   8
TORSDOF 7
ENDMDL
MODEL      311
REMARK 921   NORMALIZED FREE ENERGY PREDICTED BY IDOCK:   -2.82 KCAL/MOL
REMARK 922        TOTAL FREE ENERGY PREDICTED BY IDOCK:   -4.54 KCAL/MOL
REMARK 923 INTER-LIGAND FREE ENERGY PREDICTED BY IDOCK:   -3.70 KCAL/MOL
REMARK 924 INTRA-LIGAND FREE ENERGY PREDICTED BY IDOCK:   -0.85 KCAL/MOL
REMARK 927      BINDING AFFINITY PREDICTED BY RF-SCORE:    0.00 PKD
ROOT
HETATM    1  N   UNK A   1      -9.289   3.603  67.677  1.00  0.00    -0.190 NA 
HETATM    2  C   UNK A   1      -9.621   5.028  67.973  1.00  0.00    -0.141 C  
HETATM    3  H2  UNK A   1      -8.687   3.211  68.400  1.00  0.00     0.000 HD 
HETATM    4  H1  UNK A   1     -10.116   3.024  67.536  1.00  0.00     0.000 HD 
HETATM    5  O   UNK A   1     -10.834   4.615  65.954  1.00  0.00    -0.274 OA 
HETATM    6  C   UNK A   1     -10.508   5.585  66.846  1.00  0.00    -0.287 C  
HETATM    7  O   UNK A   1     -10.857   6.750  66.736  1.00  0.00    -0.320 OA 
ENDROOT
BRANCH   2   8
HETATM    8  C   UNK A   1      -8.378   5.899  68.183  1.00  0.00    -0.115 C  
BRANCH   8   9
HETATM    9  C   UNK A   1      -8.569   7.050  69.175  1.00  0.00    -0.133 C  
BRANCH   9  10
HETATM   10  C   UNK A   1      -7.999   8.327  68.602  1.00  0.00    -0.122 C  
HETATM   11  O   UNK A   1      -7.168   9.002  69.202  1.00  0.00    -0.065 OA 
HETATM   12  N   UNK A   1      -8.460   8.654  67.354  1.00  0.00    -0.122 N  
HETATM   13  H   UNK A   1      -9.150   8.050  66.906  1.00  0.00     0.000 HD 
BRANCH  12  14
HETATM   14  C   UNK A   1      -7.991   9.841  66.646  1.00  0.00    -0.112 C  
BRANCH  14  15
HETATM   15  C   UNK A   1      -9.224  10.682  66.262  1.00  0.00    -0.170 C  
ATOM     16  H   GLY A   2      -8.135  12.434  66.598  1.00  0.00     0.000 HD 
ATOM     17  N   GLY A   2      -9.055  12.052  66.374  1.00  0.00    -0.210 N  
HETATM   18  O   UNK A   1     -10.247  10.179  65.803  1.00  0.00    -0.263 OA 
BRANCH  17  19
ATOM     19  CA  GLY A   2     -10.194  12.957  66.172  1.00  0.00    -0.278 C  
ATOM     20  C   GLY A   2      -9.964  14.361  66.727  1.00  0.00    -0.263 C  
ATOM     21  O   GLY A   2      -8.753  14.522  67.312  1.00  0.00    -0.186 OA 
ATOM     22  OXT GLY A   2     -10.800  15.252  66.693  1.00  0.00    -0.308 OA 
ENDBRANCH  17  19
ENDBRANCH  14  15
BRANCH  14  23
HETATM   23  C   UNK A   1      -7.241   9.520  65.345  1.00  0.00    -0.095 C  
HETATM   24  S   UNK A   1      -6.109   8.093  65.414  1.00  0.00    -0.045 SA 
HETATM   25  H   UNK A   1      -5.430   7.802  64.237  1.00  0.00     0.000 H  
ENDBRANCH  14  23
ENDBRANCH  12  14
ENDBRANCH   9  10
ENDBRANCH   8   9
ENDBRANCH   2   8
TORSDOF 7
ENDMDL
MODEL      312
REMARK 921   NORMALIZED FREE ENERGY PREDICTED BY IDOCK:   -2.82 KCAL/MOL
REMARK 922        TOTAL FREE ENERGY PREDICTED BY IDOCK:   -4.54 KCAL/MOL
REMARK 923 INTER-LIGAND FREE ENERGY PREDICTED BY IDOCK:   -3.89 KCAL/MOL
REMARK 924 INTRA-LIGAND FREE ENERGY PREDICTED BY IDOCK:   -0.65 KCAL/MOL
REMARK 927      BINDING AFFINITY PREDICTED BY RF-SCORE:    0.00 PKD
ROOT
HETATM    1  N   UNK A   1      -6.880   5.508  71.822  1.00  0.00    -0.064 NA 
HETATM    2  C   UNK A   1      -7.864   6.538  72.272  1.00  0.00    -0.101 C  
HETATM    3  H2  UNK A   1      -7.322   4.593  71.739  1.00  0.00     0.000 HD 
HETATM    4  H1  UNK A   1      -6.406   5.765  70.957  1.00  0.00     0.000 HD 
HETATM    5  O   UNK A   1      -5.861   7.814  71.983  1.00  0.00    -0.036 OA 
HETATM    6  C   UNK A   1      -7.149   7.894  72.407  1.00  0.00    -0.087 C  
HETATM    7  O   UNK A   1      -7.650   8.910  72.861  1.00  0.00    -0.359 OA 
ENDROOT
BRANCH   2   8
HETATM    8  C   UNK A   1      -8.576   6.153  73.573  1.00  0.00    -0.125 C  
BRANCH   8   9
HETATM    9  C   UNK A   1     -10.038   6.605  73.654  1.00  0.00    -0.300 C  
BRANCH   9  10
HETATM   10  C   UNK A   1     -10.517   7.057  72.294  1.00  0.00    -0.208 C  
HETATM   11  O   UNK A   1     -10.764   6.264  71.389  1.00  0.00    -0.231 OA 
HETATM   12  N   UNK A   1     -10.681   8.410  72.161  1.00  0.00    -0.312 N  
HETATM   13  H   UNK A   1     -10.460   9.016  72.952  1.00  0.00     0.000 HD 
BRANCH  12  14
HETATM   14  C   UNK A   1     -11.163   9.010  70.921  1.00  0.00    -0.287 C  
BRANCH  14  15
HETATM   15  C   UNK A   1      -9.971   9.117  69.951  1.00  0.00    -0.197 C  
ATOM     16  H   GLY A   2     -10.929   7.815  68.626  1.00  0.00     0.000 HD 
ATOM     17  N   GLY A   2     -10.069   8.330  68.816  1.00  0.00    -0.195 N  
HETATM   18  O   UNK A   1      -9.047   9.908  70.128  1.00  0.00    -0.223 OA 
BRANCH  17  19
ATOM     19  CA  GLY A   2      -8.938   8.235  67.882  1.00  0.00    -0.134 C  
ATOM     20  C   GLY A   2      -9.116   9.079  66.621  1.00  0.00    -0.160 C  
ATOM     21  O   GLY A   2     -10.286   9.760  66.584  1.00  0.00    -0.235 OA 
ATOM     22  OXT GLY A   2      -8.308   9.112  65.704  1.00  0.00    -0.115 OA 
ENDBRANCH  17  19
ENDBRANCH  14  15
BRANCH  14  23
HETATM   23  C   UNK A   1     -11.722  10.429  71.106  1.00  0.00    -0.296 C  
HETATM   24  S   UNK A   1     -12.271  11.269  69.586  1.00  0.00    -0.227 SA 
HETATM   25  H   UNK A   1     -12.777  12.553  69.753  1.00  0.00     0.000 H  
ENDBRANCH  14  23
ENDBRANCH  12  14
ENDBRANCH   9  10
ENDBRANCH   8   9
ENDBRANCH   2   8
TORSDOF 7
ENDMDL
MODEL      313
REMARK 921   NORMALIZED FREE ENERGY PREDICTED BY IDOCK:   -2.81 KCAL/MOL
REMARK 922        TOTAL FREE ENERGY PREDICTED BY IDOCK:   -4.52 KCAL/MOL
REMARK 923 INTER-LIGAND FREE ENERGY PREDICTED BY IDOCK:   -3.97 KCAL/MOL
REMARK 924 INTRA-LIGAND FREE ENERGY PREDICTED BY IDOCK:   -0.55 KCAL/MOL
REMARK 927      BINDING AFFINITY PREDICTED BY RF-SCORE:    0.00 PKD
ROOT
HETATM    1  N   UNK A   1     -10.913  10.051  71.043  1.00  0.00    -0.311 NA 
HETATM    2  C   UNK A   1     -12.003   9.037  70.937  1.00  0.00    -0.225 C  
HETATM    3  H2  UNK A   1     -10.050   9.704  70.624  1.00  0.00     0.000 HD 
HETATM    4  H1  UNK A   1     -11.172  10.955  70.648  1.00  0.00     0.000 HD 
HETATM    5  O   UNK A   1     -13.098  10.878  72.003  1.00  0.00    -0.491 OA 
HETATM    6  C   UNK A   1     -13.275   9.592  71.602  1.00  0.00    -0.411 C  
HETATM    7  O   UNK A   1     -14.307   8.965  71.780  1.00  0.00    -0.352 OA 
ENDROOT
BRANCH   2   8
HETATM    8  C   UNK A   1     -11.614   7.679  71.531  1.00  0.00    -0.304 C  
BRANCH   8   9
HETATM    9  C   UNK A   1     -10.106   7.464  71.690  1.00  0.00    -0.200 C  
BRANCH   9  10
HETATM   10  C   UNK A   1      -9.561   6.714  70.496  1.00  0.00    -0.169 C  
HETATM   11  O   UNK A   1      -9.294   5.517  70.540  1.00  0.00    -0.150 OA 
HETATM   12  N   UNK A   1      -9.418   7.467  69.360  1.00  0.00    -0.155 N  
HETATM   13  H   UNK A   1      -9.659   8.457  69.388  1.00  0.00     0.000 HD 
BRANCH  12  14
HETATM   14  C   UNK A   1      -8.929   6.890  68.112  1.00  0.00    -0.123 C  
BRANCH  14  15
HETATM   15  C   UNK A   1      -8.612   8.048  67.147  1.00  0.00    -0.124 C  
ATOM     16  H   GLY A   2      -6.589   7.919  67.653  1.00  0.00     0.000 HD 
ATOM     17  N   GLY A   2      -7.286   8.448  67.129  1.00  0.00    -0.084 N  
HETATM   18  O   UNK A   1      -9.453   8.519  66.384  1.00  0.00    -0.197 OA 
BRANCH  17  19
ATOM     19  CA  GLY A   2      -6.880   9.630  66.357  1.00  0.00    -0.084 C  
ATOM     20  C   GLY A   2      -6.849  10.916  67.182  1.00  0.00    -0.093 C  
ATOM     21  O   GLY A   2      -7.207  10.739  68.476  1.00  0.00    -0.080 OA 
ATOM     22  OXT GLY A   2      -6.573  12.014  66.722  1.00  0.00    -0.096 OA 
ENDBRANCH  17  19
ENDBRANCH  14  15
BRANCH  14  23
HETATM   23  C   UNK A   1      -9.959   5.989  67.412  1.00  0.00    -0.141 C  
HETATM   24  S   UNK A   1      -9.384   4.312  66.986  1.00  0.00    -0.180 SA 
HETATM   25  H   UNK A   1     -10.315   3.497  66.353  1.00  0.00     0.000 H  
ENDBRANCH  14  23
ENDBRANCH  12  14
ENDBRANCH   9  10
ENDBRANCH   8   9
ENDBRANCH   2   8
TORSDOF 7
ENDMDL
MODEL      314
REMARK 921   NORMALIZED FREE ENERGY PREDICTED BY IDOCK:   -2.80 KCAL/MOL
REMARK 922        TOTAL FREE ENERGY PREDICTED BY IDOCK:   -4.51 KCAL/MOL
REMARK 923 INTER-LIGAND FREE ENERGY PREDICTED BY IDOCK:   -3.96 KCAL/MOL
REMARK 924 INTRA-LIGAND FREE ENERGY PREDICTED BY IDOCK:   -0.55 KCAL/MOL
REMARK 927      BINDING AFFINITY PREDICTED BY RF-SCORE:    0.00 PKD
ROOT
HETATM    1  N   UNK A   1     -11.328   4.230  64.812  1.00  0.00    -1.022 NA 
HETATM    2  C   UNK A   1      -9.914   4.166  64.339  1.00  0.00    -0.145 C  
HETATM    3  H2  UNK A   1     -11.496   5.083  65.345  1.00  0.00     0.000 HD 
HETATM    4  H1  UNK A   1     -12.005   4.133  64.056  1.00  0.00     0.000 HD 
HETATM    5  O   UNK A   1     -10.865   2.169  63.427  1.00  0.00    -0.204 OA 
HETATM    6  C   UNK A   1      -9.700   2.854  63.564  1.00  0.00    -0.113 C  
HETATM    7  O   UNK A   1      -8.626   2.452  63.145  1.00  0.00    -0.084 OA 
ENDROOT
BRANCH   2   8
HETATM    8  C   UNK A   1      -8.897   4.310  65.476  1.00  0.00    -0.124 C  
BRANCH   8   9
HETATM    9  C   UNK A   1      -9.418   5.069  66.701  1.00  0.00    -0.148 C  
BRANCH   9  10
HETATM   10  C   UNK A   1      -8.342   5.984  67.239  1.00  0.00    -0.105 C  
HETATM   11  O   UNK A   1      -7.313   5.555  67.752  1.00  0.00    -0.074 OA 
HETATM   12  N   UNK A   1      -8.593   7.322  67.084  1.00  0.00    -0.120 N  
HETATM   13  H   UNK A   1      -9.468   7.615  66.648  1.00  0.00     0.000 HD 
BRANCH  12  14
HETATM   14  C   UNK A   1      -7.645   8.339  67.525  1.00  0.00    -0.098 C  
BRANCH  14  15
HETATM   15  C   UNK A   1      -8.442   9.468  68.206  1.00  0.00    -0.119 C  
ATOM     16  H   GLY A   2      -9.477   8.052  69.344  1.00  0.00     0.000 HD 
ATOM     17  N   GLY A   2      -9.406   9.042  69.105  1.00  0.00    -0.147 N  
HETATM   18  O   UNK A   1      -8.180  10.656  68.034  1.00  0.00    -0.110 OA 
BRANCH  17  19
ATOM     19  CA  GLY A   2     -10.327  10.010  69.716  1.00  0.00    -0.255 C  
ATOM     20  C   GLY A   2     -11.009   9.490  70.980  1.00  0.00    -0.353 C  
ATOM     21  O   GLY A   2     -10.648   8.226  71.310  1.00  0.00    -0.209 OA 
ATOM     22  OXT GLY A   2     -11.836  10.124  71.618  1.00  0.00    -0.333 OA 
ENDBRANCH  17  19
ENDBRANCH  14  15
BRANCH  14  23
HETATM   23  C   UNK A   1      -6.855   8.978  66.372  1.00  0.00    -0.079 C  
HETATM   24  S   UNK A   1      -7.671   8.955  64.743  1.00  0.00    -0.117 SA 
HETATM   25  H   UNK A   1      -6.957   9.532  63.700  1.00  0.00     0.000 H  
ENDBRANCH  14  23
ENDBRANCH  12  14
ENDBRANCH   9  10
ENDBRANCH   8   9
ENDBRANCH   2   8
TORSDOF 7
ENDMDL
MODEL      315
REMARK 921   NORMALIZED FREE ENERGY PREDICTED BY IDOCK:   -2.80 KCAL/MOL
REMARK 922        TOTAL FREE ENERGY PREDICTED BY IDOCK:   -4.51 KCAL/MOL
REMARK 923 INTER-LIGAND FREE ENERGY PREDICTED BY IDOCK:   -4.04 KCAL/MOL
REMARK 924 INTRA-LIGAND FREE ENERGY PREDICTED BY IDOCK:   -0.47 KCAL/MOL
REMARK 927      BINDING AFFINITY PREDICTED BY RF-SCORE:    0.00 PKD
ROOT
HETATM    1  N   UNK A   1      -5.411   8.163  68.927  1.00  0.00    -0.030 NA 
HETATM    2  C   UNK A   1      -6.229   8.829  69.983  1.00  0.00    -0.037 C  
HETATM    3  H2  UNK A   1      -5.550   7.153  68.941  1.00  0.00     0.000 HD 
HETATM    4  H1  UNK A   1      -5.581   8.541  67.995  1.00  0.00     0.000 HD 
HETATM    5  O   UNK A   1      -5.162  10.676  68.900  1.00  0.00    -0.042 OA 
HETATM    6  C   UNK A   1      -5.969  10.345  69.941  1.00  0.00    -0.061 C  
HETATM    7  O   UNK A   1      -6.400  11.155  70.746  1.00  0.00    -0.344 OA 
ENDROOT
BRANCH   2   8
HETATM    8  C   UNK A   1      -5.973   8.260  71.382  1.00  0.00    -0.037 C  
BRANCH   8   9
HETATM    9  C   UNK A   1      -7.214   8.194  72.278  1.00  0.00    -0.108 C  
BRANCH   9  10
HETATM   10  C   UNK A   1      -8.422   7.796  71.461  1.00  0.00    -0.117 C  
HETATM   11  O   UNK A   1      -9.112   8.620  70.866  1.00  0.00    -0.155 OA 
HETATM   12  N   UNK A   1      -8.667   6.449  71.413  1.00  0.00    -0.131 N  
HETATM   13  H   UNK A   1      -8.056   5.815  71.928  1.00  0.00     0.000 HD 
BRANCH  12  14
HETATM   14  C   UNK A   1      -9.778   5.895  70.647  1.00  0.00    -0.176 C  
BRANCH  14  15
HETATM   15  C   UNK A   1     -11.057   6.035  71.495  1.00  0.00    -0.276 C  
ATOM     16  H   GLY A   2     -11.966   7.111  69.951  1.00  0.00     0.000 HD 
ATOM     17  N   GLY A   2     -12.066   6.784  70.913  1.00  0.00    -0.385 N  
HETATM   18  O   UNK A   1     -11.203   5.451  72.566  1.00  0.00    -0.262 OA 
BRANCH  17  19
ATOM     19  CA  GLY A   2     -13.280   7.109  71.675  1.00  0.00    -0.346 C  
ATOM     20  C   GLY A   2     -13.483   8.607  71.888  1.00  0.00    -0.397 C  
ATOM     21  O   GLY A   2     -12.506   9.370  71.343  1.00  0.00    -0.317 OA 
ATOM     22  OXT GLY A   2     -14.410   9.085  72.526  1.00  0.00    -0.570 OA 
ENDBRANCH  17  19
ENDBRANCH  14  15
BRANCH  14  23
HETATM   23  C   UNK A   1      -9.613   4.402  70.323  1.00  0.00    -0.193 C  
HETATM   24  S   UNK A   1      -7.982   3.685  70.707  1.00  0.00    -0.054 SA 
HETATM   25  H   UNK A   1      -7.832   2.334  70.414  1.00  0.00     0.000 H  
ENDBRANCH  14  23
ENDBRANCH  12  14
ENDBRANCH   9  10
ENDBRANCH   8   9
ENDBRANCH   2   8
TORSDOF 7
ENDMDL
MODEL      316
REMARK 921   NORMALIZED FREE ENERGY PREDICTED BY IDOCK:   -2.77 KCAL/MOL
REMARK 922        TOTAL FREE ENERGY PREDICTED BY IDOCK:   -4.46 KCAL/MOL
REMARK 923 INTER-LIGAND FREE ENERGY PREDICTED BY IDOCK:   -3.67 KCAL/MOL
REMARK 924 INTRA-LIGAND FREE ENERGY PREDICTED BY IDOCK:   -0.79 KCAL/MOL
REMARK 927      BINDING AFFINITY PREDICTED BY RF-SCORE:    0.00 PKD
ROOT
HETATM    1  N   UNK A   1      -9.868   8.305  70.884  1.00  0.00    -0.179 NA 
HETATM    2  C   UNK A   1     -11.191   7.619  70.799  1.00  0.00    -0.268 C  
HETATM    3  H2  UNK A   1      -9.130   7.725  70.487  1.00  0.00     0.000 HD 
HETATM    4  H1  UNK A   1      -9.873   9.231  70.458  1.00  0.00     0.000 HD 
HETATM    5  O   UNK A   1     -11.751   9.722  71.793  1.00  0.00    -0.369 OA 
HETATM    6  C   UNK A   1     -12.268   8.519  71.431  1.00  0.00    -0.304 C  
HETATM    7  O   UNK A   1     -13.430   8.198  71.618  1.00  0.00    -0.336 OA 
ENDROOT
BRANCH   2   8
HETATM    8  C   UNK A   1     -11.184   6.228  71.440  1.00  0.00    -0.349 C  
BRANCH   8   9
HETATM    9  C   UNK A   1      -9.791   5.612  71.607  1.00  0.00    -0.213 C  
BRANCH   9  10
HETATM   10  C   UNK A   1      -9.443   4.781  70.394  1.00  0.00    -0.172 C  
HETATM   11  O   UNK A   1      -9.582   3.561  70.373  1.00  0.00    -0.178 OA 
HETATM   12  N   UNK A   1      -8.991   5.496  69.316  1.00  0.00    -0.111 N  
HETATM   13  H   UNK A   1      -8.900   6.509  69.395  1.00  0.00     0.000 HD 
BRANCH  12  14
HETATM   14  C   UNK A   1      -8.637   4.849  68.056  1.00  0.00    -0.102 C  
BRANCH  14  15
HETATM   15  C   UNK A   1      -7.503   5.664  67.406  1.00  0.00    -0.084 C  
ATOM     16  H   GLY A   2      -7.981   7.298  68.619  1.00  0.00     0.000 HD 
ATOM     17  N   GLY A   2      -7.398   6.973  67.847  1.00  0.00    -0.094 N  
HETATM   18  O   UNK A   1      -6.697   5.165  66.625  1.00  0.00    -0.057 OA 
BRANCH  17  19
ATOM     19  CA  GLY A   2      -6.450   7.895  67.207  1.00  0.00    -0.056 C  
ATOM     20  C   GLY A   2      -7.043   9.272  66.911  1.00  0.00    -0.082 C  
ATOM     21  O   GLY A   2      -8.339   9.396  67.285  1.00  0.00    -0.123 OA 
ATOM     22  OXT GLY A   2      -6.433  10.170  66.350  1.00  0.00    -0.073 OA 
ENDBRANCH  17  19
ENDBRANCH  14  15
BRANCH  14  23
HETATM   23  C   UNK A   1      -9.795   4.803  67.047  1.00  0.00    -0.200 C  
HETATM   24  S   UNK A   1     -10.731   6.353  66.843  1.00  0.00    -0.319 SA 
HETATM   25  H   UNK A   1     -11.778   6.311  65.931  1.00  0.00     0.000 H  
ENDBRANCH  14  23
ENDBRANCH  12  14
ENDBRANCH   9  10
ENDBRANCH   8   9
ENDBRANCH   2   8
TORSDOF 7
ENDMDL
MODEL      317
REMARK 921   NORMALIZED FREE ENERGY PREDICTED BY IDOCK:   -2.77 KCAL/MOL
REMARK 922        TOTAL FREE ENERGY PREDICTED BY IDOCK:   -4.46 KCAL/MOL
REMARK 923 INTER-LIGAND FREE ENERGY PREDICTED BY IDOCK:   -4.29 KCAL/MOL
REMARK 924 INTRA-LIGAND FREE ENERGY PREDICTED BY IDOCK:   -0.17 KCAL/MOL
REMARK 927      BINDING AFFINITY PREDICTED BY RF-SCORE:    0.00 PKD
ROOT
HETATM    1  N   UNK A   1      -8.297   4.040  74.111  1.00  0.00    -0.093 NA 
HETATM    2  C   UNK A   1      -9.619   4.691  74.351  1.00  0.00    -0.132 C  
HETATM    3  H2  UNK A   1      -7.588   4.413  74.741  1.00  0.00     0.000 HD 
HETATM    4  H1  UNK A   1      -8.339   3.023  74.169  1.00  0.00     0.000 HD 
HETATM    5  O   UNK A   1     -10.115   3.112  72.624  1.00  0.00    -0.143 OA 
HETATM    6  C   UNK A   1     -10.650   4.117  73.363  1.00  0.00    -0.199 C  
HETATM    7  O   UNK A   1     -11.794   4.521  73.228  1.00  0.00    -0.218 OA 
ENDROOT
BRANCH   2   8
HETATM    8  C   UNK A   1      -9.556   6.219  74.263  1.00  0.00    -0.240 C  
BRANCH   8   9
HETATM    9  C   UNK A   1      -8.660   6.754  73.142  1.00  0.00    -0.132 C  
BRANCH   9  10
HETATM   10  C   UNK A   1      -9.432   7.728  72.282  1.00  0.00    -0.170 C  
HETATM   11  O   UNK A   1      -9.069   8.889  72.118  1.00  0.00    -0.375 OA 
HETATM   12  N   UNK A   1     -10.546   7.206  71.679  1.00  0.00    -0.207 N  
HETATM   13  H   UNK A   1     -10.794   6.232  71.853  1.00  0.00     0.000 HD 
BRANCH  12  14
HETATM   14  C   UNK A   1     -11.389   8.004  70.794  1.00  0.00    -0.272 C  
BRANCH  14  15
HETATM   15  C   UNK A   1     -10.588   8.293  69.510  1.00  0.00    -0.213 C  
ATOM     16  H   GLY A   2     -10.048   6.277  69.392  1.00  0.00     0.000 HD 
ATOM     17  N   GLY A   2      -9.913   7.203  68.985  1.00  0.00    -0.170 N  
HETATM   18  O   UNK A   1     -10.622   9.383  68.944  1.00  0.00    -0.217 OA 
BRANCH  17  19
ATOM     19  CA  GLY A   2      -9.003   7.376  67.844  1.00  0.00    -0.131 C  
ATOM     20  C   GLY A   2      -9.390   6.543  66.624  1.00  0.00    -0.158 C  
ATOM     21  O   GLY A   2     -10.498   5.788  66.811  1.00  0.00    -0.234 OA 
ATOM     22  OXT GLY A   2      -8.745   6.516  65.586  1.00  0.00    -0.150 OA 
ENDBRANCH  17  19
ENDBRANCH  14  15
BRANCH  14  23
HETATM   23  C   UNK A   1     -11.787   9.363  71.392  1.00  0.00    -0.374 C  
HETATM   24  S   UNK A   1     -13.470   9.462  72.084  1.00  0.00    -0.462 SA 
HETATM   25  H   UNK A   1     -13.830  10.690  72.625  1.00  0.00     0.000 H  
ENDBRANCH  14  23
ENDBRANCH  12  14
ENDBRANCH   9  10
ENDBRANCH   8   9
ENDBRANCH   2   8
TORSDOF 7
ENDMDL
MODEL      318
REMARK 921   NORMALIZED FREE ENERGY PREDICTED BY IDOCK:   -2.73 KCAL/MOL
REMARK 922        TOTAL FREE ENERGY PREDICTED BY IDOCK:   -4.41 KCAL/MOL
REMARK 923 INTER-LIGAND FREE ENERGY PREDICTED BY IDOCK:   -4.85 KCAL/MOL
REMARK 924 INTRA-LIGAND FREE ENERGY PREDICTED BY IDOCK:    0.44 KCAL/MOL
REMARK 927      BINDING AFFINITY PREDICTED BY RF-SCORE:    0.00 PKD
ROOT
HETATM    1  N   UNK A   1     -11.914  15.207  68.066  1.00  0.00    -0.493 NA 
HETATM    2  C   UNK A   1     -11.002  14.247  67.375  1.00  0.00    -0.295 C  
HETATM    3  H2  UNK A   1     -12.009  14.973  69.054  1.00  0.00     0.000 HD 
HETATM    4  H1  UNK A   1     -11.630  16.179  67.947  1.00  0.00     0.000 HD 
HETATM    5  O   UNK A   1     -11.584  15.773  65.627  1.00  0.00     0.082 OA 
HETATM    6  C   UNK A   1     -10.909  14.623  65.886  1.00  0.00    -0.312 C  
HETATM    7  O   UNK A   1     -10.333  13.970  65.031  1.00  0.00    -0.381 OA 
ENDROOT
BRANCH   2   8
HETATM    8  C   UNK A   1     -11.428  12.787  67.553  1.00  0.00    -0.390 C  
BRANCH   8   9
HETATM    9  C   UNK A   1     -11.996  12.455  68.937  1.00  0.00    -0.289 C  
BRANCH   9  10
HETATM   10  C   UNK A   1     -11.378  11.179  69.458  1.00  0.00    -0.290 C  
HETATM   11  O   UNK A   1     -12.047  10.288  69.974  1.00  0.00    -0.232 OA 
HETATM   12  N   UNK A   1     -10.022  11.083  69.285  1.00  0.00    -0.406 N  
HETATM   13  H   UNK A   1      -9.522  11.857  68.847  1.00  0.00     0.000 HD 
BRANCH  12  14
HETATM   14  C   UNK A   1      -9.273   9.905  69.708  1.00  0.00    -0.227 C  
BRANCH  14  15
HETATM   15  C   UNK A   1      -8.924   9.087  68.450  1.00  0.00    -0.133 C  
ATOM     16  H   GLY A   2     -10.060   7.487  69.173  1.00  0.00     0.000 HD 
ATOM     17  N   GLY A   2      -9.426   7.796  68.434  1.00  0.00    -0.146 N  
HETATM   18  O   UNK A   1      -8.326   9.573  67.494  1.00  0.00    -0.123 OA 
BRANCH  17  19
ATOM     19  CA  GLY A   2      -9.050   6.869  67.359  1.00  0.00    -0.122 C  
ATOM     20  C   GLY A   2     -10.185   5.944  66.925  1.00  0.00    -0.214 C  
ATOM     21  O   GLY A   2     -11.336   6.138  67.613  1.00  0.00    -0.197 OA 
ATOM     22  OXT GLY A   2     -10.069   5.077  66.072  1.00  0.00    -0.195 OA 
ENDBRANCH  17  19
ENDBRANCH  14  15
BRANCH  14  23
HETATM   23  C   UNK A   1     -10.068   8.979  70.642  1.00  0.00    -0.229 C  
HETATM   24  S   UNK A   1      -9.176   8.384  72.116  1.00  0.00    -0.261 SA 
HETATM   25  H   UNK A   1      -9.895   7.546  72.960  1.00  0.00     0.000 H  
ENDBRANCH  14  23
ENDBRANCH  12  14
ENDBRANCH   9  10
ENDBRANCH   8   9
ENDBRANCH   2   8
TORSDOF 7
ENDMDL
MODEL      319
REMARK 921   NORMALIZED FREE ENERGY PREDICTED BY IDOCK:   -2.69 KCAL/MOL
REMARK 922        TOTAL FREE ENERGY PREDICTED BY IDOCK:   -4.35 KCAL/MOL
REMARK 923 INTER-LIGAND FREE ENERGY PREDICTED BY IDOCK:   -3.34 KCAL/MOL
REMARK 924 INTRA-LIGAND FREE ENERGY PREDICTED BY IDOCK:   -1.01 KCAL/MOL
REMARK 927      BINDING AFFINITY PREDICTED BY RF-SCORE:    0.00 PKD
ROOT
HETATM    1  N   UNK A   1      -6.477  10.949  65.628  1.00  0.00    -0.346 NA 
HETATM    2  C   UNK A   1      -6.977   9.542  65.616  1.00  0.00    -0.092 C  
HETATM    3  H2  UNK A   1      -5.764  11.076  66.346  1.00  0.00     0.000 HD 
HETATM    4  H1  UNK A   1      -6.137  11.257  64.717  1.00  0.00     0.000 HD 
HETATM    5  O   UNK A   1      -8.200  10.551  63.824  1.00  0.00    -0.149 OA 
HETATM    6  C   UNK A   1      -8.066   9.403  64.537  1.00  0.00    -0.136 C  
HETATM    7  O   UNK A   1      -8.750   8.409  64.353  1.00  0.00    -0.033 OA 
ENDROOT
BRANCH   2   8
HETATM    8  C   UNK A   1      -7.489   9.080  66.984  1.00  0.00    -0.087 C  
BRANCH   8   9
HETATM    9  C   UNK A   1      -8.648   9.911  67.543  1.00  0.00    -0.122 C  
BRANCH   9  10
HETATM   10  C   UNK A   1      -9.910   9.081  67.580  1.00  0.00    -0.179 C  
HETATM   11  O   UNK A   1     -11.019   9.581  67.746  1.00  0.00    -0.244 OA 
HETATM   12  N   UNK A   1      -9.722   7.738  67.385  1.00  0.00    -0.153 N  
HETATM   13  H   UNK A   1      -8.775   7.384  67.250  1.00  0.00     0.000 HD 
BRANCH  12  14
HETATM   14  C   UNK A   1     -10.839   6.799  67.365  1.00  0.00    -0.347 C  
BRANCH  14  15
HETATM   15  C   UNK A   1     -11.131   6.378  68.817  1.00  0.00    -0.326 C  
ATOM     16  H   GLY A   2      -9.328   5.322  68.875  1.00  0.00     0.000 HD 
ATOM     17  N   GLY A   2     -10.188   5.536  69.383  1.00  0.00    -0.234 N  
HETATM   18  O   UNK A   1     -12.080   6.827  69.455  1.00  0.00     0.045 OA 
BRANCH  17  19
ATOM     19  CA  GLY A   2     -10.419   4.951  70.710  1.00  0.00    -0.096 C  
ATOM     20  C   GLY A   2      -9.542   5.556  71.805  1.00  0.00    -0.151 C  
ATOM     21  O   GLY A   2      -8.702   6.520  71.357  1.00  0.00    -0.130 OA 
ATOM     22  OXT GLY A   2      -9.554   5.185  72.969  1.00  0.00    -0.141 OA 
ENDBRANCH  17  19
ENDBRANCH  14  15
BRANCH  14  23
HETATM   23  C   UNK A   1     -10.544   5.516  66.573  1.00  0.00    -0.279 C  
HETATM   24  S   UNK A   1      -8.831   5.326  65.981  1.00  0.00    -0.145 SA 
HETATM   25  H   UNK A   1      -8.563   4.166  65.265  1.00  0.00     0.000 H  
ENDBRANCH  14  23
ENDBRANCH  12  14
ENDBRANCH   9  10
ENDBRANCH   8   9
ENDBRANCH   2   8
TORSDOF 7
ENDMDL
MODEL      320
REMARK 921   NORMALIZED FREE ENERGY PREDICTED BY IDOCK:   -2.68 KCAL/MOL
REMARK 922        TOTAL FREE ENERGY PREDICTED BY IDOCK:   -4.34 KCAL/MOL
REMARK 923 INTER-LIGAND FREE ENERGY PREDICTED BY IDOCK:   -3.46 KCAL/MOL
REMARK 924 INTRA-LIGAND FREE ENERGY PREDICTED BY IDOCK:   -0.89 KCAL/MOL
REMARK 927      BINDING AFFINITY PREDICTED BY RF-SCORE:    0.00 PKD
ROOT
HETATM    1  N   UNK A   1     -12.444   7.949  72.594  1.00  0.00    -0.580 NA 
HETATM    2  C   UNK A   1     -12.040   6.740  71.818  1.00  0.00    -0.350 C  
HETATM    3  H2  UNK A   1     -13.108   8.515  72.067  1.00  0.00     0.000 HD 
HETATM    4  H1  UNK A   1     -12.811   7.723  73.519  1.00  0.00     0.000 HD 
HETATM    5  O   UNK A   1     -10.849   6.467  73.875  1.00  0.00    -0.193 OA 
HETATM    6  C   UNK A   1     -11.021   5.930  72.640  1.00  0.00    -0.264 C  
HETATM    7  O   UNK A   1     -10.416   4.949  72.240  1.00  0.00    -0.205 OA 
ENDROOT
BRANCH   2   8
HETATM    8  C   UNK A   1     -11.489   7.079  70.430  1.00  0.00    -0.355 C  
BRANCH   8   9
HETATM    9  C   UNK A   1     -10.416   8.172  70.422  1.00  0.00    -0.217 C  
BRANCH   9  10
HETATM   10  C   UNK A   1      -9.063   7.568  70.124  1.00  0.00    -0.147 C  
HETATM   11  O   UNK A   1      -8.015   8.178  70.319  1.00  0.00    -0.098 OA 
HETATM   12  N   UNK A   1      -9.098   6.283  69.650  1.00  0.00    -0.141 N  
HETATM   13  H   UNK A   1     -10.001   5.830  69.511  1.00  0.00     0.000 HD 
BRANCH  12  14
HETATM   14  C   UNK A   1      -7.879   5.545  69.337  1.00  0.00    -0.087 C  
BRANCH  14  15
HETATM   15  C   UNK A   1      -7.746   5.475  67.804  1.00  0.00    -0.092 C  
ATOM     16  H   GLY A   2      -9.120   7.038  67.612  1.00  0.00     0.000 HD 
ATOM     17  N   GLY A   2      -8.564   6.347  67.106  1.00  0.00    -0.111 N  
HETATM   18  O   UNK A   1      -6.911   4.765  67.247  1.00  0.00    -0.058 OA 
BRANCH  17  19
ATOM     19  CA  GLY A   2      -8.635   6.283  65.640  1.00  0.00    -0.139 C  
ATOM     20  C   GLY A   2      -7.997   7.484  64.945  1.00  0.00    -0.132 C  
ATOM     21  O   GLY A   2      -7.485   8.398  65.803  1.00  0.00    -0.075 OA 
ATOM     22  OXT GLY A   2      -7.982   7.640  63.733  1.00  0.00    -0.133 OA 
ENDBRANCH  17  19
ENDBRANCH  14  15
BRANCH  14  23
HETATM   23  C   UNK A   1      -7.892   4.098  69.855  1.00  0.00    -0.052 C  
HETATM   24  S   UNK A   1      -6.526   3.643  70.973  1.00  0.00    -0.027 SA 
HETATM   25  H   UNK A   1      -6.538   2.335  71.441  1.00  0.00     0.000 H  
ENDBRANCH  14  23
ENDBRANCH  12  14
ENDBRANCH   9  10
ENDBRANCH   8   9
ENDBRANCH   2   8
TORSDOF 7
ENDMDL
MODEL      321
REMARK 921   NORMALIZED FREE ENERGY PREDICTED BY IDOCK:   -2.67 KCAL/MOL
REMARK 922        TOTAL FREE ENERGY PREDICTED BY IDOCK:   -4.33 KCAL/MOL
REMARK 923 INTER-LIGAND FREE ENERGY PREDICTED BY IDOCK:   -4.23 KCAL/MOL
REMARK 924 INTRA-LIGAND FREE ENERGY PREDICTED BY IDOCK:   -0.10 KCAL/MOL
REMARK 927      BINDING AFFINITY PREDICTED BY RF-SCORE:    0.00 PKD
ROOT
HETATM    1  N   UNK A   1      -8.552   6.770  70.413  1.00  0.00    -0.145 NA 
HETATM    2  C   UNK A   1      -9.920   7.134  70.887  1.00  0.00    -0.189 C  
HETATM    3  H2  UNK A   1      -8.192   7.471  69.766  1.00  0.00     0.000 HD 
HETATM    4  H1  UNK A   1      -7.896   6.609  71.178  1.00  0.00     0.000 HD 
HETATM    5  O   UNK A   1      -9.473   5.105  72.074  1.00  0.00    -0.145 OA 
HETATM    6  C   UNK A   1     -10.431   6.038  71.839  1.00  0.00    -0.218 C  
HETATM    7  O   UNK A   1     -11.557   5.984  72.308  1.00  0.00    -0.301 OA 
ENDROOT
BRANCH   2   8
HETATM    8  C   UNK A   1     -10.904   7.375  69.738  1.00  0.00    -0.246 C  
BRANCH   8   9
HETATM    9  C   UNK A   1     -10.413   6.894  68.369  1.00  0.00    -0.235 C  
BRANCH   9  10
HETATM   10  C   UNK A   1     -10.011   8.076  67.518  1.00  0.00    -0.194 C  
HETATM   11  O   UNK A   1     -10.820   8.696  66.834  1.00  0.00    -0.178 OA 
HETATM   12  N   UNK A   1      -8.686   8.416  67.593  1.00  0.00    -0.136 N  
HETATM   13  H   UNK A   1      -8.064   7.861  68.182  1.00  0.00     0.000 HD 
BRANCH  12  14
HETATM   14  C   UNK A   1      -8.139   9.549  66.855  1.00  0.00    -0.109 C  
BRANCH  14  15
HETATM   15  C   UNK A   1      -8.855  10.823  67.342  1.00  0.00    -0.129 C  
ATOM     16  H   GLY A   2      -9.329  11.314  65.366  1.00  0.00     0.000 HD 
ATOM     17  N   GLY A   2      -9.360  11.630  66.336  1.00  0.00    -0.208 N  
HETATM   18  O   UNK A   1      -9.044  11.058  68.533  1.00  0.00    -0.160 OA 
BRANCH  17  19
ATOM     19  CA  GLY A   2      -9.941  12.940  66.660  1.00  0.00    -0.251 C  
ATOM     20  C   GLY A   2     -11.392  13.093  66.208  1.00  0.00    -0.315 C  
ATOM     21  O   GLY A   2     -11.883  11.997  65.582  1.00  0.00    -0.428 OA 
ATOM     22  OXT GLY A   2     -12.045  14.116  66.350  1.00  0.00    -0.422 OA 
ENDBRANCH  17  19
ENDBRANCH  14  15
BRANCH  14  23
HETATM   23  C   UNK A   1      -8.365   9.456  65.338  1.00  0.00    -0.137 C  
HETATM   24  S   UNK A   1      -7.048   8.627  64.389  1.00  0.00    -0.086 SA 
HETATM   25  H   UNK A   1      -7.253   8.543  63.017  1.00  0.00     0.000 H  
ENDBRANCH  14  23
ENDBRANCH  12  14
ENDBRANCH   9  10
ENDBRANCH   8   9
ENDBRANCH   2   8
TORSDOF 7
ENDMDL
MODEL      322
REMARK 921   NORMALIZED FREE ENERGY PREDICTED BY IDOCK:   -2.67 KCAL/MOL
REMARK 922        TOTAL FREE ENERGY PREDICTED BY IDOCK:   -4.33 KCAL/MOL
REMARK 923 INTER-LIGAND FREE ENERGY PREDICTED BY IDOCK:   -3.81 KCAL/MOL
REMARK 924 INTRA-LIGAND FREE ENERGY PREDICTED BY IDOCK:   -0.52 KCAL/MOL
REMARK 927      BINDING AFFINITY PREDICTED BY RF-SCORE:    0.00 PKD
ROOT
HETATM    1  N   UNK A   1      -9.191  13.189  68.463  1.00  0.00    -0.364 NA 
HETATM    2  C   UNK A   1      -9.337  12.539  67.127  1.00  0.00    -0.201 C  
HETATM    3  H2  UNK A   1      -8.773  12.548  69.137  1.00  0.00     0.000 HD 
HETATM    4  H1  UNK A   1      -8.671  14.066  68.423  1.00  0.00     0.000 HD 
HETATM    5  O   UNK A   1     -10.160  14.750  66.730  1.00  0.00    -0.248 OA 
HETATM    6  C   UNK A   1      -9.993  13.532  66.152  1.00  0.00    -0.304 C  
HETATM    7  O   UNK A   1     -10.350  13.269  65.015  1.00  0.00    -0.325 OA 
ENDROOT
BRANCH   2   8
HETATM    8  C   UNK A   1     -10.119  11.223  67.188  1.00  0.00    -0.223 C  
BRANCH   8   9
HETATM    9  C   UNK A   1     -10.023  10.488  68.528  1.00  0.00    -0.181 C  
BRANCH   9  10
HETATM   10  C   UNK A   1      -9.202   9.229  68.371  1.00  0.00    -0.131 C  
HETATM   11  O   UNK A   1      -8.634   8.942  67.321  1.00  0.00    -0.117 OA 
HETATM   12  N   UNK A   1      -9.119   8.452  69.497  1.00  0.00    -0.152 N  
HETATM   13  H   UNK A   1      -9.613   8.745  70.340  1.00  0.00     0.000 HD 
BRANCH  12  14
HETATM   14  C   UNK A   1      -8.344   7.216  69.523  1.00  0.00    -0.133 C  
BRANCH  14  15
HETATM   15  C   UNK A   1      -9.085   6.210  70.425  1.00  0.00    -0.153 C  
ATOM     16  H   GLY A   2     -10.392   7.721  71.039  1.00  0.00     0.000 HD 
ATOM     17  N   GLY A   2     -10.114   6.749  71.179  1.00  0.00    -0.182 N  
HETATM   18  O   UNK A   1      -8.842   5.006  70.406  1.00  0.00    -0.108 OA 
BRANCH  17  19
ATOM     19  CA  GLY A   2     -10.806   5.927  72.181  1.00  0.00    -0.241 C  
ATOM     20  C   GLY A   2     -10.132   5.939  73.551  1.00  0.00    -0.197 C  
ATOM     21  O   GLY A   2      -9.012   6.699  73.599  1.00  0.00    -0.126 OA 
ATOM     22  OXT GLY A   2     -10.528   5.293  74.511  1.00  0.00    -0.274 OA 
ENDBRANCH  17  19
ENDBRANCH  14  15
BRANCH  14  23
HETATM   23  C   UNK A   1      -6.934   7.392  70.108  1.00  0.00    -0.060 C  
HETATM   24  S   UNK A   1      -6.792   8.567  71.494  1.00  0.00    -0.084 SA 
HETATM   25  H   UNK A   1      -5.517   8.726  72.023  1.00  0.00     0.000 H  
ENDBRANCH  14  23
ENDBRANCH  12  14
ENDBRANCH   9  10
ENDBRANCH   8   9
ENDBRANCH   2   8
TORSDOF 7
ENDMDL
MODEL      323
REMARK 921   NORMALIZED FREE ENERGY PREDICTED BY IDOCK:   -2.65 KCAL/MOL
REMARK 922        TOTAL FREE ENERGY PREDICTED BY IDOCK:   -4.30 KCAL/MOL
REMARK 923 INTER-LIGAND FREE ENERGY PREDICTED BY IDOCK:   -3.61 KCAL/MOL
REMARK 924 INTRA-LIGAND FREE ENERGY PREDICTED BY IDOCK:   -0.70 KCAL/MOL
REMARK 927      BINDING AFFINITY PREDICTED BY RF-SCORE:    0.00 PKD
ROOT
HETATM    1  N   UNK A   1      -6.004   7.285  68.762  1.00  0.00    -0.025 NA 
HETATM    2  C   UNK A   1      -6.678   7.757  70.008  1.00  0.00    -0.045 C  
HETATM    3  H2  UNK A   1      -6.172   6.291  68.610  1.00  0.00     0.000 HD 
HETATM    4  H1  UNK A   1      -6.265   7.829  67.939  1.00  0.00     0.000 HD 
HETATM    5  O   UNK A   1      -5.682   9.759  69.158  1.00  0.00    -0.035 OA 
HETATM    6  C   UNK A   1      -6.378   9.253  70.209  1.00  0.00    -0.051 C  
HETATM    7  O   UNK A   1      -6.691   9.906  71.191  1.00  0.00    -0.322 OA 
ENDROOT
BRANCH   2   8
HETATM    8  C   UNK A   1      -6.286   6.941  71.243  1.00  0.00    -0.037 C  
BRANCH   8   9
HETATM    9  C   UNK A   1      -7.440   6.653  72.208  1.00  0.00    -0.094 C  
BRANCH   9  10
HETATM   10  C   UNK A   1      -8.598   6.034  71.460  1.00  0.00    -0.132 C  
HETATM   11  O   UNK A   1      -8.547   4.899  70.995  1.00  0.00    -0.116 OA 
HETATM   12  N   UNK A   1      -9.713   6.825  71.368  1.00  0.00    -0.172 N  
HETATM   13  H   UNK A   1      -9.694   7.759  71.777  1.00  0.00     0.000 HD 
BRANCH  12  14
HETATM   14  C   UNK A   1     -10.928   6.368  70.702  1.00  0.00    -0.298 C  
BRANCH  14  15
HETATM   15  C   UNK A   1     -10.837   6.773  69.218  1.00  0.00    -0.264 C  
ATOM     16  H   GLY A   2     -11.011   4.767  68.658  1.00  0.00     0.000 HD 
ATOM     17  N   GLY A   2     -10.849   5.717  68.322  1.00  0.00    -0.219 N  
HETATM   18  O   UNK A   1     -10.847   7.947  68.855  1.00  0.00    -0.122 OA 
BRANCH  17  19
ATOM     19  CA  GLY A   2     -10.627   5.960  66.890  1.00  0.00    -0.315 C  
ATOM     20  C   GLY A   2      -9.950   4.795  66.171  1.00  0.00    -0.241 C  
ATOM     21  O   GLY A   2      -9.667   3.748  66.982  1.00  0.00    -0.212 OA 
ATOM     22  OXT GLY A   2      -9.645   4.810  64.988  1.00  0.00    -0.139 OA 
ENDBRANCH  17  19
ENDBRANCH  14  15
BRANCH  14  23
HETATM   23  C   UNK A   1     -12.209   7.003  71.265  1.00  0.00    -0.377 C  
HETATM   24  S   UNK A   1     -11.988   8.582  72.149  1.00  0.00    -0.390 SA 
HETATM   25  H   UNK A   1     -13.147   9.156  72.658  1.00  0.00     0.000 H  
ENDBRANCH  14  23
ENDBRANCH  12  14
ENDBRANCH   9  10
ENDBRANCH   8   9
ENDBRANCH   2   8
TORSDOF 7
ENDMDL
MODEL      324
REMARK 921   NORMALIZED FREE ENERGY PREDICTED BY IDOCK:   -2.64 KCAL/MOL
REMARK 922        TOTAL FREE ENERGY PREDICTED BY IDOCK:   -4.28 KCAL/MOL
REMARK 923 INTER-LIGAND FREE ENERGY PREDICTED BY IDOCK:   -4.31 KCAL/MOL
REMARK 924 INTRA-LIGAND FREE ENERGY PREDICTED BY IDOCK:    0.02 KCAL/MOL
REMARK 927      BINDING AFFINITY PREDICTED BY RF-SCORE:    0.00 PKD
ROOT
HETATM    1  N   UNK A   1     -10.223   6.702  68.265  1.00  0.00    -0.159 NA 
HETATM    2  C   UNK A   1      -9.081   6.447  67.337  1.00  0.00    -0.111 C  
HETATM    3  H2  UNK A   1      -9.956   7.354  69.001  1.00  0.00     0.000 HD 
HETATM    4  H1  UNK A   1     -11.063   7.020  67.782  1.00  0.00     0.000 HD 
HETATM    5  O   UNK A   1     -10.841   5.143  66.375  1.00  0.00    -0.283 OA 
HETATM    6  C   UNK A   1      -9.521   5.441  66.259  1.00  0.00    -0.157 C  
HETATM    7  O   UNK A   1      -8.787   4.943  65.421  1.00  0.00    -0.139 OA 
ENDROOT
BRANCH   2   8
HETATM    8  C   UNK A   1      -7.820   5.968  68.062  1.00  0.00    -0.106 C  
BRANCH   8   9
HETATM    9  C   UNK A   1      -8.072   5.379  69.454  1.00  0.00    -0.093 C  
BRANCH   9  10
HETATM   10  C   UNK A   1      -8.486   6.472  70.412  1.00  0.00    -0.131 C  
HETATM   11  O   UNK A   1      -7.967   7.585  70.401  1.00  0.00    -0.099 OA 
HETATM   12  N   UNK A   1      -9.502   6.134  71.267  1.00  0.00    -0.163 N  
HETATM   13  H   UNK A   1      -9.893   5.193  71.225  1.00  0.00     0.000 HD 
BRANCH  12  14
HETATM   14  C   UNK A   1     -10.039   7.083  72.237  1.00  0.00    -0.177 C  
BRANCH  14  15
HETATM   15  C   UNK A   1     -11.110   7.933  71.526  1.00  0.00    -0.241 C  
ATOM     16  H   GLY A   2      -9.875   9.614  71.674  1.00  0.00     0.000 HD 
ATOM     17  N   GLY A   2     -10.798   9.277  71.398  1.00  0.00    -0.341 N  
HETATM   18  O   UNK A   1     -12.120   7.440  71.030  1.00  0.00    -0.312 OA 
BRANCH  17  19
ATOM     19  CA  GLY A   2     -11.792  10.219  70.865  1.00  0.00    -0.377 C  
ATOM     20  C   GLY A   2     -11.639  10.487  69.369  1.00  0.00    -0.246 C  
ATOM     21  O   GLY A   2     -10.610   9.815  68.801  1.00  0.00    -0.207 OA 
ATOM     22  OXT GLY A   2     -12.341  11.266  68.742  1.00  0.00    -0.518 OA 
ENDBRANCH  17  19
ENDBRANCH  14  15
BRANCH  14  23
HETATM   23  C   UNK A   1      -8.985   8.055  72.789  1.00  0.00    -0.228 C  
HETATM   24  S   UNK A   1      -8.191   7.558  74.352  1.00  0.00    -0.218 SA 
HETATM   25  H   UNK A   1      -7.237   8.437  74.852  1.00  0.00     0.000 H  
ENDBRANCH  14  23
ENDBRANCH  12  14
ENDBRANCH   9  10
ENDBRANCH   8   9
ENDBRANCH   2   8
TORSDOF 7
ENDMDL
MODEL      325
REMARK 921   NORMALIZED FREE ENERGY PREDICTED BY IDOCK:   -2.64 KCAL/MOL
REMARK 922        TOTAL FREE ENERGY PREDICTED BY IDOCK:   -4.28 KCAL/MOL
REMARK 923 INTER-LIGAND FREE ENERGY PREDICTED BY IDOCK:   -3.59 KCAL/MOL
REMARK 924 INTRA-LIGAND FREE ENERGY PREDICTED BY IDOCK:   -0.69 KCAL/MOL
REMARK 927      BINDING AFFINITY PREDICTED BY RF-SCORE:    0.00 PKD
ROOT
HETATM    1  N   UNK A   1      -9.933   8.933  72.081  1.00  0.00    -0.290 NA 
HETATM    2  C   UNK A   1     -10.966   8.959  71.003  1.00  0.00    -0.276 C  
HETATM    3  H2  UNK A   1      -9.928   9.809  72.602  1.00  0.00     0.000 HD 
HETATM    4  H1  UNK A   1     -10.035   8.135  72.709  1.00  0.00     0.000 HD 
HETATM    5  O   UNK A   1     -10.043   6.762  70.795  1.00  0.00    -0.190 OA 
HETATM    6  C   UNK A   1     -10.921   7.629  70.229  1.00  0.00    -0.252 C  
HETATM    7  O   UNK A   1     -11.562   7.382  69.220  1.00  0.00     0.243 OA 
ENDROOT
BRANCH   2   8
HETATM    8  C   UNK A   1     -10.813  10.156  70.060  1.00  0.00    -0.361 C  
BRANCH   8   9
HETATM    9  C   UNK A   1     -11.676  11.367  70.425  1.00  0.00    -0.362 C  
BRANCH   9  10
HETATM   10  C   UNK A   1     -11.486  12.466  69.405  1.00  0.00    -0.271 C  
HETATM   11  O   UNK A   1     -12.429  12.980  68.811  1.00  0.00     0.050 OA 
HETATM   12  N   UNK A   1     -10.187  12.860  69.220  1.00  0.00    -0.307 N  
HETATM   13  H   UNK A   1      -9.447  12.395  69.746  1.00  0.00     0.000 HD 
BRANCH  12  14
HETATM   14  C   UNK A   1      -9.832  13.928  68.290  1.00  0.00    -0.231 C  
BRANCH  14  15
HETATM   15  C   UNK A   1      -9.250  13.278  67.021  1.00  0.00    -0.237 C  
ATOM     16  H   GLY A   2      -8.858  11.528  68.094  1.00  0.00     0.000 HD 
ATOM     17  N   GLY A   2      -8.741  12.002  67.198  1.00  0.00    -0.177 N  
HETATM   18  O   UNK A   1      -9.315  13.814  65.917  1.00  0.00    -0.109 OA 
BRANCH  17  19
ATOM     19  CA  GLY A   2      -8.033  11.329  66.101  1.00  0.00    -0.038 C  
ATOM     20  C   GLY A   2      -8.520   9.904  65.844  1.00  0.00    -0.130 C  
ATOM     21  O   GLY A   2      -9.514   9.512  66.676  1.00  0.00    -0.152 OA 
ATOM     22  OXT GLY A   2      -8.039   9.162  65.001  1.00  0.00    -0.117 OA 
ENDBRANCH  17  19
ENDBRANCH  14  15
BRANCH  14  23
HETATM   23  C   UNK A   1      -8.762  14.884  68.840  1.00  0.00    -0.180 C  
HETATM   24  S   UNK A   1      -8.808  16.585  68.187  1.00  0.00    -0.208 SA 
HETATM   25  H   UNK A   1      -7.840  17.450  68.683  1.00  0.00     0.000 H  
ENDBRANCH  14  23
ENDBRANCH  12  14
ENDBRANCH   9  10
ENDBRANCH   8   9
ENDBRANCH   2   8
TORSDOF 7
ENDMDL
MODEL      326
REMARK 921   NORMALIZED FREE ENERGY PREDICTED BY IDOCK:   -2.60 KCAL/MOL
REMARK 922        TOTAL FREE ENERGY PREDICTED BY IDOCK:   -4.23 KCAL/MOL
REMARK 923 INTER-LIGAND FREE ENERGY PREDICTED BY IDOCK:   -3.69 KCAL/MOL
REMARK 924 INTRA-LIGAND FREE ENERGY PREDICTED BY IDOCK:   -0.53 KCAL/MOL
REMARK 927      BINDING AFFINITY PREDICTED BY RF-SCORE:    0.00 PKD
ROOT
HETATM    1  N   UNK A   1      -6.414  10.180  70.875  1.00  0.00    -0.320 NA 
HETATM    2  C   UNK A   1      -7.498   9.581  70.041  1.00  0.00    -0.126 C  
HETATM    3  H2  UNK A   1      -6.755  10.994  71.386  1.00  0.00     0.000 HD 
HETATM    4  H1  UNK A   1      -5.982   9.506  71.507  1.00  0.00     0.000 HD 
HETATM    5  O   UNK A   1      -5.651   8.117  69.633  1.00  0.00    -0.026 OA 
HETATM    6  C   UNK A   1      -6.934   8.375  69.270  1.00  0.00    -0.054 C  
HETATM    7  O   UNK A   1      -7.537   7.740  68.420  1.00  0.00    -0.104 OA 
ENDROOT
BRANCH   2   8
HETATM    8  C   UNK A   1      -8.148  10.592  69.091  1.00  0.00    -0.143 C  
BRANCH   8   9
HETATM    9  C   UNK A   1      -9.671  10.474  68.982  1.00  0.00    -0.221 C  
BRANCH   9  10
HETATM   10  C   UNK A   1     -10.152  11.134  67.710  1.00  0.00    -0.178 C  
HETATM   11  O   UNK A   1     -10.269  10.517  66.655  1.00  0.00    -0.217 OA 
HETATM   12  N   UNK A   1     -10.473  12.460  67.835  1.00  0.00    -0.210 N  
HETATM   13  H   UNK A   1     -10.356  12.915  68.741  1.00  0.00     0.000 HD 
BRANCH  12  14
HETATM   14  C   UNK A   1     -10.979  13.239  66.710  1.00  0.00    -0.287 C  
BRANCH  14  15
HETATM   15  C   UNK A   1      -9.862  14.198  66.257  1.00  0.00    -0.306 C  
ATOM     16  H   GLY A   2      -8.845  13.864  68.052  1.00  0.00     0.000 HD 
ATOM     17  N   GLY A   2      -8.857  14.406  67.187  1.00  0.00    -0.218 N  
HETATM   18  O   UNK A   1      -9.819  14.670  65.123  1.00  0.00    -0.303 OA 
BRANCH  17  19
ATOM     19  CA  GLY A   2      -7.809  15.404  66.934  1.00  0.00    -0.161 C  
ATOM     20  C   GLY A   2      -6.838  15.579  68.100  1.00  0.00    -0.124 C  
ATOM     21  O   GLY A   2      -7.119  14.788  69.163  1.00  0.00    -0.123 OA 
ATOM     22  OXT GLY A   2      -5.918  16.383  68.105  1.00  0.00    -0.102 OA 
ENDBRANCH  17  19
ENDBRANCH  14  15
BRANCH  14  23
HETATM   23  C   UNK A   1     -12.199  14.103  67.065  1.00  0.00    -0.339 C  
HETATM   24  S   UNK A   1     -12.004  15.194  68.512  1.00  0.00    -0.128 SA 
HETATM   25  H   UNK A   1     -13.108  15.975  68.833  1.00  0.00     0.000 H  
ENDBRANCH  14  23
ENDBRANCH  12  14
ENDBRANCH   9  10
ENDBRANCH   8   9
ENDBRANCH   2   8
TORSDOF 7
ENDMDL
MODEL      327
REMARK 921   NORMALIZED FREE ENERGY PREDICTED BY IDOCK:   -2.59 KCAL/MOL
REMARK 922        TOTAL FREE ENERGY PREDICTED BY IDOCK:   -4.21 KCAL/MOL
REMARK 923 INTER-LIGAND FREE ENERGY PREDICTED BY IDOCK:   -4.34 KCAL/MOL
REMARK 924 INTRA-LIGAND FREE ENERGY PREDICTED BY IDOCK:    0.13 KCAL/MOL
REMARK 927      BINDING AFFINITY PREDICTED BY RF-SCORE:    0.00 PKD
ROOT
HETATM    1  N   UNK A   1      -8.625  11.090  67.414  1.00  0.00    -0.131 NA 
HETATM    2  C   UNK A   1     -10.072  11.022  67.052  1.00  0.00    -0.196 C  
HETATM    3  H2  UNK A   1      -8.170  10.189  67.270  1.00  0.00     0.000 HD 
HETATM    4  H1  UNK A   1      -8.128  11.833  66.922  1.00  0.00     0.000 HD 
HETATM    5  O   UNK A   1      -9.796  13.312  67.684  1.00  0.00    -0.220 OA 
HETATM    6  C   UNK A   1     -10.722  12.393  67.307  1.00  0.00    -0.230 C  
HETATM    7  O   UNK A   1     -11.915  12.633  67.217  1.00  0.00    -0.424 OA 
ENDROOT
BRANCH   2   8
HETATM    8  C   UNK A   1     -10.819   9.907  67.791  1.00  0.00    -0.321 C  
BRANCH   8   9
HETATM    9  C   UNK A   1      -9.913   8.845  68.421  1.00  0.00    -0.198 C  
BRANCH   9  10
HETATM   10  C   UNK A   1     -10.697   8.018  69.413  1.00  0.00    -0.159 C  
HETATM   11  O   UNK A   1     -11.143   6.908  69.136  1.00  0.00    -0.219 OA 
HETATM   12  N   UNK A   1     -10.844   8.589  70.650  1.00  0.00    -0.220 N  
HETATM   13  H   UNK A   1     -10.449   9.515  70.819  1.00  0.00     0.000 HD 
BRANCH  12  14
HETATM   14  C   UNK A   1     -11.552   7.912  71.732  1.00  0.00    -0.278 C  
BRANCH  14  15
HETATM   15  C   UNK A   1     -10.696   6.712  72.180  1.00  0.00    -0.218 C  
ATOM     16  H   GLY A   2      -8.964   7.859  71.950  1.00  0.00     0.000 HD 
ATOM     17  N   GLY A   2      -9.328   6.928  72.156  1.00  0.00    -0.140 N  
HETATM   18  O   UNK A   1     -11.192   5.675  72.612  1.00  0.00    -0.269 OA 
BRANCH  17  19
ATOM     19  CA  GLY A   2      -8.399   5.822  72.425  1.00  0.00    -0.118 C  
ATOM     20  C   GLY A   2      -7.638   5.350  71.188  1.00  0.00    -0.097 C  
ATOM     21  O   GLY A   2      -7.958   6.030  70.061  1.00  0.00    -0.105 OA 
ATOM     22  OXT GLY A   2      -6.846   4.419  71.190  1.00  0.00    -0.033 OA 
ENDBRANCH  17  19
ENDBRANCH  14  15
BRANCH  14  23
HETATM   23  C   UNK A   1     -12.922   7.358  71.312  1.00  0.00    -0.310 C  
HETATM   24  S   UNK A   1     -14.367   8.342  71.826  1.00  0.00    -0.455 SA 
HETATM   25  H   UNK A   1     -15.606   7.841  71.447  1.00  0.00     0.000 H  
ENDBRANCH  14  23
ENDBRANCH  12  14
ENDBRANCH   9  10
ENDBRANCH   8   9
ENDBRANCH   2   8
TORSDOF 7
ENDMDL
MODEL      328
REMARK 921   NORMALIZED FREE ENERGY PREDICTED BY IDOCK:   -2.57 KCAL/MOL
REMARK 922        TOTAL FREE ENERGY PREDICTED BY IDOCK:   -4.19 KCAL/MOL
REMARK 923 INTER-LIGAND FREE ENERGY PREDICTED BY IDOCK:   -3.01 KCAL/MOL
REMARK 924 INTRA-LIGAND FREE ENERGY PREDICTED BY IDOCK:   -1.18 KCAL/MOL
REMARK 927      BINDING AFFINITY PREDICTED BY RF-SCORE:    0.00 PKD
ROOT
HETATM    1  N   UNK A   1      -8.780   4.887  69.823  1.00  0.00    -0.085 NA 
HETATM    2  C   UNK A   1      -7.321   4.740  69.544  1.00  0.00    -0.056 C  
HETATM    3  H2  UNK A   1      -9.224   5.494  69.134  1.00  0.00     0.000 HD 
HETATM    4  H1  UNK A   1      -9.264   3.992  69.887  1.00  0.00     0.000 HD 
HETATM    5  O   UNK A   1      -7.633   3.340  71.458  1.00  0.00    -0.046 OA 
HETATM    6  C   UNK A   1      -6.689   3.839  70.620  1.00  0.00    -0.033 C  
HETATM    7  O   UNK A   1      -5.495   3.616  70.736  1.00  0.00    -0.011 OA 
ENDROOT
BRANCH   2   8
HETATM    8  C   UNK A   1      -6.593   6.085  69.449  1.00  0.00    -0.044 C  
BRANCH   8   9
HETATM    9  C   UNK A   1      -6.260   6.527  68.021  1.00  0.00    -0.032 C  
BRANCH   9  10
HETATM   10  C   UNK A   1      -7.176   7.652  67.599  1.00  0.00    -0.087 C  
HETATM   11  O   UNK A   1      -6.895   8.418  66.681  1.00  0.00    -0.066 OA 
HETATM   12  N   UNK A   1      -8.352   7.730  68.298  1.00  0.00    -0.124 N  
HETATM   13  H   UNK A   1      -8.527   7.063  69.049  1.00  0.00     0.000 HD 
BRANCH  12  14
HETATM   14  C   UNK A   1      -9.360   8.742  67.999  1.00  0.00    -0.142 C  
BRANCH  14  15
HETATM   15  C   UNK A   1      -9.955   9.228  69.335  1.00  0.00    -0.181 C  
ATOM     16  H   GLY A   2      -9.529   7.374  70.201  1.00  0.00     0.000 HD 
ATOM     17  N   GLY A   2      -9.978   8.279  70.344  1.00  0.00    -0.187 N  
HETATM   18  O   UNK A   1     -10.299  10.393  69.517  1.00  0.00    -0.222 OA 
BRANCH  17  19
ATOM     19  CA  GLY A   2     -10.646   8.572  71.619  1.00  0.00    -0.283 C  
ATOM     20  C   GLY A   2     -10.443   7.488  72.677  1.00  0.00    -0.271 C  
ATOM     21  O   GLY A   2      -9.689   6.447  72.249  1.00  0.00    -0.153 OA 
ATOM     22  OXT GLY A   2     -10.944   7.522  73.791  1.00  0.00    -0.266 OA 
ENDBRANCH  17  19
ENDBRANCH  14  15
BRANCH  14  23
HETATM   23  C   UNK A   1     -10.526   8.210  67.152  1.00  0.00    -0.326 C  
HETATM   24  S   UNK A   1     -10.766   6.404  67.179  1.00  0.00    -0.395 SA 
HETATM   25  H   UNK A   1     -11.820   5.922  66.412  1.00  0.00     0.000 H  
ENDBRANCH  14  23
ENDBRANCH  12  14
ENDBRANCH   9  10
ENDBRANCH   8   9
ENDBRANCH   2   8
TORSDOF 7
ENDMDL
MODEL      329
REMARK 921   NORMALIZED FREE ENERGY PREDICTED BY IDOCK:   -2.57 KCAL/MOL
REMARK 922        TOTAL FREE ENERGY PREDICTED BY IDOCK:   -4.19 KCAL/MOL
REMARK 923 INTER-LIGAND FREE ENERGY PREDICTED BY IDOCK:   -3.50 KCAL/MOL
REMARK 924 INTRA-LIGAND FREE ENERGY PREDICTED BY IDOCK:   -0.69 KCAL/MOL
REMARK 927      BINDING AFFINITY PREDICTED BY RF-SCORE:    0.00 PKD
ROOT
HETATM    1  N   UNK A   1      -9.678  12.557  68.054  1.00  0.00    -0.209 NA 
HETATM    2  C   UNK A   1      -9.721  12.013  66.664  1.00  0.00    -0.208 C  
HETATM    3  H2  UNK A   1      -9.232  11.897  68.690  1.00  0.00     0.000 HD 
HETATM    4  H1  UNK A   1      -9.233  13.473  68.108  1.00  0.00     0.000 HD 
HETATM    5  O   UNK A   1     -10.712  14.176  66.414  1.00  0.00    -0.284 OA 
HETATM    6  C   UNK A   1     -10.423  13.030  65.746  1.00  0.00    -0.280 C  
HETATM    7  O   UNK A   1     -10.716  12.837  64.577  1.00  0.00    -0.316 OA 
ENDROOT
BRANCH   2   8
HETATM    8  C   UNK A   1     -10.390  10.638  66.583  1.00  0.00    -0.297 C  
BRANCH   8   9
HETATM    9  C   UNK A   1     -10.778  10.039  67.938  1.00  0.00    -0.322 C  
BRANCH   9  10
HETATM   10  C   UNK A   1      -9.600   9.307  68.537  1.00  0.00    -0.147 C  
HETATM   11  O   UNK A   1      -8.879   9.813  69.392  1.00  0.00    -0.155 OA 
HETATM   12  N   UNK A   1      -9.420   8.030  68.075  1.00  0.00    -0.145 N  
HETATM   13  H   UNK A   1     -10.055   7.665  67.365  1.00  0.00     0.000 HD 
BRANCH  12  14
HETATM   14  C   UNK A   1      -8.345   7.176  68.571  1.00  0.00    -0.125 C  
BRANCH  14  15
HETATM   15  C   UNK A   1      -7.562   6.646  67.355  1.00  0.00    -0.104 C  
ATOM     16  H   GLY A   2      -8.832   7.701  66.074  1.00  0.00     0.000 HD 
ATOM     17  N   GLY A   2      -8.064   7.032  66.123  1.00  0.00    -0.113 N  
HETATM   18  O   UNK A   1      -6.519   6.006  67.471  1.00  0.00    -0.043 OA 
BRANCH  17  19
ATOM     19  CA  GLY A   2      -7.493   6.480  64.886  1.00  0.00    -0.086 C  
ATOM     20  C   GLY A   2      -8.248   5.263  64.355  1.00  0.00    -0.135 C  
ATOM     21  O   GLY A   2      -9.305   4.903  65.122  1.00  0.00    -0.155 OA 
ATOM     22  OXT GLY A   2      -7.915   4.636  63.361  1.00  0.00    -0.075 OA 
ENDBRANCH  17  19
ENDBRANCH  14  15
BRANCH  14  23
HETATM   23  C   UNK A   1      -8.848   5.952  69.352  1.00  0.00    -0.122 C  
HETATM   24  S   UNK A   1      -9.655   6.307  70.947  1.00  0.00    -0.176 SA 
HETATM   25  H   UNK A   1     -10.110   5.200  71.654  1.00  0.00     0.000 H  
ENDBRANCH  14  23
ENDBRANCH  12  14
ENDBRANCH   9  10
ENDBRANCH   8   9
ENDBRANCH   2   8
TORSDOF 7
ENDMDL
MODEL      330
REMARK 921   NORMALIZED FREE ENERGY PREDICTED BY IDOCK:   -2.54 KCAL/MOL
REMARK 922        TOTAL FREE ENERGY PREDICTED BY IDOCK:   -4.14 KCAL/MOL
REMARK 923 INTER-LIGAND FREE ENERGY PREDICTED BY IDOCK:   -3.41 KCAL/MOL
REMARK 924 INTRA-LIGAND FREE ENERGY PREDICTED BY IDOCK:   -0.73 KCAL/MOL
REMARK 927      BINDING AFFINITY PREDICTED BY RF-SCORE:    0.00 PKD
ROOT
HETATM    1  N   UNK A   1      -5.955   4.959  67.344  1.00  0.00    -0.022 NA 
HETATM    2  C   UNK A   1      -7.330   5.527  67.222  1.00  0.00    -0.080 C  
HETATM    3  H2  UNK A   1      -5.989   3.973  67.601  1.00  0.00     0.000 HD 
HETATM    4  H1  UNK A   1      -5.392   5.097  66.505  1.00  0.00     0.000 HD 
HETATM    5  O   UNK A   1      -5.939   7.385  66.641  1.00  0.00    -0.034 OA 
HETATM    6  C   UNK A   1      -7.229   7.019  66.857  1.00  0.00    -0.077 C  
HETATM    7  O   UNK A   1      -8.171   7.792  66.795  1.00  0.00    -0.115 OA 
ENDROOT
BRANCH   2   8
HETATM    8  C   UNK A   1      -8.175   5.319  68.482  1.00  0.00    -0.090 C  
BRANCH   8   9
HETATM    9  C   UNK A   1      -9.616   4.875  68.215  1.00  0.00    -0.196 C  
BRANCH   9  10
HETATM   10  C   UNK A   1     -10.578   5.971  68.611  1.00  0.00    -0.266 C  
HETATM   11  O   UNK A   1     -11.249   6.585  67.785  1.00  0.00    -0.305 OA 
HETATM   12  N   UNK A   1     -10.664   6.204  69.958  1.00  0.00    -0.273 N  
HETATM   13  H   UNK A   1     -10.081   5.659  70.594  1.00  0.00     0.000 HD 
BRANCH  12  14
HETATM   14  C   UNK A   1     -11.565   7.210  70.510  1.00  0.00    -0.290 C  
BRANCH  14  15
HETATM   15  C   UNK A   1     -10.721   8.209  71.323  1.00  0.00    -0.227 C  
ATOM     16  H   GLY A   2      -9.055   7.767  70.140  1.00  0.00     0.000 HD 
ATOM     17  N   GLY A   2      -9.386   8.279  70.959  1.00  0.00    -0.155 N  
HETATM   18  O   UNK A   1     -11.213   8.952  72.169  1.00  0.00    -0.360 OA 
BRANCH  17  19
ATOM     19  CA  GLY A   2      -8.446   9.088  71.746  1.00  0.00     0.117 C  
ATOM     20  C   GLY A   2      -7.156   9.424  70.999  1.00  0.00    -0.044 C  
ATOM     21  O   GLY A   2      -7.106   8.911  69.746  1.00  0.00    -0.051 OA 
ATOM     22  OXT GLY A   2      -6.231  10.055  71.488  1.00  0.00    -0.311 OA 
ENDBRANCH  17  19
ENDBRANCH  14  15
BRANCH  14  23
HETATM   23  C   UNK A   1     -12.619   6.628  71.464  1.00  0.00    -0.234 C  
HETATM   24  S   UNK A   1     -14.230   7.480  71.482  1.00  0.00    -0.396 SA 
HETATM   25  H   UNK A   1     -15.183   6.953  72.346  1.00  0.00     0.000 H  
ENDBRANCH  14  23
ENDBRANCH  12  14
ENDBRANCH   9  10
ENDBRANCH   8   9
ENDBRANCH   2   8
TORSDOF 7
ENDMDL
MODEL      331
REMARK 921   NORMALIZED FREE ENERGY PREDICTED BY IDOCK:   -2.52 KCAL/MOL
REMARK 922        TOTAL FREE ENERGY PREDICTED BY IDOCK:   -4.12 KCAL/MOL
REMARK 923 INTER-LIGAND FREE ENERGY PREDICTED BY IDOCK:   -4.60 KCAL/MOL
REMARK 924 INTRA-LIGAND FREE ENERGY PREDICTED BY IDOCK:    0.48 KCAL/MOL
REMARK 927      BINDING AFFINITY PREDICTED BY RF-SCORE:    0.00 PKD
ROOT
HETATM    1  N   UNK A   1      -7.396  10.176  69.893  1.00  0.00    -0.153 NA 
HETATM    2  C   UNK A   1      -8.691   9.951  69.186  1.00  0.00    -0.159 C  
HETATM    3  H2  UNK A   1      -7.550  10.574  70.819  1.00  0.00     0.000 HD 
HETATM    4  H1  UNK A   1      -6.822   9.334  69.948  1.00  0.00     0.000 HD 
HETATM    5  O   UNK A   1      -7.084   9.128  67.616  1.00  0.00    -0.081 OA 
HETATM    6  C   UNK A   1      -8.409   9.375  67.787  1.00  0.00    -0.115 C  
HETATM    7  O   UNK A   1      -9.249   9.186  66.922  1.00  0.00    -0.140 OA 
ENDROOT
BRANCH   2   8
HETATM    8  C   UNK A   1      -9.552  11.215  69.102  1.00  0.00    -0.024 C  
BRANCH   8   9
HETATM    9  C   UNK A   1     -10.935  11.002  68.479  1.00  0.00    -0.276 C  
BRANCH   9  10
HETATM   10  C   UNK A   1     -11.166  12.007  67.374  1.00  0.00    -0.307 C  
HETATM   11  O   UNK A   1     -12.087  11.897  66.569  1.00  0.00    -0.568 OA 
HETATM   12  N   UNK A   1     -10.289  13.059  67.360  1.00  0.00    -0.233 N  
HETATM   13  H   UNK A   1      -9.545  13.094  68.058  1.00  0.00     0.000 HD 
BRANCH  12  14
HETATM   14  C   UNK A   1     -10.389  14.132  66.376  1.00  0.00    -0.287 C  
BRANCH  14  15
HETATM   15  C   UNK A   1      -9.711  15.383  66.967  1.00  0.00    -0.224 C  
ATOM     16  H   GLY A   2      -8.920  15.844  65.088  1.00  0.00     0.000 HD 
ATOM     17  N   GLY A   2      -8.932  16.101  66.076  1.00  0.00    -0.333 N  
HETATM   18  O   UNK A   1      -9.921  15.764  68.116  1.00  0.00    -0.213 OA 
BRANCH  17  19
ATOM     19  CA  GLY A   2      -8.122  17.233  66.547  1.00  0.00    -0.278 C  
ATOM     20  C   GLY A   2      -6.728  16.830  67.023  1.00  0.00    -0.206 C  
ATOM     21  O   GLY A   2      -6.488  15.500  66.933  1.00  0.00    -0.226 OA 
ATOM     22  OXT GLY A   2      -5.913  17.614  67.486  1.00  0.00    -0.143 OA 
ENDBRANCH  17  19
ENDBRANCH  14  15
BRANCH  14  23
HETATM   23  C   UNK A   1     -11.837  14.519  66.040  1.00  0.00    -0.334 C  
HETATM   24  S   UNK A   1     -12.260  14.548  64.268  1.00  0.00    -0.296 SA 
HETATM   25  H   UNK A   1     -13.569  14.899  63.964  1.00  0.00     0.000 H  
ENDBRANCH  14  23
ENDBRANCH  12  14
ENDBRANCH   9  10
ENDBRANCH   8   9
ENDBRANCH   2   8
TORSDOF 7
ENDMDL
MODEL      332
REMARK 921   NORMALIZED FREE ENERGY PREDICTED BY IDOCK:   -2.48 KCAL/MOL
REMARK 922        TOTAL FREE ENERGY PREDICTED BY IDOCK:   -4.06 KCAL/MOL
REMARK 923 INTER-LIGAND FREE ENERGY PREDICTED BY IDOCK:   -4.32 KCAL/MOL
REMARK 924 INTRA-LIGAND FREE ENERGY PREDICTED BY IDOCK:    0.26 KCAL/MOL
REMARK 927      BINDING AFFINITY PREDICTED BY RF-SCORE:    0.00 PKD
ROOT
HETATM    1  N   UNK A   1     -11.352   4.359  65.010  1.00  0.00    -1.102 NA 
HETATM    2  C   UNK A   1      -9.872   4.266  64.840  1.00  0.00    -0.175 C  
HETATM    3  H2  UNK A   1     -11.609   5.211  65.508  1.00  0.00     0.000 HD 
HETATM    4  H1  UNK A   1     -11.859   4.285  64.128  1.00  0.00     0.000 HD 
HETATM    5  O   UNK A   1     -10.655   2.300  63.723  1.00  0.00    -0.132 OA 
HETATM    6  C   UNK A   1      -9.530   2.956  64.108  1.00  0.00    -0.133 C  
HETATM    7  O   UNK A   1      -8.401   2.533  63.915  1.00  0.00    -0.081 OA 
ENDROOT
BRANCH   2   8
HETATM    8  C   UNK A   1      -9.112   4.376  66.165  1.00  0.00    -0.130 C  
BRANCH   8   9
HETATM    9  C   UNK A   1      -9.986   4.228  67.414  1.00  0.00    -0.120 C  
BRANCH   9  10
HETATM   10  C   UNK A   1      -9.731   5.374  68.365  1.00  0.00    -0.136 C  
HETATM   11  O   UNK A   1      -8.609   5.637  68.788  1.00  0.00    -0.104 OA 
HETATM   12  N   UNK A   1     -10.839   6.109  68.691  1.00  0.00    -0.309 N  
HETATM   13  H   UNK A   1     -11.745   5.840  68.305  1.00  0.00     0.000 HD 
BRANCH  12  14
HETATM   14  C   UNK A   1     -10.762   7.266  69.577  1.00  0.00    -0.232 C  
BRANCH  14  15
HETATM   15  C   UNK A   1     -10.532   8.516  68.706  1.00  0.00    -0.184 C  
ATOM     16  H   GLY A   2     -10.978   7.406  66.992  1.00  0.00     0.000 HD 
ATOM     17  N   GLY A   2     -10.656   8.308  67.342  1.00  0.00    -0.283 N  
HETATM   18  O   UNK A   1     -10.344   9.630  69.189  1.00  0.00    -0.190 OA 
BRANCH  17  19
ATOM     19  CA  GLY A   2     -10.324   9.384  66.397  1.00  0.00    -0.167 C  
ATOM     20  C   GLY A   2      -9.078   9.099  65.561  1.00  0.00    -0.219 C  
ATOM     21  O   GLY A   2      -8.496   7.909  65.844  1.00  0.00    -0.124 OA 
ATOM     22  OXT GLY A   2      -8.613   9.880  64.744  1.00  0.00    -0.153 OA 
ENDBRANCH  17  19
ENDBRANCH  14  15
BRANCH  14  23
HETATM   23  C   UNK A   1      -9.598   7.193  70.577  1.00  0.00    -0.169 C  
HETATM   24  S   UNK A   1     -10.050   6.763  72.290  1.00  0.00    -0.174 SA 
HETATM   25  H   UNK A   1      -8.997   6.697  73.194  1.00  0.00     0.000 H  
ENDBRANCH  14  23
ENDBRANCH  12  14
ENDBRANCH   9  10
ENDBRANCH   8   9
ENDBRANCH   2   8
TORSDOF 7
ENDMDL
MODEL      333
REMARK 921   NORMALIZED FREE ENERGY PREDICTED BY IDOCK:   -2.45 KCAL/MOL
REMARK 922        TOTAL FREE ENERGY PREDICTED BY IDOCK:   -4.02 KCAL/MOL
REMARK 923 INTER-LIGAND FREE ENERGY PREDICTED BY IDOCK:   -2.90 KCAL/MOL
REMARK 924 INTRA-LIGAND FREE ENERGY PREDICTED BY IDOCK:   -1.13 KCAL/MOL
REMARK 927      BINDING AFFINITY PREDICTED BY RF-SCORE:    0.00 PKD
ROOT
HETATM    1  N   UNK A   1      -9.271   5.265  71.204  1.00  0.00    -0.143 NA 
HETATM    2  C   UNK A   1     -10.212   5.704  72.277  1.00  0.00    -0.199 C  
HETATM    3  H2  UNK A   1      -8.844   6.067  70.742  1.00  0.00     0.000 HD 
HETATM    4  H1  UNK A   1      -8.560   4.616  71.541  1.00  0.00     0.000 HD 
HETATM    5  O   UNK A   1     -10.313   3.319  72.432  1.00  0.00    -0.152 OA 
HETATM    6  C   UNK A   1     -10.850   4.463  72.927  1.00  0.00    -0.176 C  
HETATM    7  O   UNK A   1     -11.743   4.487  73.759  1.00  0.00    -0.137 OA 
ENDROOT
BRANCH   2   8
HETATM    8  C   UNK A   1     -11.281   6.677  71.771  1.00  0.00    -0.299 C  
BRANCH   8   9
HETATM    9  C   UNK A   1     -10.869   8.152  71.814  1.00  0.00    -0.317 C  
BRANCH   9  10
HETATM   10  C   UNK A   1     -10.588   8.652  70.416  1.00  0.00    -0.220 C  
HETATM   11  O   UNK A   1     -11.236   9.559  69.901  1.00  0.00    -0.234 OA 
HETATM   12  N   UNK A   1      -9.539   8.037  69.784  1.00  0.00    -0.171 N  
HETATM   13  H   UNK A   1      -9.038   7.291  70.267  1.00  0.00     0.000 HD 
BRANCH  12  14
HETATM   14  C   UNK A   1      -9.118   8.420  68.440  1.00  0.00    -0.135 C  
BRANCH  14  15
HETATM   15  C   UNK A   1      -8.805   7.131  67.656  1.00  0.00    -0.119 C  
ATOM     16  H   GLY A   2      -8.050   8.274  66.077  1.00  0.00     0.000 HD 
ATOM     17  N   GLY A   2      -8.287   7.331  66.387  1.00  0.00    -0.119 N  
HETATM   18  O   UNK A   1      -8.920   6.014  68.154  1.00  0.00    -0.115 OA 
BRANCH  17  19
ATOM     19  CA  GLY A   2      -8.077   6.189  65.486  1.00  0.00    -0.131 C  
ATOM     20  C   GLY A   2      -6.604   5.854  65.259  1.00  0.00    -0.043 C  
ATOM     21  O   GLY A   2      -5.753   6.672  65.924  1.00  0.00    -0.024 OA 
ATOM     22  OXT GLY A   2      -6.215   4.964  64.517  1.00  0.00    -0.028 OA 
ENDBRANCH  17  19
ENDBRANCH  14  15
BRANCH  14  23
HETATM   23  C   UNK A   1      -7.845   9.280  68.421  1.00  0.00    -0.094 C  
HETATM   24  S   UNK A   1      -6.485   8.708  69.491  1.00  0.00    -0.040 SA 
HETATM   25  H   UNK A   1      -5.334   9.486  69.474  1.00  0.00     0.000 H  
ENDBRANCH  14  23
ENDBRANCH  12  14
ENDBRANCH   9  10
ENDBRANCH   8   9
ENDBRANCH   2   8
TORSDOF 7
ENDMDL
MODEL      334
REMARK 921   NORMALIZED FREE ENERGY PREDICTED BY IDOCK:   -2.41 KCAL/MOL
REMARK 922        TOTAL FREE ENERGY PREDICTED BY IDOCK:   -3.95 KCAL/MOL
REMARK 923 INTER-LIGAND FREE ENERGY PREDICTED BY IDOCK:   -3.76 KCAL/MOL
REMARK 924 INTRA-LIGAND FREE ENERGY PREDICTED BY IDOCK:   -0.19 KCAL/MOL
REMARK 927      BINDING AFFINITY PREDICTED BY RF-SCORE:    0.00 PKD
ROOT
HETATM    1  N   UNK A   1     -10.182  18.578  68.040  1.00  0.00    -0.367 NA 
HETATM    2  C   UNK A   1      -9.085  17.577  68.197  1.00  0.00    -0.277 C  
HETATM    3  H2  UNK A   1     -11.077  18.116  67.883  1.00  0.00     0.000 HD 
HETATM    4  H1  UNK A   1     -10.240  19.229  68.823  1.00  0.00     0.000 HD 
HETATM    5  O   UNK A   1      -7.945  19.659  68.501  1.00  0.00    -0.338 OA 
HETATM    6  C   UNK A   1      -7.752  18.318  68.408  1.00  0.00    -0.299 C  
HETATM    7  O   UNK A   1      -6.654  17.788  68.457  1.00  0.00    -0.198 OA 
ENDROOT
BRANCH   2   8
HETATM    8  C   UNK A   1      -8.997  16.599  67.021  1.00  0.00    -0.227 C  
BRANCH   8   9
HETATM    9  C   UNK A   1     -10.305  16.424  66.242  1.00  0.00    -0.337 C  
BRANCH   9  10
HETATM   10  C   UNK A   1     -11.099  15.273  66.816  1.00  0.00    -0.278 C  
HETATM   11  O   UNK A   1     -11.758  15.381  67.846  1.00  0.00    -0.319 OA 
HETATM   12  N   UNK A   1     -11.050  14.117  66.083  1.00  0.00    -0.308 N  
HETATM   13  H   UNK A   1     -10.485  14.092  65.234  1.00  0.00     0.000 HD 
BRANCH  12  14
HETATM   14  C   UNK A   1     -11.782  12.920  66.483  1.00  0.00    -0.393 C  
BRANCH  14  15
HETATM   15  C   UNK A   1     -10.829  11.716  66.358  1.00  0.00    -0.287 C  
ATOM     16  H   GLY A   2      -9.297  12.835  67.236  1.00  0.00     0.000 HD 
ATOM     17  N   GLY A   2      -9.532  11.951  66.784  1.00  0.00    -0.195 N  
HETATM   18  O   UNK A   1     -11.213  10.608  65.993  1.00  0.00     0.128 OA 
BRANCH  17  19
ATOM     19  CA  GLY A   2      -8.493  10.931  66.588  1.00  0.00    -0.151 C  
ATOM     20  C   GLY A   2      -7.083  11.428  66.901  1.00  0.00    -0.142 C  
ATOM     21  O   GLY A   2      -7.040  12.723  67.298  1.00  0.00    -0.148 OA 
ATOM     22  OXT GLY A   2      -6.076  10.748  66.769  1.00  0.00    -0.065 OA 
ENDBRANCH  17  19
ENDBRANCH  14  15
BRANCH  14  23
HETATM   23  C   UNK A   1     -13.001  12.625  65.595  1.00  0.00     0.810 C  
HETATM   24  S   UNK A   1     -12.632  12.163  63.871  1.00  0.00    -0.367 SA 
HETATM   25  H   UNK A   1     -13.734  11.896  63.068  1.00  0.00     0.000 H  
ENDBRANCH  14  23
ENDBRANCH  12  14
ENDBRANCH   9  10
ENDBRANCH   8   9
ENDBRANCH   2   8
TORSDOF 7
ENDMDL
MODEL      335
REMARK 921   NORMALIZED FREE ENERGY PREDICTED BY IDOCK:   -2.40 KCAL/MOL
REMARK 922        TOTAL FREE ENERGY PREDICTED BY IDOCK:   -3.94 KCAL/MOL
REMARK 923 INTER-LIGAND FREE ENERGY PREDICTED BY IDOCK:   -4.15 KCAL/MOL
REMARK 924 INTRA-LIGAND FREE ENERGY PREDICTED BY IDOCK:    0.21 KCAL/MOL
REMARK 927      BINDING AFFINITY PREDICTED BY RF-SCORE:    0.00 PKD
ROOT
HETATM    1  N   UNK A   1      -9.527   8.656  71.960  1.00  0.00    -0.285 NA 
HETATM    2  C   UNK A   1      -9.691   7.202  71.664  1.00  0.00    -0.159 C  
HETATM    3  H2  UNK A   1      -8.951   9.109  71.252  1.00  0.00     0.000 HD 
HETATM    4  H1  UNK A   1     -10.417   9.141  72.071  1.00  0.00     0.000 HD 
HETATM    5  O   UNK A   1     -11.003   7.487  73.644  1.00  0.00    -0.322 OA 
HETATM    6  C   UNK A   1     -10.545   6.555  72.769  1.00  0.00    -0.230 C  
HETATM    7  O   UNK A   1     -10.766   5.359  72.877  1.00  0.00    -0.217 OA 
ENDROOT
BRANCH   2   8
HETATM    8  C   UNK A   1      -8.354   6.473  71.497  1.00  0.00    -0.121 C  
BRANCH   8   9
HETATM    9  C   UNK A   1      -8.459   5.097  70.831  1.00  0.00    -0.121 C  
BRANCH   9  10
HETATM   10  C   UNK A   1      -8.993   5.242  69.425  1.00  0.00    -0.100 C  
HETATM   11  O   UNK A   1      -9.898   4.535  68.991  1.00  0.00    -0.173 OA 
HETATM   12  N   UNK A   1      -8.410   6.238  68.687  1.00  0.00    -0.112 N  
HETATM   13  H   UNK A   1      -7.663   6.793  69.105  1.00  0.00     0.000 HD 
BRANCH  12  14
HETATM   14  C   UNK A   1      -8.828   6.529  67.319  1.00  0.00    -0.112 C  
BRANCH  14  15
HETATM   15  C   UNK A   1     -10.052   7.462  67.385  1.00  0.00    -0.211 C  
ATOM     16  H   GLY A   2      -8.876   8.944  68.274  1.00  0.00     0.000 HD 
ATOM     17  N   GLY A   2      -9.823   8.684  67.996  1.00  0.00    -0.162 N  
HETATM   18  O   UNK A   1     -11.123   7.181  66.853  1.00  0.00    -0.327 OA 
BRANCH  17  19
ATOM     19  CA  GLY A   2     -10.939   9.606  68.247  1.00  0.00    -0.121 C  
ATOM     20  C   GLY A   2     -10.964  10.804  67.300  1.00  0.00    -0.297 C  
ATOM     21  O   GLY A   2      -9.951  10.808  66.402  1.00  0.00    -0.201 OA 
ATOM     22  OXT GLY A   2     -11.788  11.705  67.364  1.00  0.00    -0.603 OA 
ENDBRANCH  17  19
ENDBRANCH  14  15
BRANCH  14  23
HETATM   23  C   UNK A   1      -9.255   5.279  66.533  1.00  0.00    -0.139 C  
HETATM   24  S   UNK A   1      -8.343   4.965  64.987  1.00  0.00    -0.142 SA 
HETATM   25  H   UNK A   1      -8.729   3.835  64.277  1.00  0.00     0.000 H  
ENDBRANCH  14  23
ENDBRANCH  12  14
ENDBRANCH   9  10
ENDBRANCH   8   9
ENDBRANCH   2   8
TORSDOF 7
ENDMDL
MODEL      336
REMARK 921   NORMALIZED FREE ENERGY PREDICTED BY IDOCK:   -2.38 KCAL/MOL
REMARK 922        TOTAL FREE ENERGY PREDICTED BY IDOCK:   -3.92 KCAL/MOL
REMARK 923 INTER-LIGAND FREE ENERGY PREDICTED BY IDOCK:   -3.39 KCAL/MOL
REMARK 924 INTRA-LIGAND FREE ENERGY PREDICTED BY IDOCK:   -0.53 KCAL/MOL
REMARK 927      BINDING AFFINITY PREDICTED BY RF-SCORE:    0.00 PKD
ROOT
HETATM    1  N   UNK A   1     -10.432   3.811  73.414  1.00  0.00    -0.161 NA 
HETATM    2  C   UNK A   1     -10.262   4.195  71.982  1.00  0.00    -0.129 C  
HETATM    3  H2  UNK A   1     -11.233   4.286  73.827  1.00  0.00     0.000 HD 
HETATM    4  H1  UNK A   1     -10.497   2.802  73.549  1.00  0.00     0.000 HD 
HETATM    5  O   UNK A   1      -8.499   2.612  72.314  1.00  0.00    -0.065 OA 
HETATM    6  C   UNK A   1      -9.029   3.474  71.408  1.00  0.00    -0.101 C  
HETATM    7  O   UNK A   1      -8.559   3.662  70.298  1.00  0.00    -0.058 OA 
ENDROOT
BRANCH   2   8
HETATM    8  C   UNK A   1     -10.164   5.710  71.779  1.00  0.00    -0.253 C  
BRANCH   8   9
HETATM    9  C   UNK A   1     -11.014   6.253  70.626  1.00  0.00    -0.370 C  
BRANCH   9  10
HETATM   10  C   UNK A   1     -10.389   7.512  70.070  1.00  0.00    -0.221 C  
HETATM   11  O   UNK A   1     -10.683   8.629  70.485  1.00  0.00    -0.210 OA 
HETATM   12  N   UNK A   1      -9.453   7.306  69.091  1.00  0.00    -0.149 N  
HETATM   13  H   UNK A   1      -9.251   6.352  68.790  1.00  0.00     0.000 HD 
BRANCH  12  14
HETATM   14  C   UNK A   1      -8.735   8.412  68.466  1.00  0.00    -0.136 C  
BRANCH  14  15
HETATM   15  C   UNK A   1      -9.492   8.805  67.183  1.00  0.00    -0.162 C  
ATOM     16  H   GLY A   2      -7.760   9.703  66.434  1.00  0.00     0.000 HD 
ATOM     17  N   GLY A   2      -8.755   9.543  66.273  1.00  0.00    -0.140 N  
HETATM   18  O   UNK A   1     -10.632   8.413  66.946  1.00  0.00    -0.305 OA 
BRANCH  17  19
ATOM     19  CA  GLY A   2      -9.400  10.098  65.075  1.00  0.00    -0.243 C  
ATOM     20  C   GLY A   2      -8.655   9.782  63.779  1.00  0.00    -0.200 C  
ATOM     21  O   GLY A   2      -7.529   9.053  63.965  1.00  0.00    -0.105 OA 
ATOM     22  OXT GLY A   2      -9.005  10.181  62.678  1.00  0.00    -0.210 OA 
ENDBRANCH  17  19
ENDBRANCH  14  15
BRANCH  14  23
HETATM   23  C   UNK A   1      -7.300   8.052  68.052  1.00  0.00    -0.096 C  
HETATM   24  S   UNK A   1      -6.754   6.364  68.468  1.00  0.00    -0.071 SA 
HETATM   25  H   UNK A   1      -5.456   6.039  68.093  1.00  0.00     0.000 H  
ENDBRANCH  14  23
ENDBRANCH  12  14
ENDBRANCH   9  10
ENDBRANCH   8   9
ENDBRANCH   2   8
TORSDOF 7
ENDMDL
MODEL      337
REMARK 921   NORMALIZED FREE ENERGY PREDICTED BY IDOCK:   -2.37 KCAL/MOL
REMARK 922        TOTAL FREE ENERGY PREDICTED BY IDOCK:   -3.91 KCAL/MOL
REMARK 923 INTER-LIGAND FREE ENERGY PREDICTED BY IDOCK:   -4.28 KCAL/MOL
REMARK 924 INTRA-LIGAND FREE ENERGY PREDICTED BY IDOCK:    0.38 KCAL/MOL
REMARK 927      BINDING AFFINITY PREDICTED BY RF-SCORE:    0.00 PKD
ROOT
HETATM    1  N   UNK A   1      -7.983  12.787  67.966  1.00  0.00    -0.148 NA 
HETATM    2  C   UNK A   1      -8.440  11.729  67.017  1.00  0.00    -0.175 C  
HETATM    3  H2  UNK A   1      -7.069  12.557  68.356  1.00  0.00     0.000 HD 
HETATM    4  H1  UNK A   1      -7.978  13.718  67.550  1.00  0.00     0.000 HD 
HETATM    5  O   UNK A   1     -10.214  13.331  66.912  1.00  0.00    -0.245 OA 
HETATM    6  C   UNK A   1      -9.830  12.104  66.473  1.00  0.00    -0.218 C  
HETATM    7  O   UNK A   1     -10.523  11.393  65.764  1.00  0.00    -0.249 OA 
ENDROOT
BRANCH   2   8
HETATM    8  C   UNK A   1      -8.447  10.330  67.642  1.00  0.00    -0.118 C  
BRANCH   8   9
HETATM    9  C   UNK A   1      -8.293  10.315  69.166  1.00  0.00    -0.154 C  
BRANCH   9  10
HETATM   10  C   UNK A   1      -9.621  10.010  69.818  1.00  0.00    -0.216 C  
HETATM   11  O   UNK A   1     -10.687  10.406  69.354  1.00  0.00    -0.211 OA 
HETATM   12  N   UNK A   1      -9.545   9.236  70.946  1.00  0.00    -0.273 N  
HETATM   13  H   UNK A   1      -8.629   8.936  71.281  1.00  0.00     0.000 HD 
BRANCH  12  14
HETATM   14  C   UNK A   1     -10.737   8.827  71.682  1.00  0.00    -0.327 C  
BRANCH  14  15
HETATM   15  C   UNK A   1     -10.669   7.302  71.886  1.00  0.00    -0.215 C  
ATOM     16  H   GLY A   2     -10.328   7.042  69.840  1.00  0.00     0.000 HD 
ATOM     17  N   GLY A   2     -10.497   6.565  70.726  1.00  0.00    -0.214 N  
HETATM   18  O   UNK A   1     -10.675   6.785  73.001  1.00  0.00    -0.248 OA 
BRANCH  17  19
ATOM     19  CA  GLY A   2     -10.557   5.097  70.767  1.00  0.00    -0.135 C  
ATOM     20  C   GLY A   2      -9.577   4.420  69.810  1.00  0.00    -0.205 C  
ATOM     21  O   GLY A   2      -8.832   5.292  69.090  1.00  0.00    -0.099 OA 
ATOM     22  OXT GLY A   2      -9.493   3.209  69.665  1.00  0.00    -0.159 OA 
ENDBRANCH  17  19
ENDBRANCH  14  15
BRANCH  14  23
HETATM   23  C   UNK A   1     -12.047   9.125  70.936  1.00  0.00    -0.214 C  
HETATM   24  S   UNK A   1     -13.502   9.443  71.986  1.00  0.00    -0.458 SA 
HETATM   25  H   UNK A   1     -14.687   9.713  71.311  1.00  0.00     0.000 H  
ENDBRANCH  14  23
ENDBRANCH  12  14
ENDBRANCH   9  10
ENDBRANCH   8   9
ENDBRANCH   2   8
TORSDOF 7
ENDMDL
MODEL      338
REMARK 921   NORMALIZED FREE ENERGY PREDICTED BY IDOCK:   -2.35 KCAL/MOL
REMARK 922        TOTAL FREE ENERGY PREDICTED BY IDOCK:   -3.88 KCAL/MOL
REMARK 923 INTER-LIGAND FREE ENERGY PREDICTED BY IDOCK:   -4.43 KCAL/MOL
REMARK 924 INTRA-LIGAND FREE ENERGY PREDICTED BY IDOCK:    0.54 KCAL/MOL
REMARK 927      BINDING AFFINITY PREDICTED BY RF-SCORE:    0.00 PKD
ROOT
HETATM    1  N   UNK A   1      -7.855  12.137  66.519  1.00  0.00    -0.385 NA 
HETATM    2  C   UNK A   1      -9.227  12.029  65.941  1.00  0.00    -0.102 C  
HETATM    3  H2  UNK A   1      -7.303  11.307  66.307  1.00  0.00     0.000 HD 
HETATM    4  H1  UNK A   1      -7.367  12.984  66.227  1.00  0.00     0.000 HD 
HETATM    5  O   UNK A   1      -9.253  14.196  66.953  1.00  0.00    -0.237 OA 
HETATM    6  C   UNK A   1     -10.030  13.290  66.307  1.00  0.00    -0.291 C  
HETATM    7  O   UNK A   1     -11.217  13.457  66.079  1.00  0.00    -0.293 OA 
ENDROOT
BRANCH   2   8
HETATM    8  C   UNK A   1      -9.960  10.757  66.381  1.00  0.00    -0.264 C  
BRANCH   8   9
HETATM    9  C   UNK A   1      -9.921   9.617  65.359  1.00  0.00    -0.230 C  
BRANCH   9  10
HETATM   10  C   UNK A   1      -9.766   8.291  66.068  1.00  0.00    -0.030 C  
HETATM   11  O   UNK A   1      -8.692   7.698  66.122  1.00  0.00    -0.143 OA 
HETATM   12  N   UNK A   1     -10.905   7.821  66.667  1.00  0.00    -0.337 N  
HETATM   13  H   UNK A   1     -11.766   8.362  66.587  1.00  0.00     0.000 HD 
BRANCH  12  14
HETATM   14  C   UNK A   1     -10.920   6.568  67.415  1.00  0.00    -0.378 C  
BRANCH  14  15
HETATM   15  C   UNK A   1     -10.900   6.913  68.917  1.00  0.00    -0.207 C  
ATOM     16  H   GLY A   2      -9.721   8.592  68.517  1.00  0.00     0.000 HD 
ATOM     17  N   GLY A   2     -10.136   8.018  69.252  1.00  0.00    -0.193 N  
HETATM   18  O   UNK A   1     -11.583   6.308  69.740  1.00  0.00    -0.436 OA 
BRANCH  17  19
ATOM     19  CA  GLY A   2      -9.922   8.368  70.663  1.00  0.00    -0.185 C  
ATOM     20  C   GLY A   2      -8.514   8.051  71.163  1.00  0.00    -0.123 C  
ATOM     21  O   GLY A   2      -7.715   7.497  70.220  1.00  0.00    -0.089 OA 
ATOM     22  OXT GLY A   2      -8.143   8.232  72.314  1.00  0.00    -0.131 OA 
ENDBRANCH  17  19
ENDBRANCH  14  15
BRANCH  14  23
HETATM   23  C   UNK A   1      -9.699   5.678  67.140  1.00  0.00    -0.139 C  
HETATM   24  S   UNK A   1      -9.945   4.351  65.916  1.00  0.00    -0.234 SA 
HETATM   25  H   UNK A   1      -8.841   3.545  65.667  1.00  0.00     0.000 H  
ENDBRANCH  14  23
ENDBRANCH  12  14
ENDBRANCH   9  10
ENDBRANCH   8   9
ENDBRANCH   2   8
TORSDOF 7
ENDMDL
MODEL      339
REMARK 921   NORMALIZED FREE ENERGY PREDICTED BY IDOCK:   -2.21 KCAL/MOL
REMARK 922        TOTAL FREE ENERGY PREDICTED BY IDOCK:   -3.68 KCAL/MOL
REMARK 923 INTER-LIGAND FREE ENERGY PREDICTED BY IDOCK:   -3.17 KCAL/MOL
REMARK 924 INTRA-LIGAND FREE ENERGY PREDICTED BY IDOCK:   -0.52 KCAL/MOL
REMARK 927      BINDING AFFINITY PREDICTED BY RF-SCORE:    0.00 PKD
ROOT
HETATM    1  N   UNK A   1     -10.289   2.754  72.133  1.00  0.00    -0.081 NA 
HETATM    2  C   UNK A   1      -9.197   3.457  71.396  1.00  0.00    -0.123 C  
HETATM    3  H2  UNK A   1     -11.205   3.046  71.793  1.00  0.00     0.000 HD 
HETATM    4  H1  UNK A   1     -10.196   1.739  72.105  1.00  0.00     0.000 HD 
HETATM    5  O   UNK A   1      -7.990   2.023  72.883  1.00  0.00    -0.050 OA 
HETATM    6  C   UNK A   1      -7.838   3.006  71.958  1.00  0.00    -0.054 C  
HETATM    7  O   UNK A   1      -6.756   3.478  71.645  1.00  0.00    -0.025 OA 
ENDROOT
BRANCH   2   8
HETATM    8  C   UNK A   1      -9.336   4.982  71.438  1.00  0.00    -0.194 C  
BRANCH   8   9
HETATM    9  C   UNK A   1      -8.986   5.689  70.125  1.00  0.00    -0.151 C  
BRANCH   9  10
HETATM   10  C   UNK A   1     -10.084   6.656  69.748  1.00  0.00    -0.182 C  
HETATM   11  O   UNK A   1     -11.269   6.337  69.752  1.00  0.00    -0.368 OA 
HETATM   12  N   UNK A   1      -9.655   7.918  69.431  1.00  0.00    -0.160 N  
HETATM   13  H   UNK A   1      -8.655   8.122  69.448  1.00  0.00     0.000 HD 
BRANCH  12  14
HETATM   14  C   UNK A   1     -10.589   8.981  69.070  1.00  0.00    -0.190 C  
BRANCH  14  15
HETATM   15  C   UNK A   1     -10.300   9.391  67.614  1.00  0.00    -0.246 C  
ATOM     16  H   GLY A   2      -8.443   8.437  67.711  1.00  0.00     0.000 HD 
ATOM     17  N   GLY A   2      -9.052   9.024  67.139  1.00  0.00    -0.135 N  
HETATM   18  O   UNK A   1     -11.147   9.923  66.900  1.00  0.00    -0.071 OA 
BRANCH  17  19
ATOM     19  CA  GLY A   2      -8.600   9.477  65.816  1.00  0.00    -0.138 C  
ATOM     20  C   GLY A   2      -7.983   8.366  64.969  1.00  0.00    -0.139 C  
ATOM     21  O   GLY A   2      -7.954   7.162  65.590  1.00  0.00    -0.111 OA 
ATOM     22  OXT GLY A   2      -7.514   8.541  63.854  1.00  0.00    -0.106 OA 
ENDBRANCH  17  19
ENDBRANCH  14  15
BRANCH  14  23
HETATM   23  C   UNK A   1     -10.439  10.243  69.933  1.00  0.00    -0.256 C  
HETATM   24  S   UNK A   1     -11.921  11.297  70.059  1.00  0.00    -0.384 SA 
HETATM   25  H   UNK A   1     -11.786  12.439  70.840  1.00  0.00     0.000 H  
ENDBRANCH  14  23
ENDBRANCH  12  14
ENDBRANCH   9  10
ENDBRANCH   8   9
ENDBRANCH   2   8
TORSDOF 7
ENDMDL
MODEL      340
REMARK 921   NORMALIZED FREE ENERGY PREDICTED BY IDOCK:   -2.21 KCAL/MOL
REMARK 922        TOTAL FREE ENERGY PREDICTED BY IDOCK:   -3.68 KCAL/MOL
REMARK 923 INTER-LIGAND FREE ENERGY PREDICTED BY IDOCK:   -3.88 KCAL/MOL
REMARK 924 INTRA-LIGAND FREE ENERGY PREDICTED BY IDOCK:    0.19 KCAL/MOL
REMARK 927      BINDING AFFINITY PREDICTED BY RF-SCORE:    0.00 PKD
ROOT
HETATM    1  N   UNK A   1      -8.707  10.883  67.132  1.00  0.00    -0.132 NA 
HETATM    2  C   UNK A   1     -10.142  10.630  66.807  1.00  0.00    -0.224 C  
HETATM    3  H2  UNK A   1      -8.108  10.169  66.718  1.00  0.00     0.000 HD 
HETATM    4  H1  UNK A   1      -8.398  11.818  66.866  1.00  0.00     0.000 HD 
HETATM    5  O   UNK A   1     -10.239  12.656  68.076  1.00  0.00    -0.217 OA 
HETATM    6  C   UNK A   1     -11.008  11.714  67.472  1.00  0.00    -0.259 C  
HETATM    7  O   UNK A   1     -12.229  11.724  67.490  1.00  0.00    -0.526 OA 
ENDROOT
BRANCH   2   8
HETATM    8  C   UNK A   1     -10.605   9.225  67.208  1.00  0.00    -0.303 C  
BRANCH   8   9
HETATM    9  C   UNK A   1      -9.595   8.113  66.906  1.00  0.00    -0.269 C  
BRANCH   9  10
HETATM   10  C   UNK A   1      -9.869   6.913  67.782  1.00  0.00    -0.136 C  
HETATM   11  O   UNK A   1     -11.009   6.530  68.032  1.00  0.00    -0.279 OA 
HETATM   12  N   UNK A   1      -8.751   6.273  68.248  1.00  0.00    -0.116 N  
HETATM   13  H   UNK A   1      -7.831   6.640  68.003  1.00  0.00     0.000 HD 
BRANCH  12  14
HETATM   14  C   UNK A   1      -8.839   5.081  69.085  1.00  0.00    -0.092 C  
BRANCH  14  15
HETATM   15  C   UNK A   1      -8.966   3.858  68.157  1.00  0.00    -0.121 C  
ATOM     16  H   GLY A   2      -7.543   4.685  66.868  1.00  0.00     0.000 HD 
ATOM     17  N   GLY A   2      -8.204   3.918  67.002  1.00  0.00    -0.099 N  
HETATM   18  O   UNK A   1      -9.623   2.865  68.462  1.00  0.00    -0.169 OA 
BRANCH  17  19
ATOM     19  CA  GLY A   2      -8.341   2.882  65.970  1.00  0.00    -0.096 C  
ATOM     20  C   GLY A   2      -9.177   3.324  64.770  1.00  0.00    -0.144 C  
ATOM     21  O   GLY A   2      -9.647   4.590  64.873  1.00  0.00    -0.159 OA 
ATOM     22  OXT GLY A   2      -9.441   2.601  63.820  1.00  0.00    -0.105 OA 
ENDBRANCH  17  19
ENDBRANCH  14  15
BRANCH  14  23
HETATM   23  C   UNK A   1     -10.065   5.074  70.011  1.00  0.00    -0.272 C  
HETATM   24  S   UNK A   1      -9.771   5.640  71.719  1.00  0.00    -0.160 SA 
HETATM   25  H   UNK A   1     -10.880   5.634  72.556  1.00  0.00     0.000 H  
ENDBRANCH  14  23
ENDBRANCH  12  14
ENDBRANCH   9  10
ENDBRANCH   8   9
ENDBRANCH   2   8
TORSDOF 7
ENDMDL
MODEL      341
REMARK 921   NORMALIZED FREE ENERGY PREDICTED BY IDOCK:   -2.09 KCAL/MOL
REMARK 922        TOTAL FREE ENERGY PREDICTED BY IDOCK:   -3.51 KCAL/MOL
REMARK 923 INTER-LIGAND FREE ENERGY PREDICTED BY IDOCK:   -3.61 KCAL/MOL
REMARK 924 INTRA-LIGAND FREE ENERGY PREDICTED BY IDOCK:    0.10 KCAL/MOL
REMARK 927      BINDING AFFINITY PREDICTED BY RF-SCORE:    0.00 PKD
ROOT
HETATM    1  N   UNK A   1      -6.675  10.979  68.215  1.00  0.00    -0.058 NA 
HETATM    2  C   UNK A   1      -8.020  11.372  67.700  1.00  0.00    -0.123 C  
HETATM    3  H2  UNK A   1      -6.525   9.975  68.113  1.00  0.00     0.000 HD 
HETATM    4  H1  UNK A   1      -5.916  11.507  67.785  1.00  0.00     0.000 HD 
HETATM    5  O   UNK A   1      -7.082  13.466  68.377  1.00  0.00    -0.090 OA 
HETATM    6  C   UNK A   1      -8.212  12.887  67.896  1.00  0.00    -0.165 C  
HETATM    7  O   UNK A   1      -9.247  13.497  67.681  1.00  0.00    -0.196 OA 
ENDROOT
BRANCH   2   8
HETATM    8  C   UNK A   1      -9.161  10.580  68.346  1.00  0.00    -0.148 C  
BRANCH   8   9
HETATM    9  C   UNK A   1      -8.778   9.166  68.794  1.00  0.00    -0.132 C  
BRANCH   9  10
HETATM   10  C   UNK A   1      -9.806   8.633  69.765  1.00  0.00    -0.183 C  
HETATM   11  O   UNK A   1     -10.489   7.642  69.520  1.00  0.00    -0.220 OA 
HETATM   12  N   UNK A   1      -9.896   9.323  70.945  1.00  0.00    -0.285 N  
HETATM   13  H   UNK A   1      -9.300  10.138  71.090  1.00  0.00     0.000 HD 
BRANCH  12  14
HETATM   14  C   UNK A   1     -10.820   8.924  72.002  1.00  0.00    -0.334 C  
BRANCH  14  15
HETATM   15  C   UNK A   1     -10.194   7.736  72.756  1.00  0.00    -0.299 C  
ATOM     16  H   GLY A   2      -8.913   9.047  73.762  1.00  0.00     0.000 HD 
ATOM     17  N   GLY A   2      -9.148   8.067  73.603  1.00  0.00    -0.264 N  
HETATM   18  O   UNK A   1     -10.648   6.597  72.683  1.00  0.00    -0.204 OA 
BRANCH  17  19
ATOM     19  CA  GLY A   2      -8.376   7.011  74.272  1.00  0.00    -0.152 C  
ATOM     20  C   GLY A   2      -7.067   6.670  73.564  1.00  0.00    -0.076 C  
ATOM     21  O   GLY A   2      -6.852   7.396  72.441  1.00  0.00    -0.058 OA 
ATOM     22  OXT GLY A   2      -6.298   5.797  73.937  1.00  0.00    -0.065 OA 
ENDBRANCH  17  19
ENDBRANCH  14  15
BRANCH  14  23
HETATM   23  C   UNK A   1     -12.185   8.455  71.474  1.00  0.00    -0.302 C  
HETATM   24  S   UNK A   1     -13.477   9.735  71.370  1.00  0.00    -0.255 SA 
HETATM   25  H   UNK A   1     -14.711   9.311  70.893  1.00  0.00     0.000 H  
ENDBRANCH  14  23
ENDBRANCH  12  14
ENDBRANCH   9  10
ENDBRANCH   8   9
ENDBRANCH   2   8
TORSDOF 7
ENDMDL
MODEL      342
REMARK 921   NORMALIZED FREE ENERGY PREDICTED BY IDOCK:   -2.02 KCAL/MOL
REMARK 922        TOTAL FREE ENERGY PREDICTED BY IDOCK:   -3.41 KCAL/MOL
REMARK 923 INTER-LIGAND FREE ENERGY PREDICTED BY IDOCK:   -3.40 KCAL/MOL
REMARK 924 INTRA-LIGAND FREE ENERGY PREDICTED BY IDOCK:   -0.01 KCAL/MOL
REMARK 927      BINDING AFFINITY PREDICTED BY RF-SCORE:    0.00 PKD
ROOT
HETATM    1  N   UNK A   1      -8.450  12.584  67.584  1.00  0.00    -0.160 NA 
HETATM    2  C   UNK A   1      -7.182  11.929  67.148  1.00  0.00    -0.144 C  
HETATM    3  H2  UNK A   1      -8.260  13.367  68.209  1.00  0.00     0.000 HD 
HETATM    4  H1  UNK A   1      -9.036  12.875  66.802  1.00  0.00     0.000 HD 
HETATM    5  O   UNK A   1      -8.850  10.675  65.979  1.00  0.00    -0.162 OA 
HETATM    6  C   UNK A   1      -7.517  10.740  66.230  1.00  0.00    -0.138 C  
HETATM    7  O   UNK A   1      -6.708   9.936  65.798  1.00  0.00    -0.087 OA 
ENDROOT
BRANCH   2   8
HETATM    8  C   UNK A   1      -6.302  11.491  68.324  1.00  0.00    -0.046 C  
BRANCH   8   9
HETATM    9  C   UNK A   1      -7.048  11.336  69.652  1.00  0.00    -0.011 C  
BRANCH   9  10
HETATM   10  C   UNK A   1      -7.860  10.062  69.646  1.00  0.00    -0.167 C  
HETATM   11  O   UNK A   1      -7.338   8.951  69.684  1.00  0.00    -0.054 OA 
HETATM   12  N   UNK A   1      -9.218  10.244  69.624  1.00  0.00    -0.369 N  
HETATM   13  H   UNK A   1      -9.591  11.193  69.595  1.00  0.00     0.000 HD 
BRANCH  12  14
HETATM   14  C   UNK A   1     -10.146   9.118  69.641  1.00  0.00    -0.198 C  
BRANCH  14  15
HETATM   15  C   UNK A   1     -10.242   8.605  71.091  1.00  0.00    -0.230 C  
ATOM     16  H   GLY A   2      -8.901   7.067  70.637  1.00  0.00     0.000 HD 
ATOM     17  N   GLY A   2      -9.519   7.453  71.352  1.00  0.00    -0.153 N  
HETATM   18  O   UNK A   1     -10.840   9.222  71.969  1.00  0.00    -0.309 OA 
BRANCH  17  19
ATOM     19  CA  GLY A   2      -9.637   6.784  72.655  1.00  0.00    -0.145 C  
ATOM     20  C   GLY A   2     -10.127   5.341  72.558  1.00  0.00    -0.181 C  
ATOM     21  O   GLY A   2     -10.371   4.935  71.289  1.00  0.00    -0.202 OA 
ATOM     22  OXT GLY A   2     -10.327   4.623  73.526  1.00  0.00    -0.160 OA 
ENDBRANCH  17  19
ENDBRANCH  14  15
BRANCH  14  23
HETATM   23  C   UNK A   1      -9.688   7.936  68.773  1.00  0.00    -0.158 C  
HETATM   24  S   UNK A   1     -10.496   7.786  67.147  1.00  0.00    -0.331 SA 
HETATM   25  H   UNK A   1     -10.082   6.717  66.362  1.00  0.00     0.000 H  
ENDBRANCH  14  23
ENDBRANCH  12  14
ENDBRANCH   9  10
ENDBRANCH   8   9
ENDBRANCH   2   8
TORSDOF 7
ENDMDL
MODEL      343
REMARK 921   NORMALIZED FREE ENERGY PREDICTED BY IDOCK:   -1.71 KCAL/MOL
REMARK 922        TOTAL FREE ENERGY PREDICTED BY IDOCK:   -2.98 KCAL/MOL
REMARK 923 INTER-LIGAND FREE ENERGY PREDICTED BY IDOCK:   -3.21 KCAL/MOL
REMARK 924 INTRA-LIGAND FREE ENERGY PREDICTED BY IDOCK:    0.23 KCAL/MOL
REMARK 927      BINDING AFFINITY PREDICTED BY RF-SCORE:    0.00 PKD
ROOT
HETATM    1  N   UNK A   1      -6.181  11.593  68.134  1.00  0.00    -0.045 NA 
HETATM    2  C   UNK A   1      -7.501  12.283  68.235  1.00  0.00    -0.119 C  
HETATM    3  H2  UNK A   1      -6.291  10.645  67.777  1.00  0.00     0.000 HD 
HETATM    4  H1  UNK A   1      -5.502  12.115  67.580  1.00  0.00     0.000 HD 
HETATM    5  O   UNK A   1      -5.967  13.974  68.950  1.00  0.00    -0.079 OA 
HETATM    6  C   UNK A   1      -7.289  13.699  68.800  1.00  0.00    -0.093 C  
HETATM    7  O   UNK A   1      -8.180  14.474  69.106  1.00  0.00    -0.117 OA 
ENDROOT
BRANCH   2   8
HETATM    8  C   UNK A   1      -8.521  11.500  69.068  1.00  0.00     0.106 C  
BRANCH   8   9
HETATM    9  C   UNK A   1      -9.169  10.322  68.334  1.00  0.00    -0.136 C  
BRANCH   9  10
HETATM   10  C   UNK A   1     -10.365   9.823  69.111  1.00  0.00    -0.211 C  
HETATM   11  O   UNK A   1     -11.476   9.705  68.601  1.00  0.00     0.063 OA 
HETATM   12  N   UNK A   1     -10.107   9.487  70.414  1.00  0.00    -0.254 N  
HETATM   13  H   UNK A   1      -9.161   9.606  70.779  1.00  0.00     0.000 HD 
BRANCH  12  14
HETATM   14  C   UNK A   1     -11.145   8.963  71.295  1.00  0.00    -0.297 C  
BRANCH  14  15
HETATM   15  C   UNK A   1     -11.222   7.439  71.083  1.00  0.00    -0.258 C  
ATOM     16  H   GLY A   2      -9.235   7.251  71.704  1.00  0.00     0.000 HD 
ATOM     17  N   GLY A   2     -10.041   6.756  71.320  1.00  0.00    -0.187 N  
HETATM   18  O   UNK A   1     -12.274   6.863  70.815  1.00  0.00    -0.381 OA 
BRANCH  17  19
ATOM     19  CA  GLY A   2      -9.943   5.320  71.021  1.00  0.00    -0.201 C  
ATOM     20  C   GLY A   2      -9.477   5.024  69.597  1.00  0.00    -0.143 C  
ATOM     21  O   GLY A   2      -9.243   6.137  68.861  1.00  0.00    -0.126 OA 
ATOM     22  OXT GLY A   2      -9.365   3.897  69.137  1.00  0.00    -0.144 OA 
ENDBRANCH  17  19
ENDBRANCH  14  15
BRANCH  14  23
HETATM   23  C   UNK A   1     -12.542   9.530  70.997  1.00  0.00    -0.253 C  
HETATM   24  S   UNK A   1     -12.848  11.229  71.580  1.00  0.00    -0.339 SA 
HETATM   25  H   UNK A   1     -14.111  11.743  71.311  1.00  0.00     0.000 H  
ENDBRANCH  14  23
ENDBRANCH  12  14
ENDBRANCH   9  10
ENDBRANCH   8   9
ENDBRANCH   2   8
TORSDOF 7
ENDMDL
MODEL      344
REMARK 921   NORMALIZED FREE ENERGY PREDICTED BY IDOCK:   -1.64 KCAL/MOL
REMARK 922        TOTAL FREE ENERGY PREDICTED BY IDOCK:   -2.88 KCAL/MOL
REMARK 923 INTER-LIGAND FREE ENERGY PREDICTED BY IDOCK:   -2.63 KCAL/MOL
REMARK 924 INTRA-LIGAND FREE ENERGY PREDICTED BY IDOCK:   -0.25 KCAL/MOL
REMARK 927      BINDING AFFINITY PREDICTED BY RF-SCORE:    0.00 PKD
ROOT
HETATM    1  N   UNK A   1      -7.732   6.589  70.024  1.00  0.00    -0.100 NA 
HETATM    2  C   UNK A   1      -8.992   5.842  69.733  1.00  0.00    -0.131 C  
HETATM    3  H2  UNK A   1      -7.680   7.445  69.473  1.00  0.00     0.000 HD 
HETATM    4  H1  UNK A   1      -7.608   6.786  71.017  1.00  0.00     0.000 HD 
HETATM    5  O   UNK A   1      -7.953   4.488  71.410  1.00  0.00    -0.083 OA 
HETATM    6  C   UNK A   1      -9.016   4.548  70.566  1.00  0.00    -0.105 C  
HETATM    7  O   UNK A   1      -9.856   3.668  70.473  1.00  0.00    -0.176 OA 
ENDROOT
BRANCH   2   8
HETATM    8  C   UNK A   1      -9.179   5.546  68.242  1.00  0.00    -0.118 C  
BRANCH   8   9
HETATM    9  C   UNK A   1      -7.973   5.904  67.367  1.00  0.00    -0.102 C  
BRANCH   9  10
HETATM   10  C   UNK A   1      -8.162   7.275  66.761  1.00  0.00    -0.121 C  
HETATM   11  O   UNK A   1      -7.954   7.501  65.572  1.00  0.00    -0.106 OA 
HETATM   12  N   UNK A   1      -8.609   8.233  67.633  1.00  0.00    -0.130 N  
HETATM   13  H   UNK A   1      -8.764   7.982  68.609  1.00  0.00     0.000 HD 
BRANCH  12  14
HETATM   14  C   UNK A   1      -8.868   9.604  67.203  1.00  0.00    -0.132 C  
BRANCH  14  15
HETATM   15  C   UNK A   1      -8.328  10.552  68.291  1.00  0.00    -0.122 C  
ATOM     16  H   GLY A   2      -7.209  11.571  66.850  1.00  0.00     0.000 HD 
ATOM     17  N   GLY A   2      -7.407  11.486  67.847  1.00  0.00    -0.089 N  
HETATM   18  O   UNK A   1      -8.752  10.540  69.444  1.00  0.00    -0.152 OA 
BRANCH  17  19
ATOM     19  CA  GLY A   2      -6.713  12.355  68.808  1.00  0.00    -0.092 C  
ATOM     20  C   GLY A   2      -7.038  13.838  68.633  1.00  0.00    -0.104 C  
ATOM     21  O   GLY A   2      -7.902  14.089  67.621  1.00  0.00    -0.147 OA 
ATOM     22  OXT GLY A   2      -6.539  14.727  69.307  1.00  0.00    -0.109 OA 
ENDBRANCH  17  19
ENDBRANCH  14  15
BRANCH  14  23
HETATM   23  C   UNK A   1     -10.363   9.917  67.033  1.00  0.00    -0.239 C  
HETATM   24  S   UNK A   1     -10.839  11.660  67.268  1.00  0.00    -0.271 SA 
HETATM   25  H   UNK A   1     -12.191  11.944  67.114  1.00  0.00     0.000 H  
ENDBRANCH  14  23
ENDBRANCH  12  14
ENDBRANCH   9  10
ENDBRANCH   8   9
ENDBRANCH   2   8
TORSDOF 7
ENDMDL
MODEL      345
REMARK 921   NORMALIZED FREE ENERGY PREDICTED BY IDOCK:   -1.61 KCAL/MOL
REMARK 922        TOTAL FREE ENERGY PREDICTED BY IDOCK:   -2.83 KCAL/MOL
REMARK 923 INTER-LIGAND FREE ENERGY PREDICTED BY IDOCK:   -2.22 KCAL/MOL
REMARK 924 INTRA-LIGAND FREE ENERGY PREDICTED BY IDOCK:   -0.61 KCAL/MOL
REMARK 927      BINDING AFFINITY PREDICTED BY RF-SCORE:    0.00 PKD
ROOT
HETATM    1  N   UNK A   1      -8.330   4.471  69.786  1.00  0.00    -0.063 NA 
HETATM    2  C   UNK A   1      -6.839   4.540  69.772  1.00  0.00    -0.041 C  
HETATM    3  H2  UNK A   1      -8.718   4.781  68.896  1.00  0.00     0.000 HD 
HETATM    4  H1  UNK A   1      -8.683   3.547  70.036  1.00  0.00     0.000 HD 
HETATM    5  O   UNK A   1      -7.304   3.651  71.944  1.00  0.00    -0.051 OA 
HETATM    6  C   UNK A   1      -6.300   4.087  71.141  1.00  0.00    -0.018 C  
HETATM    7  O   UNK A   1      -5.130   4.135  71.487  1.00  0.00     0.000 OA 
ENDROOT
BRANCH   2   8
HETATM    8  C   UNK A   1      -6.309   5.927  69.398  1.00  0.00    -0.041 C  
BRANCH   8   9
HETATM    9  C   UNK A   1      -5.588   5.990  68.048  1.00  0.00    -0.008 C  
BRANCH   9  10
HETATM   10  C   UNK A   1      -6.571   6.328  66.951  1.00  0.00    -0.059 C  
HETATM   11  O   UNK A   1      -6.239   6.399  65.771  1.00  0.00    -0.035 OA 
HETATM   12  N   UNK A   1      -7.861   6.518  67.372  1.00  0.00    -0.111 N  
HETATM   13  H   UNK A   1      -8.074   6.443  68.367  1.00  0.00     0.000 HD 
BRANCH  12  14
HETATM   14  C   UNK A   1      -8.939   6.825  66.437  1.00  0.00    -0.149 C  
BRANCH  14  15
HETATM   15  C   UNK A   1     -10.154   7.303  67.254  1.00  0.00    -0.225 C  
ATOM     16  H   GLY A   2      -8.920   8.599  68.334  1.00  0.00     0.000 HD 
ATOM     17  N   GLY A   2      -9.864   8.220  68.251  1.00  0.00    -0.166 N  
HETATM   18  O   UNK A   1     -11.304   6.967  66.982  1.00  0.00    -0.238 OA 
BRANCH  17  19
ATOM     19  CA  GLY A   2     -10.910   8.648  69.190  1.00  0.00    -0.039 C  
ATOM     20  C   GLY A   2     -10.672  10.038  69.776  1.00  0.00    -0.271 C  
ATOM     21  O   GLY A   2      -9.536  10.627  69.332  1.00  0.00    -0.187 OA 
ATOM     22  OXT GLY A   2     -11.404  10.563  70.602  1.00  0.00    -0.322 OA 
ENDBRANCH  17  19
ENDBRANCH  14  15
BRANCH  14  23
HETATM   23  C   UNK A   1      -9.398   5.611  65.615  1.00  0.00    -0.008 C  
HETATM   24  S   UNK A   1      -9.368   4.008  66.483  1.00  0.00    -0.193 SA 
HETATM   25  H   UNK A   1      -9.783   2.910  65.739  1.00  0.00     0.000 H  
ENDBRANCH  14  23
ENDBRANCH  12  14
ENDBRANCH   9  10
ENDBRANCH   8   9
ENDBRANCH   2   8
TORSDOF 7
ENDMDL
MODEL      346
REMARK 921   NORMALIZED FREE ENERGY PREDICTED BY IDOCK:   -1.57 KCAL/MOL
REMARK 922        TOTAL FREE ENERGY PREDICTED BY IDOCK:   -2.78 KCAL/MOL
REMARK 923 INTER-LIGAND FREE ENERGY PREDICTED BY IDOCK:   -3.06 KCAL/MOL
REMARK 924 INTRA-LIGAND FREE ENERGY PREDICTED BY IDOCK:    0.28 KCAL/MOL
REMARK 927      BINDING AFFINITY PREDICTED BY RF-SCORE:    0.00 PKD
ROOT
HETATM    1  N   UNK A   1      -9.008  15.355  69.937  1.00  0.00    -0.325 NA 
HETATM    2  C   UNK A   1      -8.385  16.639  69.499  1.00  0.00     0.338 C  
HETATM    3  H2  UNK A   1      -8.297  14.642  70.100  1.00  0.00     0.000 HD 
HETATM    4  H1  UNK A   1      -9.610  15.464  70.753  1.00  0.00     0.000 HD 
HETATM    5  O   UNK A   1     -10.713  17.184  69.580  1.00  0.00    -0.269 OA 
HETATM    6  C   UNK A   1      -9.494  17.675  69.240  1.00  0.00     0.110 C  
HETATM    7  O   UNK A   1      -9.320  18.786  68.766  1.00  0.00    -0.338 OA 
ENDROOT
BRANCH   2   8
HETATM    8  C   UNK A   1      -7.482  16.475  68.273  1.00  0.00    -0.171 C  
BRANCH   8   9
HETATM    9  C   UNK A   1      -8.177  16.733  66.932  1.00  0.00    -0.244 C  
BRANCH   9  10
HETATM   10  C   UNK A   1      -8.820  15.462  66.429  1.00  0.00    -0.305 C  
HETATM   11  O   UNK A   1      -9.747  15.470  65.624  1.00  0.00    -0.336 OA 
HETATM   12  N   UNK A   1      -8.270  14.306  66.917  1.00  0.00    -0.397 N  
HETATM   13  H   UNK A   1      -7.499  14.366  67.583  1.00  0.00     0.000 HD 
BRANCH  12  14
HETATM   14  C   UNK A   1      -8.756  12.991  66.512  1.00  0.00     0.075 C  
BRANCH  14  15
HETATM   15  C   UNK A   1      -9.989  12.655  67.372  1.00  0.00    -0.204 C  
ATOM     16  H   GLY A   2      -9.182  13.751  68.959  1.00  0.00     0.000 HD 
ATOM     17  N   GLY A   2      -9.945  13.137  68.670  1.00  0.00    -0.166 N  
HETATM   18  O   UNK A   1     -10.975  12.083  66.914  1.00  0.00    -0.253 OA 
BRANCH  17  19
ATOM     19  CA  GLY A   2     -10.992  12.767  69.632  1.00  0.00     0.211 C  
ATOM     20  C   GLY A   2     -12.190  13.715  69.624  1.00  0.00    -0.270 C  
ATOM     21  O   GLY A   2     -12.071  14.731  68.737  1.00  0.00    -0.272 OA 
ATOM     22  OXT GLY A   2     -13.150  13.605  70.372  1.00  0.00    -0.045 OA 
ENDBRANCH  17  19
ENDBRANCH  14  15
BRANCH  14  23
HETATM   23  C   UNK A   1      -7.731  11.867  66.733  1.00  0.00    -0.051 C  
HETATM   24  S   UNK A   1      -7.880  10.429  65.623  1.00  0.00    -0.148 SA 
HETATM   25  H   UNK A   1      -6.954   9.413  65.823  1.00  0.00     0.000 H  
ENDBRANCH  14  23
ENDBRANCH  12  14
ENDBRANCH   9  10
ENDBRANCH   8   9
ENDBRANCH   2   8
TORSDOF 7
ENDMDL
MODEL      347
REMARK 921   NORMALIZED FREE ENERGY PREDICTED BY IDOCK:   -1.45 KCAL/MOL
REMARK 922        TOTAL FREE ENERGY PREDICTED BY IDOCK:   -2.61 KCAL/MOL
REMARK 923 INTER-LIGAND FREE ENERGY PREDICTED BY IDOCK:   -2.57 KCAL/MOL
REMARK 924 INTRA-LIGAND FREE ENERGY PREDICTED BY IDOCK:   -0.03 KCAL/MOL
REMARK 927      BINDING AFFINITY PREDICTED BY RF-SCORE:    0.00 PKD
ROOT
HETATM    1  N   UNK A   1      -8.828   4.378  70.432  1.00  0.00    -0.085 NA 
HETATM    2  C   UNK A   1      -8.228   4.889  71.700  1.00  0.00    -0.114 C  
HETATM    3  H2  UNK A   1      -8.823   5.098  69.710  1.00  0.00     0.000 HD 
HETATM    4  H1  UNK A   1      -8.383   3.524  70.098  1.00  0.00     0.000 HD 
HETATM    5  O   UNK A   1      -8.750   2.618  72.242  1.00  0.00    -0.066 OA 
HETATM    6  C   UNK A   1      -8.279   3.779  72.765  1.00  0.00    -0.090 C  
HETATM    7  O   UNK A   1      -7.970   3.916  73.938  1.00  0.00    -0.081 OA 
ENDROOT
BRANCH   2   8
HETATM    8  C   UNK A   1      -8.898   6.172  72.202  1.00  0.00    -0.138 C  
BRANCH   8   9
HETATM    9  C   UNK A   1      -8.302   7.463  71.634  1.00  0.00    -0.107 C  
BRANCH   9  10
HETATM   10  C   UNK A   1      -9.264   8.089  70.651  1.00  0.00    -0.154 C  
HETATM   11  O   UNK A   1      -9.637   9.255  70.749  1.00  0.00    -0.245 OA 
HETATM   12  N   UNK A   1      -9.662   7.265  69.631  1.00  0.00    -0.159 N  
HETATM   13  H   UNK A   1      -9.315   6.306  69.604  1.00  0.00     0.000 HD 
BRANCH  12  14
HETATM   14  C   UNK A   1     -10.568   7.721  68.582  1.00  0.00    -0.120 C  
BRANCH  14  15
HETATM   15  C   UNK A   1     -10.292   6.882  67.319  1.00  0.00    -0.251 C  
ATOM     16  H   GLY A   2      -8.591   6.074  68.226  1.00  0.00     0.000 HD 
ATOM     17  N   GLY A   2      -9.135   6.123  67.363  1.00  0.00    -0.111 N  
HETATM   18  O   UNK A   1     -11.086   6.821  66.383  1.00  0.00     0.125 OA 
BRANCH  17  19
ATOM     19  CA  GLY A   2      -8.686   5.389  66.172  1.00  0.00    -0.129 C  
ATOM     20  C   GLY A   2      -8.991   3.893  66.227  1.00  0.00    -0.132 C  
ATOM     21  O   GLY A   2      -9.614   3.508  67.366  1.00  0.00    -0.210 OA 
ATOM     22  OXT GLY A   2      -8.669   3.100  65.355  1.00  0.00    -0.110 OA 
ENDBRANCH  17  19
ENDBRANCH  14  15
BRANCH  14  23
HETATM   23  C   UNK A   1     -10.364   9.195  68.197  1.00  0.00    -0.216 C  
HETATM   24  S   UNK A   1      -9.422   9.492  66.666  1.00  0.00    -0.183 SA 
HETATM   25  H   UNK A   1      -9.238  10.825  66.318  1.00  0.00     0.000 H  
ENDBRANCH  14  23
ENDBRANCH  12  14
ENDBRANCH   9  10
ENDBRANCH   8   9
ENDBRANCH   2   8
TORSDOF 7
ENDMDL
MODEL      348
REMARK 921   NORMALIZED FREE ENERGY PREDICTED BY IDOCK:   -1.41 KCAL/MOL
REMARK 922        TOTAL FREE ENERGY PREDICTED BY IDOCK:   -2.56 KCAL/MOL
REMARK 923 INTER-LIGAND FREE ENERGY PREDICTED BY IDOCK:   -1.97 KCAL/MOL
REMARK 924 INTRA-LIGAND FREE ENERGY PREDICTED BY IDOCK:   -0.59 KCAL/MOL
REMARK 927      BINDING AFFINITY PREDICTED BY RF-SCORE:    0.00 PKD
ROOT
HETATM    1  N   UNK A   1      -9.871   4.414  68.729  1.00  0.00    -0.123 NA 
HETATM    2  C   UNK A   1     -10.576   5.730  68.743  1.00  0.00    -0.251 C  
HETATM    3  H2  UNK A   1      -9.936   3.955  69.637  1.00  0.00     0.000 HD 
HETATM    4  H1  UNK A   1     -10.197   3.797  67.985  1.00  0.00     0.000 HD 
HETATM    5  O   UNK A   1      -9.803   5.572  66.485  1.00  0.00    -0.151 OA 
HETATM    6  C   UNK A   1     -10.430   6.395  67.363  1.00  0.00    -0.252 C  
HETATM    7  O   UNK A   1     -10.798   7.526  67.086  1.00  0.00    -0.324 OA 
ENDROOT
BRANCH   2   8
HETATM    8  C   UNK A   1     -10.086   6.656  69.861  1.00  0.00    -0.198 C  
BRANCH   8   9
HETATM    9  C   UNK A   1     -11.177   7.533  70.483  1.00  0.00    -0.287 C  
BRANCH   9  10
HETATM   10  C   UNK A   1     -10.709   8.968  70.557  1.00  0.00    -0.239 C  
HETATM   11  O   UNK A   1      -9.543   9.266  70.800  1.00  0.00    -0.245 OA 
HETATM   12  N   UNK A   1     -11.678   9.903  70.304  1.00  0.00    -0.363 N  
HETATM   13  H   UNK A   1     -12.629   9.591  70.106  1.00  0.00     0.000 HD 
BRANCH  12  14
HETATM   14  C   UNK A   1     -11.387  11.333  70.309  1.00  0.00    -0.089 C  
BRANCH  14  15
HETATM   15  C   UNK A   1     -12.070  11.952  71.543  1.00  0.00     0.600 C  
ATOM     16  H   GLY A   2     -12.848  13.481  70.349  1.00  0.00     0.000 HD 
ATOM     17  N   GLY A   2     -12.748  13.136  71.304  1.00  0.00    -0.352 N  
HETATM   18  O   UNK A   1     -12.089  11.390  72.636  1.00  0.00     2.181 OA 
BRANCH  17  19
ATOM     19  CA  GLY A   2     -13.322  13.898  72.422  1.00  0.00    -0.529 C  
ATOM     20  C   GLY A   2     -13.559  15.371  72.097  1.00  0.00    -0.498 C  
ATOM     21  O   GLY A   2     -13.192  15.716  70.840  1.00  0.00    -0.515 OA 
ATOM     22  OXT GLY A   2     -13.996  16.183  72.900  1.00  0.00    -0.480 OA 
ENDBRANCH  17  19
ENDBRANCH  14  15
BRANCH  14  23
HETATM   23  C   UNK A   1     -11.932  12.071  69.075  1.00  0.00    -0.264 C  
HETATM   24  S   UNK A   1     -11.826  11.164  67.498  1.00  0.00     0.410 SA 
HETATM   25  H   UNK A   1     -12.318  11.831  66.383  1.00  0.00     0.000 H  
ENDBRANCH  14  23
ENDBRANCH  12  14
ENDBRANCH   9  10
ENDBRANCH   8   9
ENDBRANCH   2   8
TORSDOF 7
ENDMDL
MODEL      349
REMARK 921   NORMALIZED FREE ENERGY PREDICTED BY IDOCK:   -0.92 KCAL/MOL
REMARK 922        TOTAL FREE ENERGY PREDICTED BY IDOCK:   -1.86 KCAL/MOL
REMARK 923 INTER-LIGAND FREE ENERGY PREDICTED BY IDOCK:   -2.08 KCAL/MOL
REMARK 924 INTRA-LIGAND FREE ENERGY PREDICTED BY IDOCK:    0.21 KCAL/MOL
REMARK 927      BINDING AFFINITY PREDICTED BY RF-SCORE:    0.00 PKD
ROOT
HETATM    1  N   UNK A   1     -10.620  12.730  68.168  1.00  0.00    -0.222 NA 
HETATM    2  C   UNK A   1     -10.397  11.260  68.039  1.00  0.00    -0.183 C  
HETATM    3  H2  UNK A   1     -10.047  13.246  67.500  1.00  0.00     0.000 HD 
HETATM    4  H1  UNK A   1     -11.602  12.992  68.083  1.00  0.00     0.000 HD 
HETATM    5  O   UNK A   1     -12.063  11.392  69.751  1.00  0.00    -0.311 OA 
HETATM    6  C   UNK A   1     -11.261  10.526  69.080  1.00  0.00    -0.256 C  
HETATM    7  O   UNK A   1     -11.222   9.327  69.307  1.00  0.00    -0.078 OA 
ENDROOT
BRANCH   2   8
HETATM    8  C   UNK A   1      -8.921  10.867  68.167  1.00  0.00    -0.144 C  
BRANCH   8   9
HETATM    9  C   UNK A   1      -8.677   9.367  68.356  1.00  0.00    -0.124 C  
BRANCH   9  10
HETATM   10  C   UNK A   1      -8.125   8.767  67.084  1.00  0.00    -0.100 C  
HETATM   11  O   UNK A   1      -7.171   7.994  67.083  1.00  0.00    -0.083 OA 
HETATM   12  N   UNK A   1      -8.789   9.128  65.942  1.00  0.00    -0.163 N  
HETATM   13  H   UNK A   1      -9.577   9.774  66.009  1.00  0.00     0.000 HD 
BRANCH  12  14
HETATM   14  C   UNK A   1      -8.402   8.617  64.631  1.00  0.00    -0.155 C  
BRANCH  14  15
HETATM   15  C   UNK A   1      -9.239   9.352  63.568  1.00  0.00     0.128 C  
ATOM     16  H   GLY A   2      -9.747  10.812  64.975  1.00  0.00     0.000 HD 
ATOM     17  N   GLY A   2      -9.908  10.475  64.025  1.00  0.00    -0.322 N  
HETATM   18  O   UNK A   1      -9.239   9.021  62.385  1.00  0.00    -0.100 OA 
BRANCH  17  19
ATOM     19  CA  GLY A   2     -10.850  11.184  63.147  1.00  0.00     0.083 C  
ATOM     20  C   GLY A   2     -12.145  11.593  63.846  1.00  0.00    -0.195 C  
ATOM     21  O   GLY A   2     -12.199  11.224  65.148  1.00  0.00     0.412 OA 
ATOM     22  OXT GLY A   2     -13.072  12.159  63.285  1.00  0.00    -0.693 OA 
ENDBRANCH  17  19
ENDBRANCH  14  15
BRANCH  14  23
HETATM   23  C   UNK A   1      -8.672   7.114  64.458  1.00  0.00     0.490 C  
HETATM   24  S   UNK A   1      -7.197   6.054  64.318  1.00  0.00    -0.061 SA 
HETATM   25  H   UNK A   1      -7.442   4.695  64.162  1.00  0.00     0.000 H  
ENDBRANCH  14  23
ENDBRANCH  12  14
ENDBRANCH   9  10
ENDBRANCH   8   9
ENDBRANCH   2   8
TORSDOF 7
ENDMDL
MODEL      350
REMARK 921   NORMALIZED FREE ENERGY PREDICTED BY IDOCK:    0.21 KCAL/MOL
REMARK 922        TOTAL FREE ENERGY PREDICTED BY IDOCK:   -0.27 KCAL/MOL
REMARK 923 INTER-LIGAND FREE ENERGY PREDICTED BY IDOCK:   -2.84 KCAL/MOL
REMARK 924 INTRA-LIGAND FREE ENERGY PREDICTED BY IDOCK:    2.57 KCAL/MOL
REMARK 927      BINDING AFFINITY PREDICTED BY RF-SCORE:    0.00 PKD
ROOT
HETATM    1  N   UNK A   1      -9.588   8.847  71.868  1.00  0.00    -0.299 NA 
HETATM    2  C   UNK A   1      -9.536   9.084  70.395  1.00  0.00    -0.210 C  
HETATM    3  H2  UNK A   1     -10.383   9.329  72.287  1.00  0.00     0.000 HD 
HETATM    4  H1  UNK A   1      -9.593   7.856  72.110  1.00  0.00     0.000 HD 
HETATM    5  O   UNK A   1      -7.677   7.623  70.758  1.00  0.00    -0.082 OA 
HETATM    6  C   UNK A   1      -8.310   8.360  69.810  1.00  0.00    -0.125 C  
HETATM    7  O   UNK A   1      -7.926   8.450  68.655  1.00  0.00    -0.116 OA 
ENDROOT
BRANCH   2   8
HETATM    8  C   UNK A   1      -9.528  10.572  70.030  1.00  0.00     0.339 C  
BRANCH   8   9
HETATM    9  C   UNK A   1      -8.679  10.921  68.804  1.00  0.00    -0.158 C  
BRANCH   9  10
HETATM   10  C   UNK A   1      -8.948  12.346  68.377  1.00  0.00    -0.133 C  
HETATM   11  O   UNK A   1      -8.724  12.742  67.237  1.00  0.00    -0.183 OA 
HETATM   12  N   UNK A   1      -9.486  13.147  69.349  1.00  0.00     0.271 N  
HETATM   13  H   UNK A   1      -9.651  12.758  70.278  1.00  0.00     0.000 HD 
BRANCH  12  14
HETATM   14  C   UNK A   1      -9.830  14.542  69.094  1.00  0.00    -0.080 C  
BRANCH  14  15
HETATM   15  C   UNK A   1     -10.717  14.589  67.835  1.00  0.00    -0.245 C  
ATOM     16  H   GLY A   2      -9.293  15.782  66.875  1.00  0.00     0.000 HD 
ATOM     17  N   GLY A   2     -10.225  15.371  66.803  1.00  0.00    -0.265 N  
HETATM   18  O   UNK A   1     -11.736  13.912  67.722  1.00  0.00    -0.325 OA 
BRANCH  17  19
ATOM     19  CA  GLY A   2     -11.039  15.611  65.604  1.00  0.00    -0.194 C  
ATOM     20  C   GLY A   2     -11.316  14.348  64.791  1.00  0.00    -0.388 C  
ATOM     21  O   GLY A   2     -10.756  13.232  65.315  1.00  0.00    -0.294 OA 
ATOM     22  OXT GLY A   2     -11.942  14.337  63.742  1.00  0.00    -0.324 OA 
ENDBRANCH  17  19
ENDBRANCH  14  15
BRANCH  14  23
HETATM   23  C   UNK A   1      -8.608  15.432  68.819  1.00  0.00    -0.190 C  
HETATM   24  S   UNK A   1      -7.281  15.364  70.066  1.00  0.00     0.161 SA 
HETATM   25  H   UNK A   1      -6.176  16.168  69.817  1.00  0.00     0.000 H  
ENDBRANCH  14  23
ENDBRANCH  12  14
ENDBRANCH   9  10
ENDBRANCH   8   9
ENDBRANCH   2   8
TORSDOF 7
ENDMDL
MODEL      351
REMARK 921   NORMALIZED FREE ENERGY PREDICTED BY IDOCK:    0.37 KCAL/MOL
REMARK 922        TOTAL FREE ENERGY PREDICTED BY IDOCK:   -0.05 KCAL/MOL
REMARK 923 INTER-LIGAND FREE ENERGY PREDICTED BY IDOCK:   -2.82 KCAL/MOL
REMARK 924 INTRA-LIGAND FREE ENERGY PREDICTED BY IDOCK:    2.77 KCAL/MOL
REMARK 927      BINDING AFFINITY PREDICTED BY RF-SCORE:    0.00 PKD
ROOT
HETATM    1  N   UNK A   1      -9.578   8.853  71.875  1.00  0.00    -0.299 NA 
HETATM    2  C   UNK A   1      -9.366   9.141  70.426  1.00  0.00    -0.232 C  
HETATM    3  H2  UNK A   1     -10.394   9.352  72.230  1.00  0.00     0.000 HD 
HETATM    4  H1  UNK A   1      -9.645   7.856  72.076  1.00  0.00     0.000 HD 
HETATM    5  O   UNK A   1      -7.610   7.592  70.917  1.00  0.00    -0.077 OA 
HETATM    6  C   UNK A   1      -8.114   8.389  69.940  1.00  0.00    -0.119 C  
HETATM    7  O   UNK A   1      -7.610   8.504  68.834  1.00  0.00    -0.092 OA 
ENDROOT
BRANCH   2   8
HETATM    8  C   UNK A   1      -9.265  10.640  70.124  1.00  0.00     0.825 C  
BRANCH   8   9
HETATM    9  C   UNK A   1      -8.205  11.008  69.081  1.00  0.00    -0.052 C  
BRANCH   9  10
HETATM   10  C   UNK A   1      -8.870  11.537  67.831  1.00  0.00    -0.152 C  
HETATM   11  O   UNK A   1      -8.290  11.586  66.750  1.00  0.00    -0.157 OA 
HETATM   12  N   UNK A   1     -10.173  11.926  67.993  1.00  0.00    -0.187 N  
HETATM   13  H   UNK A   1     -10.600  11.859  68.917  1.00  0.00     0.000 HD 
BRANCH  12  14
HETATM   14  C   UNK A   1     -10.969  12.435  66.880  1.00  0.00    -0.265 C  
BRANCH  14  15
HETATM   15  C   UNK A   1     -10.775  11.483  65.684  1.00  0.00    -0.267 C  
ATOM     16  H   GLY A   2      -9.996  13.058  64.553  1.00  0.00     0.000 HD 
ATOM     17  N   GLY A   2     -10.288  12.081  64.534  1.00  0.00    -0.283 N  
HETATM   18  O   UNK A   1     -10.952  10.270  65.773  1.00  0.00     0.140 OA 
BRANCH  17  19
ATOM     19  CA  GLY A   2     -10.191  11.312  63.285  1.00  0.00    -0.368 C  
ATOM     20  C   GLY A   2      -9.178  10.171  63.348  1.00  0.00    -0.291 C  
ATOM     21  O   GLY A   2      -8.544  10.073  64.541  1.00  0.00    -0.161 OA 
ATOM     22  OXT GLY A   2      -8.921   9.436  62.406  1.00  0.00    -0.251 OA 
ENDBRANCH  17  19
ENDBRANCH  14  15
BRANCH  14  23
HETATM   23  C   UNK A   1     -10.541  13.836  66.414  1.00  0.00    -0.284 C  
HETATM   24  S   UNK A   1     -10.467  15.114  67.712  1.00  0.00    -0.251 SA 
HETATM   25  H   UNK A   1     -10.080  16.380  67.291  1.00  0.00     0.000 H  
ENDBRANCH  14  23
ENDBRANCH  12  14
ENDBRANCH   9  10
ENDBRANCH   8   9
ENDBRANCH   2   8
TORSDOF 7
ENDMDL
MODEL      352
REMARK 921   NORMALIZED FREE ENERGY PREDICTED BY IDOCK:    3.27 KCAL/MOL
REMARK 922        TOTAL FREE ENERGY PREDICTED BY IDOCK:    4.04 KCAL/MOL
REMARK 923 INTER-LIGAND FREE ENERGY PREDICTED BY IDOCK:    4.82 KCAL/MOL
REMARK 924 INTRA-LIGAND FREE ENERGY PREDICTED BY IDOCK:   -0.78 KCAL/MOL
REMARK 927      BINDING AFFINITY PREDICTED BY RF-SCORE:    0.00 PKD
ROOT
HETATM    1  N   UNK A   1      -9.597   6.862  66.879  1.00  0.00    -0.156 NA 
HETATM    2  C   UNK A   1      -9.099   7.865  67.867  1.00  0.00    -0.131 C  
HETATM    3  H2  UNK A   1      -8.959   6.781  66.088  1.00  0.00     0.000 HD 
HETATM    4  H1  UNK A   1      -9.778   5.949  67.297  1.00  0.00     0.000 HD 
HETATM    5  O   UNK A   1     -11.102   7.061  68.898  1.00  0.00    -0.153 OA 
HETATM    6  C   UNK A   1     -10.104   7.971  69.028  1.00  0.00    -0.201 C  
HETATM    7  O   UNK A   1     -10.042   8.782  69.938  1.00  0.00    -0.183 OA 
ENDROOT
BRANCH   2   8
HETATM    8  C   UNK A   1      -8.828   9.236  67.239  1.00  0.00    -0.132 C  
BRANCH   8   9
HETATM    9  C   UNK A   1      -9.807   9.632  66.130  1.00  0.00    -0.334 C  
BRANCH   9  10
HETATM   10  C   UNK A   1     -10.223  11.075  66.297  1.00  0.00    -0.245 C  
HETATM   11  O   UNK A   1     -10.523  11.786  65.342  1.00  0.00    -0.253 OA 
HETATM   12  N   UNK A   1     -10.267  11.515  67.594  1.00  0.00    -0.182 N  
HETATM   13  H   UNK A   1     -10.008  10.875  68.344  1.00  0.00     0.000 HD 
BRANCH  12  14
HETATM   14  C   UNK A   1     -10.675  12.875  67.932  1.00  0.00    -0.220 C  
BRANCH  14  15
HETATM   15  C   UNK A   1      -9.407  13.678  68.280  1.00  0.00    -0.204 C  
ATOM     16  H   GLY A   2      -9.125  12.497  69.982  1.00  0.00     0.000 HD 
ATOM     17  N   GLY A   2      -8.790  13.311  69.465  1.00  0.00     1.211 N  
HETATM   18  O   UNK A   1      -8.929  14.516  67.520  1.00  0.00    -0.174 OA 
BRANCH  17  19
ATOM     19  CA  GLY A   2      -7.655  14.089  69.979  1.00  0.00     0.827 C  
ATOM     20  C   GLY A   2      -6.548  13.227  70.582  1.00  0.00     0.790 C  
ATOM     21  O   GLY A   2      -6.811  11.899  70.541  1.00  0.00     0.335 OA 
ATOM     22  OXT GLY A   2      -5.536  13.680  71.096  1.00  0.00    -0.167 OA 
ENDBRANCH  17  19
ENDBRANCH  14  15
BRANCH  14  23
HETATM   23  C   UNK A   1     -11.605  12.948  69.153  1.00  0.00    -0.322 C  
HETATM   24  S   UNK A   1     -13.383  13.103  68.787  1.00  0.00     4.715 SA 
HETATM   25  H   UNK A   1     -14.224  13.169  69.892  1.00  0.00     0.000 H  
ENDBRANCH  14  23
ENDBRANCH  12  14
ENDBRANCH   9  10
ENDBRANCH   8   9
ENDBRANCH   2   8
TORSDOF 7
ENDMDL
MODEL      353
REMARK 921   NORMALIZED FREE ENERGY PREDICTED BY IDOCK:   14.94 KCAL/MOL
REMARK 922        TOTAL FREE ENERGY PREDICTED BY IDOCK:   20.49 KCAL/MOL
REMARK 923 INTER-LIGAND FREE ENERGY PREDICTED BY IDOCK:    3.19 KCAL/MOL
REMARK 924 INTRA-LIGAND FREE ENERGY PREDICTED BY IDOCK:   17.30 KCAL/MOL
REMARK 927      BINDING AFFINITY PREDICTED BY RF-SCORE:    0.00 PKD
ROOT
HETATM    1  N   UNK A   1      -8.696  15.151  70.403  1.00  0.00     0.203 NA 
HETATM    2  C   UNK A   1      -8.091  16.458  70.010  1.00  0.00     1.220 C  
HETATM    3  H2  UNK A   1      -8.118  14.675  71.095  1.00  0.00     0.000 HD 
HETATM    4  H1  UNK A   1      -9.657  15.241  70.730  1.00  0.00     0.000 HD 
HETATM    5  O   UNK A   1     -10.116  16.412  68.737  1.00  0.00    -0.223 OA 
HETATM    6  C   UNK A   1      -8.981  17.128  68.949  1.00  0.00    -0.189 C  
HETATM    7  O   UNK A   1      -8.706  18.152  68.345  1.00  0.00    -0.280 OA 
ENDROOT
BRANCH   2   8
HETATM    8  C   UNK A   1      -6.646  16.323  69.518  1.00  0.00    -0.202 C  
BRANCH   8   9
HETATM    9  C   UNK A   1      -6.504  15.675  68.138  1.00  0.00    -0.137 C  
BRANCH   9  10
HETATM   10  C   UNK A   1      -7.449  14.503  68.015  1.00  0.00    -0.137 C  
HETATM   11  O   UNK A   1      -8.243  14.395  67.085  1.00  0.00    -0.204 OA 
HETATM   12  N   UNK A   1      -7.330  13.561  69.002  1.00  0.00    -0.267 N  
HETATM   13  H   UNK A   1      -6.649  13.707  69.748  1.00  0.00     0.000 HD 
BRANCH  12  14
HETATM   14  C   UNK A   1      -8.149  12.354  69.018  1.00  0.00     0.312 C  
BRANCH  14  15
HETATM   15  C   UNK A   1      -9.625  12.780  68.902  1.00  0.00     0.236 C  
ATOM     16  H   GLY A   2      -9.100  14.739  69.411  1.00  0.00     0.000 HD 
ATOM     17  N   GLY A   2      -9.877  14.105  69.220  1.00  0.00     0.078 N  
HETATM   18  O   UNK A   1     -10.496  12.028  68.471  1.00  0.00    -0.218 OA 
BRANCH  17  19
ATOM     19  CA  GLY A   2     -11.259  14.600  69.285  1.00  0.00    -0.282 C  
ATOM     20  C   GLY A   2     -11.592  15.623  68.200  1.00  0.00    -0.283 C  
ATOM     21  O   GLY A   2     -10.552  15.897  67.376  1.00  0.00    -0.305 OA 
ATOM     22  OXT GLY A   2     -12.674  16.182  68.101  1.00  0.00     1.301 OA 
ENDBRANCH  17  19
ENDBRANCH  14  15
BRANCH  14  23
HETATM   23  C   UNK A   1      -8.015  11.541  70.315  1.00  0.00     2.638 C  
HETATM   24  S   UNK A   1      -6.583  10.417  70.402  1.00  0.00    -0.070 SA 
HETATM   25  H   UNK A   1      -6.462   9.683  71.576  1.00  0.00     0.000 H  
ENDBRANCH  14  23
ENDBRANCH  12  14
ENDBRANCH   9  10
ENDBRANCH   8   9
ENDBRANCH   2   8
TORSDOF 7
ENDMDL
