MODEL        1
REMARK 921   NORMALIZED FREE ENERGY PREDICTED BY IDOCK:   -6.87 KCAL/MOL
REMARK 922        TOTAL FREE ENERGY PREDICTED BY IDOCK:  -16.67 KCAL/MOL
REMARK 923 INTER-LIGAND FREE ENERGY PREDICTED BY IDOCK:  -13.70 KCAL/MOL
REMARK 924 INTRA-LIGAND FREE ENERGY PREDICTED BY IDOCK:   -2.97 KCAL/MOL
REMARK 927      BINDING AFFINITY PREDICTED BY RF-SCORE:    0.00 PKD
ROOT
HETATM    1  N   UNK A   1     -11.969  16.185  71.335  1.00  0.00    -0.609 NA 
HETATM    2  H1  UNK A   1     -12.485  17.017  71.622  1.00  0.00     0.000 HD 
HETATM    3  H2  UNK A   1     -11.337  16.401  70.564  1.00  0.00     0.000 HD 
HETATM    4  C   UNK A   1     -12.844  15.032  70.992  1.00  0.00    -0.387 C  
HETATM    5  O   UNK A   1     -14.341  13.693  72.407  1.00  0.00    -0.661 OA 
HETATM    6  C   UNK A   1     -13.786  14.756  72.177  1.00  0.00    -0.475 C  
HETATM    7  O   UNK A   1     -13.929  15.862  72.950  1.00  0.00    -0.592 OA 
ENDROOT
BRANCH   4   8
HETATM    8  C   UNK A   1     -12.070  13.784  70.562  1.00  0.00    -0.416 C  
BRANCH   8   9
HETATM    9  C   UNK A   1     -12.091  13.496  69.060  1.00  0.00    -0.330 C  
BRANCH   9  10
HETATM   10  C   UNK A   1     -11.786  12.037  68.814  1.00  0.00    -0.321 C  
HETATM   11  N   UNK A   1     -11.060  11.430  69.817  1.00  0.00    -0.455 N  
HETATM   12  O   UNK A   1     -12.123  11.460  67.784  1.00  0.00    -0.637 OA 
HETATM   13  H   UNK A   1     -10.754  11.969  70.626  1.00  0.00     0.000 HD 
BRANCH  11  14
HETATM   14  C   UNK A   1     -10.730  10.003  69.712  1.00  0.00    -0.271 C  
BRANCH  14  15
HETATM   15  C   UNK A   1     -11.521   9.232  70.789  1.00  0.00    -0.292 C  
ATOM     16  H   GLY A   2     -11.228   7.478  69.732  1.00  0.00     0.000 HD 
ATOM     17  N   GLY A   2     -11.628   7.875  70.582  1.00  0.00    -0.248 N  
HETATM   18  O   UNK A   1     -12.034   9.784  71.750  1.00  0.00    -0.392 OA 
BRANCH  17  19
ATOM     19  CA  GLY A   2     -12.287   6.985  71.522  1.00  0.00    -0.379 C  
ATOM     20  C   GLY A   2     -11.455   5.786  71.948  1.00  0.00    -0.166 C  
ATOM     21  O   GLY A   2     -10.514   5.381  71.044  1.00  0.00    -0.234 OA 
ATOM     22  OXT GLY A   2     -11.637   5.169  72.988  1.00  0.00    -0.320 OA 
ENDBRANCH  17  19
ENDBRANCH  14  15
BRANCH  14  23
HETATM   23  C   UNK A   1      -9.215   9.782  69.861  1.00  0.00    -0.234 C  
BRANCH  23  24
HETATM   24  S   UNK A   1      -8.266   9.686  68.310  1.00  0.00    -0.106 SA 
BRANCH  24  25
HETATM   25  S   UNK A   1      -7.102  11.370  68.419  1.00  0.00    -0.086 SA 
BRANCH  25  26
HETATM   26  C   UNK A   1      -8.352  12.704  68.437  1.00  0.00    -0.125 C  
BRANCH  26  27
HETATM   27  C   UNK A   1      -8.373  13.606  67.189  1.00  0.00    -0.137 C  
BRANCH  27  28
HETATM   28  C   UNK A   1      -9.333  13.026  66.108  1.00  0.00    -0.080 C  
ATOM     29  H   GLY A   2     -10.076  14.924  65.651  1.00  0.00     0.000 HD 
ATOM     30  N   GLY A   2     -10.095  13.935  65.402  1.00  0.00    -0.323 N  
HETATM   31  O   UNK A   1      -9.334  11.837  65.795  1.00  0.00    -0.232 OA 
BRANCH  30  32
ATOM     32  CA  GLY A   2     -10.927  13.471  64.299  1.00  0.00    -0.336 C  
ATOM     33  OXT GLY A   2     -13.061  12.339  63.939  1.00  0.00    -0.772 OA 
ATOM     34  C   GLY A   2     -12.397  13.136  64.590  1.00  0.00    -0.405 C  
ATOM     35  O   GLY A   2     -12.985  13.944  65.492  1.00  0.00    -0.673 OA 
ENDBRANCH  30  32
ENDBRANCH  27  28
BRANCH  27  36
HETATM   36  N   UNK A   1      -8.428  15.057  67.474  1.00  0.00    -0.163 N  
HETATM   37  H   UNK A   1      -9.324  15.479  67.714  1.00  0.00     0.000 HD 
HETATM   38  O   UNK A   1      -6.173  15.416  67.282  1.00  0.00    -0.317 OA 
HETATM   39  C   UNK A   1      -7.309  15.855  67.425  1.00  0.00    -0.193 C  
BRANCH  39  40
HETATM   40  C   UNK A   1      -7.527  17.336  67.699  1.00  0.00    -0.187 C  
BRANCH  40  41
HETATM   41  C   UNK A   1      -8.613  17.698  68.730  1.00  0.00    -0.202 C  
BRANCH  41  42
HETATM   42  C   UNK A   1     -10.048  17.884  68.218  1.00  0.00    -0.375 C  
HETATM   43  N   UNK A   1     -10.813  16.609  68.206  1.00  0.00    -0.348 NA 
HETATM   44  C   UNK A   1     -10.020  18.406  66.793  1.00  0.00    -0.360 C  
HETATM   45  O   UNK A   1      -9.828  19.544  66.404  1.00  0.00    -0.359 OA 
HETATM   46  O   UNK A   1     -10.178  17.366  65.942  1.00  0.00    -0.499 OA 
HETATM   47  H2  UNK A   1     -10.805  16.166  69.124  1.00  0.00     0.000 HD 
HETATM   48  H1  UNK A   1     -11.767  16.732  67.865  1.00  0.00     0.000 HD 
ENDBRANCH  41  42
ENDBRANCH  40  41
ENDBRANCH  39  40
ENDBRANCH  27  36
ENDBRANCH  26  27
ENDBRANCH  25  26
ENDBRANCH  24  25
ENDBRANCH  23  24
ENDBRANCH  14  23
ENDBRANCH  11  14
ENDBRANCH   9  10
ENDBRANCH   8   9
ENDBRANCH   4   8
TORSDOF 17
ENDMDL
MODEL        2
REMARK 921   NORMALIZED FREE ENERGY PREDICTED BY IDOCK:   -6.53 KCAL/MOL
REMARK 922        TOTAL FREE ENERGY PREDICTED BY IDOCK:  -16.00 KCAL/MOL
REMARK 923 INTER-LIGAND FREE ENERGY PREDICTED BY IDOCK:  -12.77 KCAL/MOL
REMARK 924 INTRA-LIGAND FREE ENERGY PREDICTED BY IDOCK:   -3.23 KCAL/MOL
REMARK 927      BINDING AFFINITY PREDICTED BY RF-SCORE:    0.00 PKD
ROOT
HETATM    1  N   UNK A   1     -11.934  12.141  70.393  1.00  0.00    -0.488 NA 
HETATM    2  H1  UNK A   1     -11.741  11.348  71.006  1.00  0.00     0.000 HD 
HETATM    3  H2  UNK A   1     -11.140  12.322  69.778  1.00  0.00     0.000 HD 
HETATM    4  C   UNK A   1     -12.326  13.376  71.124  1.00  0.00    -0.259 C  
HETATM    5  O   UNK A   1     -14.317  13.859  72.478  1.00  0.00    -0.661 OA 
HETATM    6  C   UNK A   1     -13.513  13.048  72.046  1.00  0.00    -0.492 C  
HETATM    7  O   UNK A   1     -13.556  11.721  72.328  1.00  0.00    -0.328 OA 
ENDROOT
BRANCH   4   8
HETATM    8  C   UNK A   1     -12.615  14.564  70.204  1.00  0.00    -0.339 C  
BRANCH   8   9
HETATM    9  C   UNK A   1     -11.881  14.537  68.862  1.00  0.00    -0.359 C  
BRANCH   9  10
HETATM   10  C   UNK A   1     -10.531  15.200  69.003  1.00  0.00    -0.248 C  
HETATM   11  N   UNK A   1      -9.731  15.105  67.884  1.00  0.00    -0.207 N  
HETATM   12  O   UNK A   1     -10.170  15.739  70.045  1.00  0.00    -0.297 OA 
HETATM   13  H   UNK A   1     -10.056  14.596  67.063  1.00  0.00     0.000 HD 
BRANCH  11  14
HETATM   14  C   UNK A   1      -8.407  15.742  67.883  1.00  0.00    -0.149 C  
BRANCH  14  15
HETATM   15  C   UNK A   1      -8.444  16.959  66.936  1.00  0.00    -0.214 C  
ATOM     16  H   GLY A   2      -9.907  17.819  68.120  1.00  0.00     0.000 HD 
ATOM     17  N   GLY A   2      -9.321  17.958  67.297  1.00  0.00    -0.255 N  
HETATM   18  O   UNK A   1      -7.762  17.028  65.926  1.00  0.00    -0.404 OA 
BRANCH  17  19
ATOM     19  CA  GLY A   2      -9.446  19.200  66.555  1.00  0.00    -0.356 C  
ATOM     20  C   GLY A   2     -10.613  19.242  65.581  1.00  0.00    -0.258 C  
ATOM     21  O   GLY A   2     -11.017  18.025  65.108  1.00  0.00    -0.645 OA 
ATOM     22  OXT GLY A   2     -11.126  20.276  65.181  1.00  0.00    -0.145 OA 
ENDBRANCH  17  19
ENDBRANCH  14  15
BRANCH  14  23
HETATM   23  C   UNK A   1      -7.320  14.736  67.464  1.00  0.00    -0.201 C  
BRANCH  23  24
HETATM   24  S   UNK A   1      -7.097  13.300  68.561  1.00  0.00    -0.111 SA 
BRANCH  24  25
HETATM   25  S   UNK A   1      -6.642  11.812  67.226  1.00  0.00    -0.144 SA 
BRANCH  25  26
HETATM   26  C   UNK A   1      -8.056  10.671  67.422  1.00  0.00    -0.112 C  
BRANCH  26  27
HETATM   27  C   UNK A   1      -9.221  11.205  68.277  1.00  0.00    -0.169 C  
BRANCH  27  28
HETATM   28  C   UNK A   1     -10.478  11.461  67.393  1.00  0.00    -0.205 C  
ATOM     29  H   GLY A   2      -9.361  12.539  65.995  1.00  0.00     0.000 HD 
ATOM     30  N   GLY A   2     -10.279  12.152  66.214  1.00  0.00    -0.219 N  
HETATM   31  O   UNK A   1     -11.576  10.971  67.649  1.00  0.00    -0.526 OA 
BRANCH  30  32
ATOM     32  CA  GLY A   2     -11.390  12.324  65.286  1.00  0.00    -0.338 C  
ATOM     33  OXT GLY A   2     -12.947  14.061  64.564  1.00  0.00    -0.586 OA 
ATOM     34  C   GLY A   2     -11.817  13.753  64.923  1.00  0.00    -0.375 C  
ATOM     35  O   GLY A   2     -10.800  14.629  64.817  1.00  0.00    -0.399 OA 
ENDBRANCH  30  32
ENDBRANCH  27  28
BRANCH  27  36
HETATM   36  N   UNK A   1      -9.402  10.521  69.576  1.00  0.00    -0.400 N  
HETATM   37  H   UNK A   1      -9.417  11.079  70.429  1.00  0.00     0.000 HD 
HETATM   38  O   UNK A   1      -9.682   8.424  68.696  1.00  0.00    -0.158 OA 
HETATM   39  C   UNK A   1      -9.549   9.157  69.671  1.00  0.00    -0.176 C  
BRANCH  39  40
HETATM   40  C   UNK A   1      -9.683   8.591  71.076  1.00  0.00    -0.243 C  
BRANCH  40  41
HETATM   41  C   UNK A   1     -10.897   9.060  71.901  1.00  0.00    -0.413 C  
BRANCH  41  42
HETATM   42  C   UNK A   1     -12.286   8.570  71.465  1.00  0.00    -0.311 C  
HETATM   43  N   UNK A   1     -13.318   8.792  72.512  1.00  0.00    -0.607 NA 
HETATM   44  C   UNK A   1     -12.240   7.079  71.187  1.00  0.00    -0.382 C  
HETATM   45  O   UNK A   1     -11.823   6.503  70.198  1.00  0.00    -0.416 OA 
HETATM   46  O   UNK A   1     -12.687   6.415  72.278  1.00  0.00    -0.172 OA 
HETATM   47  H2  UNK A   1     -13.346   9.770  72.800  1.00  0.00     0.000 HD 
HETATM   48  H1  UNK A   1     -14.240   8.467  72.223  1.00  0.00     0.000 HD 
ENDBRANCH  41  42
ENDBRANCH  40  41
ENDBRANCH  39  40
ENDBRANCH  27  36
ENDBRANCH  26  27
ENDBRANCH  25  26
ENDBRANCH  24  25
ENDBRANCH  23  24
ENDBRANCH  14  23
ENDBRANCH  11  14
ENDBRANCH   9  10
ENDBRANCH   8   9
ENDBRANCH   4   8
TORSDOF 17
ENDMDL
MODEL        3
REMARK 921   NORMALIZED FREE ENERGY PREDICTED BY IDOCK:   -6.50 KCAL/MOL
REMARK 922        TOTAL FREE ENERGY PREDICTED BY IDOCK:  -15.93 KCAL/MOL
REMARK 923 INTER-LIGAND FREE ENERGY PREDICTED BY IDOCK:  -13.25 KCAL/MOL
REMARK 924 INTRA-LIGAND FREE ENERGY PREDICTED BY IDOCK:   -2.68 KCAL/MOL
REMARK 927      BINDING AFFINITY PREDICTED BY RF-SCORE:    0.00 PKD
ROOT
HETATM    1  N   UNK A   1     -10.165  13.606  64.748  1.00  0.00    -0.584 NA 
HETATM    2  H1  UNK A   1     -10.327  14.543  64.379  1.00  0.00     0.000 HD 
HETATM    3  H2  UNK A   1      -9.167  13.436  64.873  1.00  0.00     0.000 HD 
HETATM    4  C   UNK A   1     -10.785  12.529  63.931  1.00  0.00    -0.437 C  
HETATM    5  O   UNK A   1     -13.149  12.018  63.501  1.00  0.00    -0.764 OA 
HETATM    6  C   UNK A   1     -12.282  12.838  63.760  1.00  0.00    -0.489 C  
HETATM    7  O   UNK A   1     -12.526  14.162  63.932  1.00  0.00    -0.730 OA 
ENDROOT
BRANCH   4   8
HETATM    8  C   UNK A   1     -10.542  11.124  64.486  1.00  0.00    -0.397 C  
BRANCH   8   9
HETATM    9  C   UNK A   1     -10.728  10.985  65.998  1.00  0.00    -0.242 C  
BRANCH   9  10
HETATM   10  C   UNK A   1      -9.418  10.598  66.643  1.00  0.00    -0.167 C  
HETATM   11  N   UNK A   1      -9.278  11.020  67.948  1.00  0.00    -0.151 N  
HETATM   12  O   UNK A   1      -8.540   9.994  66.034  1.00  0.00    -0.133 OA 
HETATM   13  H   UNK A   1     -10.015  11.570  68.391  1.00  0.00     0.000 HD 
BRANCH  11  14
HETATM   14  C   UNK A   1      -8.062  10.675  68.696  1.00  0.00    -0.132 C  
BRANCH  14  15
HETATM   15  C   UNK A   1      -8.472   9.987  70.015  1.00  0.00    -0.097 C  
ATOM     16  H   GLY A   2     -10.437   9.947  69.368  1.00  0.00     0.000 HD 
ATOM     17  N   GLY A   2      -9.809   9.674  70.124  1.00  0.00    -0.249 N  
HETATM   18  O   UNK A   1      -7.676   9.752  70.910  1.00  0.00    -0.312 OA 
BRANCH  17  19
ATOM     19  CA  GLY A   2     -10.362   8.973  71.269  1.00  0.00    -0.313 C  
ATOM     20  C   GLY A   2     -11.791   9.356  71.617  1.00  0.00    -0.394 C  
ATOM     21  O   GLY A   2     -12.163  10.616  71.240  1.00  0.00    -0.352 OA 
ATOM     22  OXT GLY A   2     -12.553   8.635  72.245  1.00  0.00    -0.365 OA 
ENDBRANCH  17  19
ENDBRANCH  14  15
BRANCH  14  23
HETATM   23  C   UNK A   1      -7.210  11.929  68.958  1.00  0.00    -0.068 C  
BRANCH  23  24
HETATM   24  S   UNK A   1      -6.404  12.664  67.500  1.00  0.00    -0.153 SA 
BRANCH  24  25
HETATM   25  S   UNK A   1      -6.881  14.647  67.704  1.00  0.00    -0.156 SA 
BRANCH  25  26
HETATM   26  C   UNK A   1      -8.461  14.572  68.620  1.00  0.00    -0.161 C  
BRANCH  26  27
HETATM   27  C   UNK A   1      -9.692  15.095  67.857  1.00  0.00    -0.208 C  
BRANCH  27  28
HETATM   28  C   UNK A   1     -10.998  14.462  68.421  1.00  0.00    -0.248 C  
ATOM     29  H   GLY A   2     -10.559  15.111  70.358  1.00  0.00     0.000 HD 
ATOM     30  N   GLY A   2     -11.250  14.650  69.765  1.00  0.00    -0.265 N  
HETATM   31  O   UNK A   1     -11.839  13.929  67.699  1.00  0.00    -0.348 OA 
BRANCH  30  32
ATOM     32  CA  GLY A   2     -12.510  14.184  70.332  1.00  0.00    -0.357 C  
ATOM     33  OXT GLY A   2     -13.666  14.135  72.483  1.00  0.00    -0.485 OA 
ATOM     34  C   GLY A   2     -12.936  14.732  71.701  1.00  0.00    -0.334 C  
ATOM     35  O   GLY A   2     -12.622  16.026  71.906  1.00  0.00    -0.452 OA 
ENDBRANCH  30  32
ENDBRANCH  27  28
BRANCH  27  36
HETATM   36  N   UNK A   1      -9.677  16.549  67.580  1.00  0.00    -0.239 N  
HETATM   37  H   UNK A   1      -9.366  17.187  68.311  1.00  0.00     0.000 HD 
HETATM   38  O   UNK A   1     -10.327  16.374  65.390  1.00  0.00    -0.535 OA 
HETATM   39  C   UNK A   1     -10.071  17.067  66.368  1.00  0.00    -0.317 C  
BRANCH  39  40
HETATM   40  C   UNK A   1     -10.043  18.583  66.244  1.00  0.00    -0.422 C  
BRANCH  40  41
HETATM   41  C   UNK A   1      -9.380  19.362  67.396  1.00  0.00    -0.388 C  
BRANCH  41  42
HETATM   42  C   UNK A   1      -7.900  19.740  67.242  1.00  0.00    -0.274 C  
HETATM   43  N   UNK A   1      -7.717  21.170  66.878  1.00  0.00    -0.681 NA 
HETATM   44  C   UNK A   1      -7.272  18.911  66.136  1.00  0.00    -0.261 C  
HETATM   45  O   UNK A   1      -6.882  17.758  66.180  1.00  0.00    -0.242 OA 
HETATM   46  O   UNK A   1      -7.259  19.637  64.996  1.00  0.00    -0.343 OA 
HETATM   47  H2  UNK A   1      -8.186  21.783  67.546  1.00  0.00     0.000 HD 
HETATM   48  H1  UNK A   1      -6.734  21.422  66.775  1.00  0.00     0.000 HD 
ENDBRANCH  41  42
ENDBRANCH  40  41
ENDBRANCH  39  40
ENDBRANCH  27  36
ENDBRANCH  26  27
ENDBRANCH  25  26
ENDBRANCH  24  25
ENDBRANCH  23  24
ENDBRANCH  14  23
ENDBRANCH  11  14
ENDBRANCH   9  10
ENDBRANCH   8   9
ENDBRANCH   4   8
TORSDOF 17
ENDMDL
MODEL        4
REMARK 921   NORMALIZED FREE ENERGY PREDICTED BY IDOCK:   -6.26 KCAL/MOL
REMARK 922        TOTAL FREE ENERGY PREDICTED BY IDOCK:  -15.45 KCAL/MOL
REMARK 923 INTER-LIGAND FREE ENERGY PREDICTED BY IDOCK:  -12.91 KCAL/MOL
REMARK 924 INTRA-LIGAND FREE ENERGY PREDICTED BY IDOCK:   -2.54 KCAL/MOL
REMARK 927      BINDING AFFINITY PREDICTED BY RF-SCORE:    0.00 PKD
ROOT
HETATM    1  N   UNK A   1      -8.933   5.868  70.022  1.00  0.00    -0.139 NA 
HETATM    2  H1  UNK A   1      -7.996   5.503  69.851  1.00  0.00     0.000 HD 
HETATM    3  H2  UNK A   1      -9.389   5.352  70.775  1.00  0.00     0.000 HD 
HETATM    4  C   UNK A   1      -9.791   5.899  68.808  1.00  0.00    -0.140 C  
HETATM    5  O   UNK A   1      -9.586   7.218  66.746  1.00  0.00    -0.167 OA 
HETATM    6  C   UNK A   1      -9.055   6.674  67.701  1.00  0.00    -0.112 C  
HETATM    7  O   UNK A   1      -7.716   6.677  67.920  1.00  0.00    -0.104 OA 
ENDROOT
BRANCH   4   8
HETATM    8  C   UNK A   1     -11.196   6.448  69.066  1.00  0.00    -0.402 C  
BRANCH   8   9
HETATM    9  C   UNK A   1     -11.447   6.936  70.494  1.00  0.00    -0.390 C  
BRANCH   9  10
HETATM   10  C   UNK A   1     -11.009   8.376  70.628  1.00  0.00    -0.243 C  
HETATM   11  N   UNK A   1     -11.969   9.298  70.269  1.00  0.00    -0.467 N  
HETATM   12  O   UNK A   1      -9.877   8.687  70.986  1.00  0.00    -0.182 OA 
HETATM   13  H   UNK A   1     -12.875   8.987  69.922  1.00  0.00     0.000 HD 
BRANCH  11  14
HETATM   14  C   UNK A   1     -11.676  10.733  70.389  1.00  0.00    -0.351 C  
BRANCH  14  15
HETATM   15  C   UNK A   1     -12.624  11.344  71.441  1.00  0.00    -0.334 C  
ATOM     16  H   GLY A   2     -12.120  13.238  70.777  1.00  0.00     0.000 HD 
ATOM     17  N   GLY A   2     -12.706  12.719  71.431  1.00  0.00    -0.320 N  
HETATM   18  O   UNK A   1     -13.246  10.664  72.242  1.00  0.00    -0.400 OA 
BRANCH  17  19
ATOM     19  CA  GLY A   2     -13.591  13.461  72.311  1.00  0.00    -0.605 C  
ATOM     20  C   GLY A   2     -13.210  14.919  72.511  1.00  0.00    -0.408 C  
ATOM     21  O   GLY A   2     -11.882  15.199  72.350  1.00  0.00    -0.382 OA 
ATOM     22  OXT GLY A   2     -13.999  15.786  72.856  1.00  0.00    -0.568 OA 
ENDBRANCH  17  19
ENDBRANCH  14  15
BRANCH  14  23
HETATM   23  C   UNK A   1     -11.821  11.433  69.027  1.00  0.00    -0.348 C  
BRANCH  23  24
HETATM   24  S   UNK A   1     -10.659  10.902  67.729  1.00  0.00    -0.236 SA 
BRANCH  24  25
HETATM   25  S   UNK A   1      -9.437  12.538  67.557  1.00  0.00    -0.191 SA 
BRANCH  25  26
HETATM   26  C   UNK A   1     -10.639  13.913  67.482  1.00  0.00    -0.256 C  
BRANCH  26  27
HETATM   27  C   UNK A   1     -11.206  14.217  66.083  1.00  0.00    -0.331 C  
BRANCH  27  28
HETATM   28  C   UNK A   1     -11.000  15.718  65.721  1.00  0.00    -0.214 C  
ATOM     29  H   GLY A   2     -10.534  16.202  67.699  1.00  0.00     0.000 HD 
ATOM     30  N   GLY A   2     -10.602  16.555  66.745  1.00  0.00    -0.268 N  
HETATM   31  O   UNK A   1     -11.060  16.134  64.566  1.00  0.00    -0.634 OA 
BRANCH  30  32
ATOM     32  CA  GLY A   2     -10.280  17.946  66.451  1.00  0.00    -0.372 C  
ATOM     33  OXT GLY A   2      -8.376  19.471  66.574  1.00  0.00    -0.298 OA 
ATOM     34  C   GLY A   2      -8.800  18.343  66.354  1.00  0.00    -0.248 C  
ATOM     35  O   GLY A   2      -8.008  17.408  65.796  1.00  0.00    -0.538 OA 
ENDBRANCH  30  32
ENDBRANCH  27  28
BRANCH  27  36
HETATM   36  N   UNK A   1     -10.899  13.198  65.055  1.00  0.00    -0.302 N  
HETATM   37  H   UNK A   1      -9.926  13.024  64.807  1.00  0.00     0.000 HD 
HETATM   38  O   UNK A   1     -13.066  12.520  64.749  1.00  0.00    -0.853 OA 
HETATM   39  C   UNK A   1     -11.885  12.478  64.421  1.00  0.00    -0.386 C  
BRANCH  39  40
HETATM   40  C   UNK A   1     -11.422  11.496  63.356  1.00  0.00    -0.274 C  
BRANCH  40  41
HETATM   41  C   UNK A   1      -9.902  11.376  63.137  1.00  0.00    -0.413 C  
BRANCH  41  42
HETATM   42  C   UNK A   1      -9.250  10.011  63.397  1.00  0.00    -0.281 C  
HETATM   43  N   UNK A   1      -9.747   9.377  64.648  1.00  0.00    -0.337 NA 
HETATM   44  C   UNK A   1      -7.749  10.179  63.544  1.00  0.00    -0.144 C  
HETATM   45  O   UNK A   1      -6.911  10.314  62.671  1.00  0.00    -0.130 OA 
HETATM   46  O   UNK A   1      -7.439  10.234  64.859  1.00  0.00    -0.143 OA 
HETATM   47  H2  UNK A   1     -10.764   9.304  64.645  1.00  0.00     0.000 HD 
HETATM   48  H1  UNK A   1      -9.314   8.470  64.821  1.00  0.00     0.000 HD 
ENDBRANCH  41  42
ENDBRANCH  40  41
ENDBRANCH  39  40
ENDBRANCH  27  36
ENDBRANCH  26  27
ENDBRANCH  25  26
ENDBRANCH  24  25
ENDBRANCH  23  24
ENDBRANCH  14  23
ENDBRANCH  11  14
ENDBRANCH   9  10
ENDBRANCH   8   9
ENDBRANCH   4   8
TORSDOF 17
ENDMDL
MODEL        5
REMARK 921   NORMALIZED FREE ENERGY PREDICTED BY IDOCK:   -6.25 KCAL/MOL
REMARK 922        TOTAL FREE ENERGY PREDICTED BY IDOCK:  -15.44 KCAL/MOL
REMARK 923 INTER-LIGAND FREE ENERGY PREDICTED BY IDOCK:  -12.66 KCAL/MOL
REMARK 924 INTRA-LIGAND FREE ENERGY PREDICTED BY IDOCK:   -2.77 KCAL/MOL
REMARK 927      BINDING AFFINITY PREDICTED BY RF-SCORE:    0.00 PKD
ROOT
HETATM    1  N   UNK A   1     -11.764  12.721  70.324  1.00  0.00    -0.548 NA 
HETATM    2  H1  UNK A   1     -11.586  11.945  70.962  1.00  0.00     0.000 HD 
HETATM    3  H2  UNK A   1     -10.951  12.897  69.734  1.00  0.00     0.000 HD 
HETATM    4  C   UNK A   1     -12.197  13.968  71.011  1.00  0.00    -0.353 C  
HETATM    5  O   UNK A   1     -14.242  14.459  72.279  1.00  0.00    -0.494 OA 
HETATM    6  C   UNK A   1     -13.414  13.648  71.896  1.00  0.00    -0.433 C  
HETATM    7  O   UNK A   1     -13.453  12.328  72.208  1.00  0.00    -0.520 OA 
ENDROOT
BRANCH   4   8
HETATM    8  C   UNK A   1     -12.464  15.131  70.053  1.00  0.00    -0.316 C  
BRANCH   8   9
HETATM    9  C   UNK A   1     -11.784  15.015  68.688  1.00  0.00    -0.363 C  
BRANCH   9  10
HETATM   10  C   UNK A   1     -10.302  15.270  68.831  1.00  0.00    -0.243 C  
HETATM   11  N   UNK A   1      -9.511  14.535  67.973  1.00  0.00    -0.204 N  
HETATM   12  O   UNK A   1      -9.846  16.040  69.672  1.00  0.00    -0.257 OA 
HETATM   13  H   UNK A   1      -9.936  13.866  67.332  1.00  0.00     0.000 HD 
BRANCH  11  14
HETATM   14  C   UNK A   1      -8.054  14.721  67.990  1.00  0.00    -0.139 C  
BRANCH  14  15
HETATM   15  C   UNK A   1      -7.715  16.037  67.262  1.00  0.00    -0.183 C  
ATOM     16  H   GLY A   2      -6.492  16.581  68.839  1.00  0.00     0.000 HD 
ATOM     17  N   GLY A   2      -6.828  16.861  67.918  1.00  0.00    -0.144 N  
HETATM   18  O   UNK A   1      -8.211  16.342  66.188  1.00  0.00    -0.315 OA 
BRANCH  17  19
ATOM     19  CA  GLY A   2      -6.352  18.112  67.355  1.00  0.00    -0.172 C  
ATOM     20  C   GLY A   2      -6.912  19.360  68.019  1.00  0.00    -0.255 C  
ATOM     21  O   GLY A   2      -8.135  19.204  68.609  1.00  0.00    -0.349 OA 
ATOM     22  OXT GLY A   2      -6.363  20.451  67.985  1.00  0.00    -0.253 OA 
ENDBRANCH  17  19
ENDBRANCH  14  15
BRANCH  14  23
HETATM   23  C   UNK A   1      -7.346  13.520  67.341  1.00  0.00    -0.109 C  
BRANCH  23  24
HETATM   24  S   UNK A   1      -7.807  11.879  67.981  1.00  0.00    -0.151 SA 
BRANCH  24  25
HETATM   25  S   UNK A   1      -7.620  10.703  66.312  1.00  0.00    -0.139 SA 
BRANCH  25  26
HETATM   26  C   UNK A   1      -9.235   9.849  66.258  1.00  0.00    -0.168 C  
BRANCH  26  27
HETATM   27  C   UNK A   1     -10.137  10.066  67.487  1.00  0.00    -0.198 C  
BRANCH  27  28
HETATM   28  C   UNK A   1     -11.224  11.142  67.186  1.00  0.00    -0.249 C  
ATOM     29  H   GLY A   2     -10.445  11.496  65.281  1.00  0.00     0.000 HD 
ATOM     30  N   GLY A   2     -11.198  11.718  65.932  1.00  0.00    -0.316 N  
HETATM   31  O   UNK A   1     -12.144  11.387  67.965  1.00  0.00    -0.629 OA 
BRANCH  30  32
ATOM     32  CA  GLY A   2     -12.255  12.645  65.546  1.00  0.00    -0.440 C  
ATOM     33  OXT GLY A   2     -12.608  14.516  64.016  1.00  0.00    -0.797 OA 
ATOM     34  C   GLY A   2     -12.090  13.427  64.235  1.00  0.00    -0.424 C  
ATOM     35  O   GLY A   2     -11.500  12.735  63.243  1.00  0.00    -0.476 OA 
ENDBRANCH  30  32
ENDBRANCH  27  28
BRANCH  27  36
HETATM   36  N   UNK A   1     -10.548   8.827  68.182  1.00  0.00    -0.390 N  
HETATM   37  H   UNK A   1     -11.507   8.495  68.075  1.00  0.00     0.000 HD 
HETATM   38  O   UNK A   1      -8.480   8.349  69.044  1.00  0.00    -0.121 OA 
HETATM   39  C   UNK A   1      -9.680   8.106  68.968  1.00  0.00    -0.163 C  
BRANCH  39  40
HETATM   40  C   UNK A   1     -10.255   6.877  69.654  1.00  0.00    -0.206 C  
BRANCH  40  41
HETATM   41  C   UNK A   1     -11.728   6.957  70.101  1.00  0.00    -0.306 C  
BRANCH  41  42
HETATM   42  C   UNK A   1     -12.026   7.601  71.462  1.00  0.00    -0.303 C  
HETATM   43  N   UNK A   1     -13.172   6.955  72.155  1.00  0.00    -0.548 NA 
HETATM   44  C   UNK A   1     -12.383   9.064  71.270  1.00  0.00    -0.302 C  
HETATM   45  O   UNK A   1     -11.638  10.009  71.084  1.00  0.00    -0.355 OA 
HETATM   46  O   UNK A   1     -13.729   9.189  71.261  1.00  0.00    -0.332 OA 
HETATM   47  H2  UNK A   1     -13.026   5.950  72.248  1.00  0.00     0.000 HD 
HETATM   48  H1  UNK A   1     -13.370   7.383  73.059  1.00  0.00     0.000 HD 
ENDBRANCH  41  42
ENDBRANCH  40  41
ENDBRANCH  39  40
ENDBRANCH  27  36
ENDBRANCH  26  27
ENDBRANCH  25  26
ENDBRANCH  24  25
ENDBRANCH  23  24
ENDBRANCH  14  23
ENDBRANCH  11  14
ENDBRANCH   9  10
ENDBRANCH   8   9
ENDBRANCH   4   8
TORSDOF 17
ENDMDL
MODEL        6
REMARK 921   NORMALIZED FREE ENERGY PREDICTED BY IDOCK:   -6.24 KCAL/MOL
REMARK 922        TOTAL FREE ENERGY PREDICTED BY IDOCK:  -15.41 KCAL/MOL
REMARK 923 INTER-LIGAND FREE ENERGY PREDICTED BY IDOCK:  -13.79 KCAL/MOL
REMARK 924 INTRA-LIGAND FREE ENERGY PREDICTED BY IDOCK:   -1.63 KCAL/MOL
REMARK 927      BINDING AFFINITY PREDICTED BY RF-SCORE:    0.00 PKD
ROOT
HETATM    1  N   UNK A   1      -9.229   5.278  70.582  1.00  0.00    -0.144 NA 
HETATM    2  H1  UNK A   1      -8.617   4.464  70.634  1.00  0.00     0.000 HD 
HETATM    3  H2  UNK A   1      -9.605   5.506  71.503  1.00  0.00     0.000 HD 
HETATM    4  C   UNK A   1     -10.325   5.134  69.587  1.00  0.00    -0.246 C  
HETATM    5  O   UNK A   1     -10.239   4.964  67.138  1.00  0.00    -0.195 OA 
HETATM    6  C   UNK A   1      -9.710   4.777  68.222  1.00  0.00    -0.140 C  
HETATM    7  O   UNK A   1      -8.484   4.216  68.375  1.00  0.00    -0.090 OA 
ENDROOT
BRANCH   4   8
HETATM    8  C   UNK A   1     -11.244   6.356  69.509  1.00  0.00    -0.477 C  
BRANCH   8   9
HETATM    9  C   UNK A   1     -11.683   6.922  70.860  1.00  0.00    -0.408 C  
BRANCH   9  10
HETATM   10  C   UNK A   1     -11.266   8.370  70.969  1.00  0.00    -0.266 C  
HETATM   11  N   UNK A   1     -12.101   9.253  70.317  1.00  0.00    -0.456 N  
HETATM   12  O   UNK A   1     -10.246   8.717  71.556  1.00  0.00    -0.224 OA 
HETATM   13  H   UNK A   1     -12.905   8.908  69.795  1.00  0.00     0.000 HD 
BRANCH  11  14
HETATM   14  C   UNK A   1     -11.823  10.694  70.379  1.00  0.00    -0.349 C  
BRANCH  14  15
HETATM   15  C   UNK A   1     -12.789  11.341  71.392  1.00  0.00    -0.410 C  
ATOM     16  H   GLY A   2     -12.159  13.214  70.778  1.00  0.00     0.000 HD 
ATOM     17  N   GLY A   2     -12.802  12.718  71.396  1.00  0.00    -0.339 N  
HETATM   18  O   UNK A   1     -13.482  10.684  72.153  1.00  0.00    -0.373 OA 
BRANCH  17  19
ATOM     19  CA  GLY A   2     -13.691  13.494  72.242  1.00  0.00    -0.602 C  
ATOM     20  C   GLY A   2     -13.255  14.933  72.467  1.00  0.00    -0.408 C  
ATOM     21  O   GLY A   2     -11.911  15.155  72.366  1.00  0.00    -0.382 OA 
ATOM     22  OXT GLY A   2     -14.020  15.832  72.784  1.00  0.00    -0.590 OA 
ENDBRANCH  17  19
ENDBRANCH  14  15
BRANCH  14  23
HETATM   23  C   UNK A   1     -11.956  11.334  68.987  1.00  0.00    -0.325 C  
BRANCH  23  24
HETATM   24  S   UNK A   1     -10.781  10.751  67.724  1.00  0.00    -0.273 SA 
BRANCH  24  25
HETATM   25  S   UNK A   1      -9.202  12.031  67.989  1.00  0.00    -0.196 SA 
BRANCH  25  26
HETATM   26  C   UNK A   1      -9.945  13.651  67.585  1.00  0.00    -0.239 C  
BRANCH  26  27
HETATM   27  C   UNK A   1      -9.315  14.385  66.386  1.00  0.00    -0.258 C  
BRANCH  27  28
HETATM   28  C   UNK A   1     -10.213  14.240  65.121  1.00  0.00    -0.385 C  
ATOM     29  H   GLY A   2      -9.748  12.212  64.937  1.00  0.00     0.000 HD 
ATOM     30  N   GLY A   2     -10.311  12.979  64.569  1.00  0.00    -0.375 N  
HETATM   31  O   UNK A   1     -10.908  15.161  64.696  1.00  0.00    -0.377 OA 
BRANCH  30  32
ATOM     32  CA  GLY A   2     -11.224  12.751  63.456  1.00  0.00    -0.373 C  
ATOM     33  OXT GLY A   2     -13.275  11.519  62.967  1.00  0.00    -0.271 OA 
ATOM     34  C   GLY A   2     -12.612  12.173  63.763  1.00  0.00    -0.475 C  
ATOM     35  O   GLY A   2     -13.158  12.614  64.912  1.00  0.00    -0.850 OA 
ENDBRANCH  30  32
ENDBRANCH  27  28
BRANCH  27  36
HETATM   36  N   UNK A   1      -8.752  15.716  66.701  1.00  0.00    -0.273 N  
HETATM   37  H   UNK A   1      -9.373  16.524  66.716  1.00  0.00     0.000 HD 
HETATM   38  O   UNK A   1      -6.623  14.974  67.113  1.00  0.00    -0.281 OA 
HETATM   39  C   UNK A   1      -7.416  15.899  66.973  1.00  0.00    -0.219 C  
BRANCH  39  40
HETATM   40  C   UNK A   1      -6.974  17.331  67.237  1.00  0.00    -0.194 C  
BRANCH  40  41
HETATM   41  C   UNK A   1      -8.085  18.360  67.518  1.00  0.00    -0.253 C  
BRANCH  41  42
HETATM   42  C   UNK A   1      -8.230  19.537  66.543  1.00  0.00    -0.318 C  
HETATM   43  N   UNK A   1      -7.482  20.741  66.995  1.00  0.00    -0.493 NA 
HETATM   44  C   UNK A   1      -9.691  19.931  66.429  1.00  0.00    -0.447 C  
HETATM   45  O   UNK A   1     -10.572  19.399  65.779  1.00  0.00    -0.496 OA 
HETATM   46  O   UNK A   1      -9.928  20.981  67.248  1.00  0.00    -0.315 OA 
HETATM   47  H2  UNK A   1      -6.501  20.522  67.165  1.00  0.00     0.000 HD 
HETATM   48  H1  UNK A   1      -7.578  21.523  66.348  1.00  0.00     0.000 HD 
ENDBRANCH  41  42
ENDBRANCH  40  41
ENDBRANCH  39  40
ENDBRANCH  27  36
ENDBRANCH  26  27
ENDBRANCH  25  26
ENDBRANCH  24  25
ENDBRANCH  23  24
ENDBRANCH  14  23
ENDBRANCH  11  14
ENDBRANCH   9  10
ENDBRANCH   8   9
ENDBRANCH   4   8
TORSDOF 17
ENDMDL
MODEL        7
REMARK 921   NORMALIZED FREE ENERGY PREDICTED BY IDOCK:   -6.22 KCAL/MOL
REMARK 922        TOTAL FREE ENERGY PREDICTED BY IDOCK:  -15.36 KCAL/MOL
REMARK 923 INTER-LIGAND FREE ENERGY PREDICTED BY IDOCK:  -12.93 KCAL/MOL
REMARK 924 INTRA-LIGAND FREE ENERGY PREDICTED BY IDOCK:   -2.43 KCAL/MOL
REMARK 927      BINDING AFFINITY PREDICTED BY RF-SCORE:    0.00 PKD
ROOT
HETATM    1  N   UNK A   1     -10.409  16.660  65.537  1.00  0.00    -0.588 NA 
HETATM    2  H1  UNK A   1     -10.084  17.181  64.723  1.00  0.00     0.000 HD 
HETATM    3  H2  UNK A   1     -11.378  16.367  65.414  1.00  0.00     0.000 HD 
HETATM    4  C   UNK A   1     -10.241  17.396  66.819  1.00  0.00    -0.318 C  
HETATM    5  O   UNK A   1      -8.202  18.091  68.000  1.00  0.00    -0.245 OA 
HETATM    6  C   UNK A   1      -8.770  17.829  66.952  1.00  0.00    -0.248 C  
HETATM    7  O   UNK A   1      -8.171  17.886  65.735  1.00  0.00    -0.530 OA 
ENDROOT
BRANCH   4   8
HETATM    8  C   UNK A   1     -10.729  16.614  68.041  1.00  0.00    -0.350 C  
BRANCH   8   9
HETATM    9  C   UNK A   1     -10.116  15.222  68.205  1.00  0.00    -0.229 C  
BRANCH   9  10
HETATM   10  C   UNK A   1     -11.211  14.201  68.404  1.00  0.00    -0.265 C  
HETATM   11  N   UNK A   1     -11.072  13.431  69.540  1.00  0.00    -0.460 N  
HETATM   12  O   UNK A   1     -12.122  14.048  67.596  1.00  0.00    -0.382 OA 
HETATM   13  H   UNK A   1     -10.265  13.558  70.150  1.00  0.00     0.000 HD 
BRANCH  11  14
HETATM   14  C   UNK A   1     -12.093  12.426  69.865  1.00  0.00    -0.247 C  
BRANCH  14  15
HETATM   15  C   UNK A   1     -12.885  12.906  71.098  1.00  0.00    -0.238 C  
ATOM     16  H   GLY A   2     -12.823  14.841  70.368  1.00  0.00     0.000 HD 
ATOM     17  N   GLY A   2     -13.175  14.252  71.122  1.00  0.00    -0.339 N  
HETATM   18  O   UNK A   1     -13.216  12.155  72.001  1.00  0.00    -0.499 OA 
BRANCH  17  19
ATOM     19  CA  GLY A   2     -13.962  14.868  72.176  1.00  0.00    -0.496 C  
ATOM     20  C   GLY A   2     -13.155  15.677  73.179  1.00  0.00    -0.558 C  
ATOM     21  O   GLY A   2     -11.853  15.287  73.326  1.00  0.00    -0.435 OA 
ATOM     22  OXT GLY A   2     -13.626  16.571  73.866  1.00  0.00    -0.432 OA 
ENDBRANCH  17  19
ENDBRANCH  14  15
BRANCH  14  23
HETATM   23  C   UNK A   1     -11.444  11.053  70.113  1.00  0.00    -0.296 C  
BRANCH  23  24
HETATM   24  S   UNK A   1     -10.048  10.622  69.027  1.00  0.00    -0.213 SA 
BRANCH  24  25
HETATM   25  S   UNK A   1     -10.062   8.574  69.108  1.00  0.00    -0.207 SA 
BRANCH  25  26
HETATM   26  C   UNK A   1     -10.675   8.125  67.446  1.00  0.00    -0.177 C  
BRANCH  26  27
HETATM   27  C   UNK A   1      -9.606   8.079  66.338  1.00  0.00    -0.197 C  
BRANCH  27  28
HETATM   28  C   UNK A   1      -9.268   6.606  65.962  1.00  0.00    -0.033 C  
ATOM     29  H   GLY A   2     -10.788   5.870  67.192  1.00  0.00     0.000 HD 
ATOM     30  N   GLY A   2     -10.070   5.625  66.511  1.00  0.00    -0.181 N  
HETATM   31  O   UNK A   1      -8.418   6.317  65.122  1.00  0.00    -0.145 OA 
BRANCH  30  32
ATOM     32  CA  GLY A   2      -9.882   4.236  66.109  1.00  0.00    -0.221 C  
ATOM     33  OXT GLY A   2      -8.586   2.276  66.775  1.00  0.00    -0.100 OA 
ATOM     34  C   GLY A   2      -9.208   3.279  67.102  1.00  0.00    -0.187 C  
ATOM     35  O   GLY A   2      -9.528   3.498  68.392  1.00  0.00    -0.173 OA 
ENDBRANCH  30  32
ENDBRANCH  27  28
BRANCH  27  36
HETATM   36  N   UNK A   1      -9.803   9.057  65.246  1.00  0.00    -0.343 N  
HETATM   37  H   UNK A   1     -10.745   9.218  64.891  1.00  0.00     0.000 HD 
HETATM   38  O   UNK A   1      -7.616   9.731  65.142  1.00  0.00    -0.113 OA 
HETATM   39  C   UNK A   1      -8.756   9.756  64.691  1.00  0.00    -0.194 C  
BRANCH  39  40
HETATM   40  C   UNK A   1      -9.105  10.695  63.546  1.00  0.00    -0.252 C  
BRANCH  40  41
HETATM   41  C   UNK A   1     -10.547  11.235  63.507  1.00  0.00    -0.436 C  
BRANCH  41  42
HETATM   42  C   UNK A   1     -10.912  12.361  64.485  1.00  0.00    -0.316 C  
HETATM   43  N   UNK A   1     -11.169  11.855  65.860  1.00  0.00    -0.331 NA 
HETATM   44  C   UNK A   1     -12.178  13.056  64.018  1.00  0.00    -0.417 C  
HETATM   45  O   UNK A   1     -12.305  13.894  63.143  1.00  0.00    -0.696 OA 
HETATM   46  O   UNK A   1     -13.233  12.546  64.692  1.00  0.00    -0.848 OA 
HETATM   47  H2  UNK A   1     -10.380  11.309  66.205  1.00  0.00     0.000 HD 
HETATM   48  H1  UNK A   1     -11.412  12.602  66.510  1.00  0.00     0.000 HD 
ENDBRANCH  41  42
ENDBRANCH  40  41
ENDBRANCH  39  40
ENDBRANCH  27  36
ENDBRANCH  26  27
ENDBRANCH  25  26
ENDBRANCH  24  25
ENDBRANCH  23  24
ENDBRANCH  14  23
ENDBRANCH  11  14
ENDBRANCH   9  10
ENDBRANCH   8   9
ENDBRANCH   4   8
TORSDOF 17
ENDMDL
MODEL        8
REMARK 921   NORMALIZED FREE ENERGY PREDICTED BY IDOCK:   -6.15 KCAL/MOL
REMARK 922        TOTAL FREE ENERGY PREDICTED BY IDOCK:  -15.24 KCAL/MOL
REMARK 923 INTER-LIGAND FREE ENERGY PREDICTED BY IDOCK:  -13.20 KCAL/MOL
REMARK 924 INTRA-LIGAND FREE ENERGY PREDICTED BY IDOCK:   -2.05 KCAL/MOL
REMARK 927      BINDING AFFINITY PREDICTED BY RF-SCORE:    0.00 PKD
ROOT
HETATM    1  N   UNK A   1     -11.344   4.402  64.956  1.00  0.00    -1.102 NA 
HETATM    2  H1  UNK A   1     -11.344   3.987  64.024  1.00  0.00     0.000 HD 
HETATM    3  H2  UNK A   1     -11.871   5.275  64.961  1.00  0.00     0.000 HD 
HETATM    4  C   UNK A   1      -9.982   4.605  65.517  1.00  0.00    -0.183 C  
HETATM    5  O   UNK A   1      -8.272   2.970  66.178  1.00  0.00    -0.088 OA 
HETATM    6  C   UNK A   1      -9.224   3.267  65.474  1.00  0.00    -0.151 C  
HETATM    7  O   UNK A   1      -9.754   2.440  64.537  1.00  0.00    -0.129 OA 
ENDROOT
BRANCH   4   8
HETATM    8  C   UNK A   1      -9.983   5.228  66.915  1.00  0.00    -0.219 C  
BRANCH   8   9
HETATM    9  C   UNK A   1     -11.114   6.223  67.178  1.00  0.00    -0.389 C  
BRANCH   9  10
HETATM   10  C   UNK A   1     -10.544   7.611  67.359  1.00  0.00    -0.286 C  
HETATM   11  N   UNK A   1     -10.117   8.208  66.191  1.00  0.00    -0.447 N  
HETATM   12  O   UNK A   1     -10.435   8.137  68.463  1.00  0.00    -0.207 OA 
HETATM   13  H   UNK A   1     -10.177   7.704  65.307  1.00  0.00     0.000 HD 
BRANCH  11  14
HETATM   14  C   UNK A   1      -9.576   9.573  66.231  1.00  0.00    -0.226 C  
BRANCH  14  15
HETATM   15  C   UNK A   1      -9.840  10.248  64.870  1.00  0.00    -0.336 C  
ATOM     16  H   GLY A   2     -11.135  11.572  65.793  1.00  0.00     0.000 HD 
ATOM     17  N   GLY A   2     -10.702  11.322  64.904  1.00  0.00    -0.294 N  
HETATM   18  O   UNK A   1      -9.339   9.851  63.829  1.00  0.00    -0.268 OA 
BRANCH  17  19
ATOM     19  CA  GLY A   2     -11.020  12.113  63.728  1.00  0.00    -0.431 C  
ATOM     20  C   GLY A   2     -12.272  12.966  63.858  1.00  0.00    -0.449 C  
ATOM     21  O   GLY A   2     -13.206  12.497  64.739  1.00  0.00    -0.839 OA 
ATOM     22  OXT GLY A   2     -12.484  13.966  63.189  1.00  0.00    -0.766 OA 
ENDBRANCH  17  19
ENDBRANCH  14  15
BRANCH  14  23
HETATM   23  C   UNK A   1      -8.075   9.552  66.567  1.00  0.00    -0.112 C  
BRANCH  23  24
HETATM   24  S   UNK A   1      -7.187  11.127  66.349  1.00  0.00    -0.047 SA 
BRANCH  24  25
HETATM   25  S   UNK A   1      -7.433  12.011  68.182  1.00  0.00    -0.122 SA 
BRANCH  25  26
HETATM   26  C   UNK A   1      -9.232  12.335  68.217  1.00  0.00    -0.189 C  
BRANCH  26  27
HETATM   27  C   UNK A   1      -9.671  13.681  67.611  1.00  0.00    -0.228 C  
BRANCH  27  28
HETATM   28  C   UNK A   1     -11.079  14.087  68.139  1.00  0.00    -0.260 C  
ATOM     29  H   GLY A   2     -10.250  15.333  69.597  1.00  0.00     0.000 HD 
ATOM     30  N   GLY A   2     -11.116  15.010  69.165  1.00  0.00    -0.256 N  
HETATM   31  O   UNK A   1     -12.120  13.714  67.600  1.00  0.00    -0.355 OA 
BRANCH  30  32
ATOM     32  CA  GLY A   2     -12.401  15.520  69.627  1.00  0.00    -0.191 C  
ATOM     33  OXT GLY A   2     -13.729  15.611  71.675  1.00  0.00    -0.485 OA 
ATOM     34  C   GLY A   2     -12.628  15.653  71.139  1.00  0.00    -0.453 C  
ATOM     35  O   GLY A   2     -11.540  16.036  71.834  1.00  0.00    -0.445 OA 
ENDBRANCH  30  32
ENDBRANCH  27  28
BRANCH  27  36
HETATM   36  N   UNK A   1      -8.613  14.714  67.563  1.00  0.00    -0.175 N  
HETATM   37  H   UNK A   1      -7.842  14.662  68.228  1.00  0.00     0.000 HD 
HETATM   38  O   UNK A   1      -9.442  15.809  65.730  1.00  0.00    -0.335 OA 
HETATM   39  C   UNK A   1      -8.636  15.743  66.651  1.00  0.00    -0.287 C  
BRANCH  39  40
HETATM   40  C   UNK A   1      -7.503  16.754  66.749  1.00  0.00    -0.279 C  
BRANCH  40  41
HETATM   41  C   UNK A   1      -7.760  18.145  66.139  1.00  0.00    -0.259 C  
BRANCH  41  42
HETATM   42  C   UNK A   1      -8.446  19.196  67.025  1.00  0.00    -0.285 C  
HETATM   43  N   UNK A   1      -8.278  18.909  68.475  1.00  0.00    -0.343 NA 
HETATM   44  C   UNK A   1      -9.936  19.214  66.739  1.00  0.00    -0.361 C  
HETATM   45  O   UNK A   1     -10.525  19.740  65.811  1.00  0.00    -0.511 OA 
HETATM   46  O   UNK A   1     -10.571  18.464  67.668  1.00  0.00    -0.408 OA 
HETATM   47  H2  UNK A   1      -7.294  18.808  68.719  1.00  0.00     0.000 HD 
HETATM   48  H1  UNK A   1      -8.734  19.606  69.063  1.00  0.00     0.000 HD 
ENDBRANCH  41  42
ENDBRANCH  40  41
ENDBRANCH  39  40
ENDBRANCH  27  36
ENDBRANCH  26  27
ENDBRANCH  25  26
ENDBRANCH  24  25
ENDBRANCH  23  24
ENDBRANCH  14  23
ENDBRANCH  11  14
ENDBRANCH   9  10
ENDBRANCH   8   9
ENDBRANCH   4   8
TORSDOF 17
ENDMDL
MODEL        9
REMARK 921   NORMALIZED FREE ENERGY PREDICTED BY IDOCK:   -6.09 KCAL/MOL
REMARK 922        TOTAL FREE ENERGY PREDICTED BY IDOCK:  -15.10 KCAL/MOL
REMARK 923 INTER-LIGAND FREE ENERGY PREDICTED BY IDOCK:  -12.55 KCAL/MOL
REMARK 924 INTRA-LIGAND FREE ENERGY PREDICTED BY IDOCK:   -2.56 KCAL/MOL
REMARK 927      BINDING AFFINITY PREDICTED BY RF-SCORE:    0.00 PKD
ROOT
HETATM    1  N   UNK A   1      -7.294  19.605  65.554  1.00  0.00    -0.402 NA 
HETATM    2  H1  UNK A   1      -6.289  19.660  65.385  1.00  0.00     0.000 HD 
HETATM    3  H2  UNK A   1      -7.813  20.032  64.787  1.00  0.00     0.000 HD 
HETATM    4  C   UNK A   1      -7.710  20.185  66.859  1.00  0.00    -0.304 C  
HETATM    5  O   UNK A   1      -7.219  19.458  69.154  1.00  0.00    -0.350 OA 
HETATM    6  C   UNK A   1      -6.891  19.521  67.979  1.00  0.00    -0.252 C  
HETATM    7  O   UNK A   1      -5.734  19.004  67.493  1.00  0.00    -0.175 OA 
ENDROOT
BRANCH   4   8
HETATM    8  C   UNK A   1      -9.216  20.102  67.113  1.00  0.00    -0.506 C  
BRANCH   8   9
HETATM    9  C   UNK A   1     -10.061  19.758  65.885  1.00  0.00    -0.513 C  
BRANCH   9  10
HETATM   10  C   UNK A   1     -10.530  18.324  65.971  1.00  0.00    -0.361 C  
HETATM   11  N   UNK A   1     -10.302  17.723  67.191  1.00  0.00    -0.347 N  
HETATM   12  O   UNK A   1     -11.032  17.739  65.015  1.00  0.00    -0.784 OA 
HETATM   13  H   UNK A   1      -9.829  18.235  67.934  1.00  0.00     0.000 HD 
BRANCH  11  14
HETATM   14  C   UNK A   1     -10.746  16.340  67.412  1.00  0.00    -0.287 C  
BRANCH  14  15
HETATM   15  C   UNK A   1     -11.248  16.208  68.864  1.00  0.00    -0.351 C  
ATOM     16  H   GLY A   2     -12.726  14.911  68.222  1.00  0.00     0.000 HD 
ATOM     17  N   GLY A   2     -12.316  15.357  69.042  1.00  0.00    -0.106 N  
HETATM   18  O   UNK A   1     -10.750  16.828  69.792  1.00  0.00    -0.322 OA 
BRANCH  17  19
ATOM     19  CA  GLY A   2     -12.881  15.067  70.348  1.00  0.00    -0.288 C  
ATOM     20  C   GLY A   2     -12.423  13.753  70.959  1.00  0.00    -0.380 C  
ATOM     21  O   GLY A   2     -12.046  12.795  70.061  1.00  0.00    -0.328 OA 
ATOM     22  OXT GLY A   2     -12.444  13.519  72.159  1.00  0.00    -0.072 OA 
ENDBRANCH  17  19
ENDBRANCH  14  15
BRANCH  14  23
HETATM   23  C   UNK A   1      -9.605  15.350  67.118  1.00  0.00    -0.212 C  
BRANCH  23  24
HETATM   24  S   UNK A   1      -7.988  15.756  67.851  1.00  0.00    -0.143 SA 
BRANCH  24  25
HETATM   25  S   UNK A   1      -7.319  13.913  68.450  1.00  0.00    -0.126 SA 
BRANCH  25  26
HETATM   26  C   UNK A   1      -8.299  12.785  67.398  1.00  0.00    -0.189 C  
BRANCH  26  27
HETATM   27  C   UNK A   1      -9.574  12.217  68.049  1.00  0.00    -0.204 C  
BRANCH  27  28
HETATM   28  C   UNK A   1     -10.590  11.762  66.959  1.00  0.00    -0.232 C  
ATOM     29  H   GLY A   2      -9.326  12.388  65.419  1.00  0.00     0.000 HD 
ATOM     30  N   GLY A   2     -10.203  11.918  65.644  1.00  0.00    -0.236 N  
HETATM   31  O   UNK A   1     -11.635  11.174  67.235  1.00  0.00    -0.514 OA 
BRANCH  30  32
ATOM     32  CA  GLY A   2     -11.056  11.407  64.578  1.00  0.00    -0.232 C  
ATOM     33  OXT GLY A   2     -13.173  11.943  63.484  1.00  0.00    -0.676 OA 
ATOM     34  C   GLY A   2     -12.136  12.335  64.005  1.00  0.00    -0.471 C  
ATOM     35  O   GLY A   2     -11.771  13.629  63.920  1.00  0.00    -0.389 OA 
ENDBRANCH  30  32
ENDBRANCH  27  28
BRANCH  27  36
HETATM   36  N   UNK A   1      -9.335  11.325  69.204  1.00  0.00    -0.407 N  
HETATM   37  H   UNK A   1      -9.656  11.616  70.127  1.00  0.00     0.000 HD 
HETATM   38  O   UNK A   1      -8.398   9.621  67.993  1.00  0.00    -0.116 OA 
HETATM   39  C   UNK A   1      -8.694  10.115  69.076  1.00  0.00    -0.161 C  
BRANCH  39  40
HETATM   40  C   UNK A   1      -8.482   9.326  70.359  1.00  0.00    -0.234 C  
BRANCH  40  41
HETATM   41  C   UNK A   1      -9.722   8.643  70.967  1.00  0.00    -0.266 C  
BRANCH  41  42
HETATM   42  C   UNK A   1     -10.914   8.373  70.037  1.00  0.00    -0.194 C  
HETATM   43  N   UNK A   1     -11.924   9.463  70.083  1.00  0.00    -0.460 NA 
HETATM   44  C   UNK A   1     -11.612   7.093  70.458  1.00  0.00    -0.290 C  
HETATM   45  O   UNK A   1     -11.288   5.941  70.232  1.00  0.00    -0.322 OA 
HETATM   46  O   UNK A   1     -12.679   7.408  71.228  1.00  0.00    -0.349 OA 
HETATM   47  H2  UNK A   1     -11.499  10.368  69.883  1.00  0.00     0.000 HD 
HETATM   48  H1  UNK A   1     -12.716   9.284  69.466  1.00  0.00     0.000 HD 
ENDBRANCH  41  42
ENDBRANCH  40  41
ENDBRANCH  39  40
ENDBRANCH  27  36
ENDBRANCH  26  27
ENDBRANCH  25  26
ENDBRANCH  24  25
ENDBRANCH  23  24
ENDBRANCH  14  23
ENDBRANCH  11  14
ENDBRANCH   9  10
ENDBRANCH   8   9
ENDBRANCH   4   8
TORSDOF 17
ENDMDL
MODEL       10
REMARK 921   NORMALIZED FREE ENERGY PREDICTED BY IDOCK:   -6.07 KCAL/MOL
REMARK 922        TOTAL FREE ENERGY PREDICTED BY IDOCK:  -15.07 KCAL/MOL
REMARK 923 INTER-LIGAND FREE ENERGY PREDICTED BY IDOCK:  -11.74 KCAL/MOL
REMARK 924 INTRA-LIGAND FREE ENERGY PREDICTED BY IDOCK:   -3.33 KCAL/MOL
REMARK 927      BINDING AFFINITY PREDICTED BY RF-SCORE:    0.00 PKD
ROOT
HETATM    1  N   UNK A   1     -11.457   6.637  67.651  1.00  0.00    -0.685 NA 
HETATM    2  H1  UNK A   1     -12.398   6.436  67.989  1.00  0.00     0.000 HD 
HETATM    3  H2  UNK A   1     -11.406   6.526  66.638  1.00  0.00     0.000 HD 
HETATM    4  C   UNK A   1     -10.400   5.835  68.322  1.00  0.00    -0.212 C  
HETATM    5  O   UNK A   1      -9.632   5.849  70.655  1.00  0.00    -0.168 OA 
HETATM    6  C   UNK A   1     -10.527   6.025  69.844  1.00  0.00    -0.249 C  
HETATM    7  O   UNK A   1     -11.782   6.417  70.180  1.00  0.00    -0.422 OA 
ENDROOT
BRANCH   4   8
HETATM    8  C   UNK A   1      -8.988   6.138  67.815  1.00  0.00    -0.115 C  
BRANCH   8   9
HETATM    9  C   UNK A   1      -8.791   5.961  66.308  1.00  0.00    -0.143 C  
BRANCH   9  10
HETATM   10  C   UNK A   1      -8.418   7.284  65.682  1.00  0.00    -0.131 C  
HETATM   11  N   UNK A   1      -9.313   8.304  65.928  1.00  0.00    -0.395 N  
HETATM   12  O   UNK A   1      -7.421   7.420  64.978  1.00  0.00    -0.074 OA 
HETATM   13  H   UNK A   1     -10.157   8.125  66.471  1.00  0.00     0.000 HD 
BRANCH  11  14
HETATM   14  C   UNK A   1      -9.043   9.649  65.403  1.00  0.00    -0.215 C  
BRANCH  14  15
HETATM   15  C   UNK A   1      -8.193  10.420  66.433  1.00  0.00    -0.141 C  
ATOM     16  H   GLY A   2      -9.468   9.794  67.937  1.00  0.00     0.000 HD 
ATOM     17  N   GLY A   2      -8.618  10.320  67.739  1.00  0.00    -0.118 N  
HETATM   18  O   UNK A   1      -7.222  11.090  66.116  1.00  0.00    -0.124 OA 
BRANCH  17  19
ATOM     19  CA  GLY A   2      -7.906  10.933  68.847  1.00  0.00    -0.142 C  
ATOM     20  C   GLY A   2      -7.491   9.967  69.945  1.00  0.00    -0.154 C  
ATOM     21  O   GLY A   2      -8.271   8.851  70.062  1.00  0.00    -0.106 OA 
ATOM     22  OXT GLY A   2      -6.573  10.178  70.724  1.00  0.00    -0.268 OA 
ENDBRANCH  17  19
ENDBRANCH  14  15
BRANCH  14  23
HETATM   23  C   UNK A   1     -10.358  10.385  65.095  1.00  0.00    -0.190 C  
BRANCH  23  24
HETATM   24  S   UNK A   1     -10.382  11.367  63.561  1.00  0.00    -0.439 SA 
BRANCH  24  25
HETATM   25  S   UNK A   1     -12.288  12.121  63.569  1.00  0.00    -0.509 SA 
BRANCH  25  26
HETATM   26  C   UNK A   1     -11.992  13.918  63.733  1.00  0.00    -0.265 C  
BRANCH  26  27
HETATM   27  C   UNK A   1     -11.405  14.369  65.083  1.00  0.00    -0.359 C  
BRANCH  27  28
HETATM   28  C   UNK A   1     -11.199  15.913  65.103  1.00  0.00    -0.224 C  
ATOM     29  H   GLY A   2     -10.313  15.839  66.994  1.00  0.00     0.000 HD 
ATOM     30  N   GLY A   2     -10.556  16.440  66.206  1.00  0.00    -0.281 N  
HETATM   31  O   UNK A   1     -11.471  16.629  64.141  1.00  0.00    -1.131 OA 
BRANCH  30  32
ATOM     32  CA  GLY A   2     -10.228  17.860  66.235  1.00  0.00    -0.363 C  
ATOM     33  OXT GLY A   2      -8.363  19.316  66.840  1.00  0.00    -0.266 OA 
ATOM     34  C   GLY A   2      -8.751  18.260  66.355  1.00  0.00    -0.241 C  
ATOM     35  O   GLY A   2      -7.899  17.456  65.691  1.00  0.00    -0.465 OA 
ENDBRANCH  30  32
ENDBRANCH  27  28
BRANCH  27  36
HETATM   36  N   UNK A   1     -12.012  13.725  66.269  1.00  0.00    -0.403 N  
HETATM   37  H   UNK A   1     -13.020  13.568  66.284  1.00  0.00     0.000 HD 
HETATM   38  O   UNK A   1     -10.036  13.351  67.366  1.00  0.00    -0.225 OA 
HETATM   39  C   UNK A   1     -11.262  13.330  67.352  1.00  0.00    -0.289 C  
BRANCH  39  40
HETATM   40  C   UNK A   1     -12.029  12.721  68.516  1.00  0.00    -0.265 C  
BRANCH  40  41
HETATM   41  C   UNK A   1     -11.686  11.266  68.886  1.00  0.00    -0.409 C  
BRANCH  41  42
HETATM   42  C   UNK A   1     -11.504  10.933  70.375  1.00  0.00    -0.275 C  
HETATM   43  N   UNK A   1     -11.082   9.524  70.591  1.00  0.00    -0.275 NA 
HETATM   44  C   UNK A   1     -12.819  11.128  71.108  1.00  0.00    -0.374 C  
HETATM   45  O   UNK A   1     -13.327  12.165  71.492  1.00  0.00    -0.262 OA 
HETATM   46  O   UNK A   1     -13.433   9.930  71.232  1.00  0.00    -0.367 OA 
HETATM   47  H2  UNK A   1     -10.240   9.306  70.060  1.00  0.00     0.000 HD 
HETATM   48  H1  UNK A   1     -10.961   9.303  71.580  1.00  0.00     0.000 HD 
ENDBRANCH  41  42
ENDBRANCH  40  41
ENDBRANCH  39  40
ENDBRANCH  27  36
ENDBRANCH  26  27
ENDBRANCH  25  26
ENDBRANCH  24  25
ENDBRANCH  23  24
ENDBRANCH  14  23
ENDBRANCH  11  14
ENDBRANCH   9  10
ENDBRANCH   8   9
ENDBRANCH   4   8
TORSDOF 17
ENDMDL
MODEL       11
REMARK 921   NORMALIZED FREE ENERGY PREDICTED BY IDOCK:   -6.05 KCAL/MOL
REMARK 922        TOTAL FREE ENERGY PREDICTED BY IDOCK:  -15.03 KCAL/MOL
REMARK 923 INTER-LIGAND FREE ENERGY PREDICTED BY IDOCK:  -12.57 KCAL/MOL
REMARK 924 INTRA-LIGAND FREE ENERGY PREDICTED BY IDOCK:   -2.47 KCAL/MOL
REMARK 927      BINDING AFFINITY PREDICTED BY RF-SCORE:    0.00 PKD
ROOT
HETATM    1  N   UNK A   1     -11.498   8.441  69.883  1.00  0.00    -0.444 NA 
HETATM    2  H1  UNK A   1     -12.155   8.830  70.560  1.00  0.00     0.000 HD 
HETATM    3  H2  UNK A   1     -11.714   8.771  68.942  1.00  0.00     0.000 HD 
HETATM    4  C   UNK A   1     -11.420   6.956  69.915  1.00  0.00    -0.242 C  
HETATM    5  O   UNK A   1     -10.604   5.443  71.669  1.00  0.00    -0.227 OA 
HETATM    6  C   UNK A   1     -11.109   6.508  71.354  1.00  0.00    -0.268 C  
HETATM    7  O   UNK A   1     -11.475   7.462  72.248  1.00  0.00    -0.265 OA 
ENDROOT
BRANCH   4   8
HETATM    8  C   UNK A   1     -10.435   6.374  68.899  1.00  0.00    -0.264 C  
BRANCH   8   9
HETATM    9  C   UNK A   1     -10.900   6.430  67.443  1.00  0.00    -0.457 C  
BRANCH   9  10
HETATM   10  C   UNK A   1      -9.953   7.287  66.636  1.00  0.00    -0.176 C  
HETATM   11  N   UNK A   1     -10.205   8.641  66.711  1.00  0.00    -0.290 N  
HETATM   12  O   UNK A   1      -9.062   6.806  65.941  1.00  0.00    -0.122 OA 
HETATM   13  H   UNK A   1     -10.994   8.985  67.257  1.00  0.00     0.000 HD 
BRANCH  11  14
HETATM   14  C   UNK A   1      -9.331   9.582  65.999  1.00  0.00    -0.216 C  
BRANCH  14  15
HETATM   15  C   UNK A   1      -8.025   9.747  66.801  1.00  0.00    -0.105 C  
ATOM     16  H   GLY A   2      -9.133   9.992  68.532  1.00  0.00     0.000 HD 
ATOM     17  N   GLY A   2      -8.187   9.933  68.157  1.00  0.00    -0.108 N  
HETATM   18  O   UNK A   1      -6.923   9.735  66.275  1.00  0.00    -0.089 OA 
BRANCH  17  19
ATOM     19  CA  GLY A   2      -7.067  10.048  69.074  1.00  0.00    -0.069 C  
ATOM     20  C   GLY A   2      -7.326   9.490  70.464  1.00  0.00    -0.138 C  
ATOM     21  O   GLY A   2      -8.636   9.489  70.854  1.00  0.00    -0.259 OA 
ATOM     22  OXT GLY A   2      -6.442   9.125  71.225  1.00  0.00    -0.079 OA 
ENDBRANCH  17  19
ENDBRANCH  14  15
BRANCH  14  23
HETATM   23  C   UNK A   1     -10.039  10.932  65.794  1.00  0.00    -0.252 C  
BRANCH  23  24
HETATM   24  S   UNK A   1     -10.202  11.494  64.070  1.00  0.00    -0.384 SA 
BRANCH  24  25
HETATM   25  S   UNK A   1     -12.164  12.084  63.998  1.00  0.00    -0.381 SA 
BRANCH  25  26
HETATM   26  C   UNK A   1     -12.026  13.902  64.124  1.00  0.00    -0.428 C  
BRANCH  26  27
HETATM   27  C   UNK A   1     -11.377  14.426  65.419  1.00  0.00    -0.339 C  
BRANCH  27  28
HETATM   28  C   UNK A   1     -11.007  15.932  65.277  1.00  0.00    -0.324 C  
ATOM     29  H   GLY A   2      -9.836  15.879  67.007  1.00  0.00     0.000 HD 
ATOM     30  N   GLY A   2     -10.140  16.450  66.218  1.00  0.00    -0.313 N  
HETATM   31  O   UNK A   1     -11.355  16.611  64.312  1.00  0.00    -1.116 OA 
BRANCH  30  32
ATOM     32  CA  GLY A   2      -9.661  17.820  66.077  1.00  0.00    -0.130 C  
ATOM     33  OXT GLY A   2     -10.411  20.099  66.532  1.00  0.00    -0.426 OA 
ATOM     34  C   GLY A   2     -10.374  18.923  66.872  1.00  0.00    -0.406 C  
ATOM     35  O   GLY A   2     -10.784  18.549  68.099  1.00  0.00    -0.315 OA 
ENDBRANCH  30  32
ENDBRANCH  27  28
BRANCH  27  36
HETATM   36  N   UNK A   1     -12.034  13.978  66.667  1.00  0.00    -0.425 N  
HETATM   37  H   UNK A   1     -13.043  13.830  66.668  1.00  0.00     0.000 HD 
HETATM   38  O   UNK A   1     -10.103  13.771  67.883  1.00  0.00    -0.235 OA 
HETATM   39  C   UNK A   1     -11.328  13.754  67.826  1.00  0.00    -0.303 C  
BRANCH  39  40
HETATM   40  C   UNK A   1     -12.144  13.337  69.040  1.00  0.00    -0.268 C  
BRANCH  40  41
HETATM   41  C   UNK A   1     -11.866  14.092  70.355  1.00  0.00    -0.356 C  
BRANCH  41  42
HETATM   42  C   UNK A   1     -12.415  15.520  70.486  1.00  0.00    -0.427 C  
HETATM   43  N   UNK A   1     -11.389  16.550  70.176  1.00  0.00    -0.437 NA 
HETATM   44  C   UNK A   1     -12.880  15.761  71.910  1.00  0.00    -0.446 C  
HETATM   45  O   UNK A   1     -13.917  15.408  72.441  1.00  0.00    -0.500 OA 
HETATM   46  O   UNK A   1     -11.902  16.404  72.588  1.00  0.00    -0.533 OA 
HETATM   47  H2  UNK A   1     -10.980  16.397  69.255  1.00  0.00     0.000 HD 
HETATM   48  H1  UNK A   1     -11.754  17.499  70.263  1.00  0.00     0.000 HD 
ENDBRANCH  41  42
ENDBRANCH  40  41
ENDBRANCH  39  40
ENDBRANCH  27  36
ENDBRANCH  26  27
ENDBRANCH  25  26
ENDBRANCH  24  25
ENDBRANCH  23  24
ENDBRANCH  14  23
ENDBRANCH  11  14
ENDBRANCH   9  10
ENDBRANCH   8   9
ENDBRANCH   4   8
TORSDOF 17
ENDMDL
MODEL       12
REMARK 921   NORMALIZED FREE ENERGY PREDICTED BY IDOCK:   -6.02 KCAL/MOL
REMARK 922        TOTAL FREE ENERGY PREDICTED BY IDOCK:  -14.98 KCAL/MOL
REMARK 923 INTER-LIGAND FREE ENERGY PREDICTED BY IDOCK:  -12.89 KCAL/MOL
REMARK 924 INTRA-LIGAND FREE ENERGY PREDICTED BY IDOCK:   -2.09 KCAL/MOL
REMARK 927      BINDING AFFINITY PREDICTED BY RF-SCORE:    0.00 PKD
ROOT
HETATM    1  N   UNK A   1     -14.137   8.453  71.012  1.00  0.00    -0.613 NA 
HETATM    2  H1  UNK A   1     -14.246   7.540  70.570  1.00  0.00     0.000 HD 
HETATM    3  H2  UNK A   1     -14.614   9.175  70.472  1.00  0.00     0.000 HD 
HETATM    4  C   UNK A   1     -12.718   8.829  71.257  1.00  0.00    -0.230 C  
HETATM    5  O   UNK A   1     -11.043   7.834  72.753  1.00  0.00    -0.342 OA 
HETATM    6  C   UNK A   1     -12.041   7.706  72.061  1.00  0.00    -0.299 C  
HETATM    7  O   UNK A   1     -12.700   6.530  71.901  1.00  0.00    -0.325 OA 
ENDROOT
BRANCH   4   8
HETATM    8  C   UNK A   1     -12.555  10.198  71.920  1.00  0.00    -0.437 C  
BRANCH   8   9
HETATM    9  C   UNK A   1     -12.520  11.385  70.955  1.00  0.00    -0.478 C  
BRANCH   9  10
HETATM   10  C   UNK A   1     -11.814  10.987  69.680  1.00  0.00    -0.342 C  
HETATM   11  N   UNK A   1     -10.467  10.733  69.831  1.00  0.00    -0.451 N  
HETATM   12  O   UNK A   1     -12.390  10.938  68.597  1.00  0.00    -0.501 OA 
HETATM   13  H   UNK A   1     -10.023  10.843  70.742  1.00  0.00     0.000 HD 
BRANCH  11  14
HETATM   14  C   UNK A   1      -9.676  10.302  68.671  1.00  0.00    -0.167 C  
BRANCH  14  15
HETATM   15  C   UNK A   1      -9.451   8.779  68.764  1.00  0.00    -0.142 C  
ATOM     16  H   GLY A   2      -9.312   8.686  66.701  1.00  0.00     0.000 HD 
ATOM     17  N   GLY A   2      -9.256   8.139  67.560  1.00  0.00    -0.136 N  
HETATM   18  O   UNK A   1      -9.465   8.174  69.825  1.00  0.00    -0.159 OA 
BRANCH  17  19
ATOM     19  CA  GLY A   2      -8.973   6.718  67.461  1.00  0.00    -0.115 C  
ATOM     20  C   GLY A   2     -10.040   5.907  66.743  1.00  0.00    -0.192 C  
ATOM     21  O   GLY A   2     -11.300   6.434  66.794  1.00  0.00    -0.257 OA 
ATOM     22  OXT GLY A   2      -9.829   4.828  66.210  1.00  0.00    -0.175 OA 
ENDBRANCH  17  19
ENDBRANCH  14  15
BRANCH  14  23
HETATM   23  C   UNK A   1      -8.341  11.064  68.610  1.00  0.00    -0.153 C  
BRANCH  23  24
HETATM   24  S   UNK A   1      -7.924  11.817  67.005  1.00  0.00    -0.151 SA 
BRANCH  24  25
HETATM   25  S   UNK A   1      -7.636  13.780  67.519  1.00  0.00    -0.149 SA 
BRANCH  25  26
HETATM   26  C   UNK A   1      -9.301  14.280  68.084  1.00  0.00    -0.206 C  
BRANCH  26  27
HETATM   27  C   UNK A   1     -10.114  15.117  67.080  1.00  0.00    -0.244 C  
BRANCH  27  28
HETATM   28  C   UNK A   1     -11.407  14.360  66.653  1.00  0.00    -0.353 C  
ATOM     29  H   GLY A   2     -10.796  14.300  64.657  1.00  0.00     0.000 HD 
ATOM     30  N   GLY A   2     -11.507  14.000  65.324  1.00  0.00    -0.313 N  
HETATM   31  O   UNK A   1     -12.248  13.979  67.466  1.00  0.00    -0.366 OA 
BRANCH  30  32
ATOM     32  CA  GLY A   2     -12.634  13.188  64.883  1.00  0.00    -0.407 C  
ATOM     33  OXT GLY A   2     -13.273  11.780  62.992  1.00  0.00    -0.474 OA 
ATOM     34  C   GLY A   2     -12.399  12.173  63.756  1.00  0.00    -0.532 C  
ATOM     35  O   GLY A   2     -11.197  11.568  63.791  1.00  0.00    -0.400 OA 
ENDBRANCH  30  32
ENDBRANCH  27  28
BRANCH  27  36
HETATM   36  N   UNK A   1     -10.219  16.555  67.413  1.00  0.00    -0.281 N  
HETATM   37  H   UNK A   1     -10.148  16.842  68.389  1.00  0.00     0.000 HD 
HETATM   38  O   UNK A   1     -10.369  17.284  65.246  1.00  0.00    -0.626 OA 
HETATM   39  C   UNK A   1     -10.410  17.518  66.449  1.00  0.00    -0.334 C  
BRANCH  39  40
HETATM   40  C   UNK A   1     -10.542  18.950  66.945  1.00  0.00    -0.495 C  
BRANCH  40  41
HETATM   41  C   UNK A   1      -9.589  19.989  66.325  1.00  0.00    -0.516 C  
BRANCH  41  42
HETATM   42  C   UNK A   1      -8.081  19.791  66.538  1.00  0.00    -0.327 C  
HETATM   43  N   UNK A   1      -7.517  18.745  65.643  1.00  0.00    -0.499 NA 
HETATM   44  C   UNK A   1      -7.820  19.349  67.966  1.00  0.00    -0.302 C  
HETATM   45  O   UNK A   1      -7.784  20.028  68.977  1.00  0.00    -0.163 OA 
HETATM   46  O   UNK A   1      -7.689  18.003  67.993  1.00  0.00    -0.236 OA 
HETATM   47  H2  UNK A   1      -7.727  18.946  64.666  1.00  0.00     0.000 HD 
HETATM   48  H1  UNK A   1      -6.516  18.613  65.785  1.00  0.00     0.000 HD 
ENDBRANCH  41  42
ENDBRANCH  40  41
ENDBRANCH  39  40
ENDBRANCH  27  36
ENDBRANCH  26  27
ENDBRANCH  25  26
ENDBRANCH  24  25
ENDBRANCH  23  24
ENDBRANCH  14  23
ENDBRANCH  11  14
ENDBRANCH   9  10
ENDBRANCH   8   9
ENDBRANCH   4   8
TORSDOF 17
ENDMDL
MODEL       13
REMARK 921   NORMALIZED FREE ENERGY PREDICTED BY IDOCK:   -5.99 KCAL/MOL
REMARK 922        TOTAL FREE ENERGY PREDICTED BY IDOCK:  -14.92 KCAL/MOL
REMARK 923 INTER-LIGAND FREE ENERGY PREDICTED BY IDOCK:  -12.60 KCAL/MOL
REMARK 924 INTRA-LIGAND FREE ENERGY PREDICTED BY IDOCK:   -2.32 KCAL/MOL
REMARK 927      BINDING AFFINITY PREDICTED BY RF-SCORE:    0.00 PKD
ROOT
HETATM    1  N   UNK A   1     -11.373   6.863  68.039  1.00  0.00    -0.535 NA 
HETATM    2  H1  UNK A   1     -11.860   5.978  67.899  1.00  0.00     0.000 HD 
HETATM    3  H2  UNK A   1     -12.021   7.586  68.353  1.00  0.00     0.000 HD 
HETATM    4  C   UNK A   1     -10.612   7.319  66.845  1.00  0.00    -0.305 C  
HETATM    5  O   UNK A   1      -8.649   6.342  65.739  1.00  0.00    -0.147 OA 
HETATM    6  C   UNK A   1      -9.662   6.193  66.404  1.00  0.00    -0.110 C  
HETATM    7  O   UNK A   1     -10.098   4.988  66.851  1.00  0.00    -0.188 OA 
ENDROOT
BRANCH   4   8
HETATM    8  C   UNK A   1      -9.881   8.647  67.057  1.00  0.00    -0.284 C  
BRANCH   8   9
HETATM    9  C   UNK A   1     -10.784   9.840  67.374  1.00  0.00    -0.314 C  
BRANCH   9  10
HETATM   10  C   UNK A   1     -10.607  10.247  68.818  1.00  0.00    -0.209 C  
HETATM   11  N   UNK A   1     -11.787  10.385  69.520  1.00  0.00    -0.463 N  
HETATM   12  O   UNK A   1      -9.504  10.475  69.306  1.00  0.00    -0.206 OA 
HETATM   13  H   UNK A   1     -12.681  10.240  69.053  1.00  0.00     0.000 HD 
BRANCH  11  14
HETATM   14  C   UNK A   1     -11.746  10.742  70.944  1.00  0.00    -0.234 C  
BRANCH  14  15
HETATM   15  C   UNK A   1     -12.114   9.498  71.777  1.00  0.00    -0.384 C  
ATOM     16  H   GLY A   2     -10.163   8.828  71.615  1.00  0.00     0.000 HD 
ATOM     17  N   GLY A   2     -11.076   8.626  72.022  1.00  0.00    -0.345 N  
HETATM   18  O   UNK A   1     -13.248   9.284  72.176  1.00  0.00    -0.397 OA 
BRANCH  17  19
ATOM     19  CA  GLY A   2     -11.226   7.433  72.837  1.00  0.00    -0.319 C  
ATOM     20  C   GLY A   2     -11.259   6.131  72.053  1.00  0.00    -0.286 C  
ATOM     21  O   GLY A   2     -11.707   6.239  70.766  1.00  0.00    -0.340 OA 
ATOM     22  OXT GLY A   2     -10.976   5.043  72.532  1.00  0.00    -0.220 OA 
ENDBRANCH  17  19
ENDBRANCH  14  15
BRANCH  14  23
HETATM   23  C   UNK A   1     -12.696  11.916  71.237  1.00  0.00    -0.298 C  
BRANCH  23  24
HETATM   24  S   UNK A   1     -12.717  13.254  70.002  1.00  0.00     0.307 SA 
BRANCH  24  25
HETATM   25  S   UNK A   1     -11.895  14.813  71.050  1.00  0.00    -0.323 SA 
BRANCH  25  26
HETATM   26  C   UNK A   1     -11.475  15.994  69.719  1.00  0.00    -0.318 C  
BRANCH  26  27
HETATM   27  C   UNK A   1     -10.145  15.722  68.992  1.00  0.00    -0.225 C  
BRANCH  27  28
HETATM   28  C   UNK A   1     -10.357  14.723  67.815  1.00  0.00    -0.244 C  
ATOM     29  H   GLY A   2     -11.384  16.155  66.694  1.00  0.00     0.000 HD 
ATOM     30  N   GLY A   2     -11.000  15.210  66.695  1.00  0.00    -0.320 N  
HETATM   31  O   UNK A   1      -9.871  13.594  67.812  1.00  0.00    -0.221 OA 
BRANCH  30  32
ATOM     32  CA  GLY A   2     -11.127  14.364  65.515  1.00  0.00    -0.326 C  
ATOM     33  OXT GLY A   2     -12.539  14.149  63.534  1.00  0.00    -0.834 OA 
ATOM     34  C   GLY A   2     -11.974  14.876  64.343  1.00  0.00    -0.394 C  
ATOM     35  O   GLY A   2     -11.886  16.203  64.129  1.00  0.00    -0.769 OA 
ENDBRANCH  30  32
ENDBRANCH  27  28
BRANCH  27  36
HETATM   36  N   UNK A   1      -9.312  16.921  68.756  1.00  0.00    -0.262 N  
HETATM   37  H   UNK A   1      -9.771  17.813  68.571  1.00  0.00     0.000 HD 
HETATM   38  O   UNK A   1      -7.303  15.883  69.125  1.00  0.00    -0.172 OA 
HETATM   39  C   UNK A   1      -7.937  16.873  68.777  1.00  0.00    -0.254 C  
BRANCH  39  40
HETATM   40  C   UNK A   1      -7.214  18.177  68.474  1.00  0.00    -0.274 C  
BRANCH  40  41
HETATM   41  C   UNK A   1      -7.989  19.480  68.745  1.00  0.00    -0.362 C  
BRANCH  41  42
HETATM   42  C   UNK A   1      -8.856  20.043  67.609  1.00  0.00    -0.328 C  
HETATM   43  N   UNK A   1     -10.307  19.807  67.836  1.00  0.00    -0.433 NA 
HETATM   44  C   UNK A   1      -8.489  19.366  66.302  1.00  0.00    -0.334 C  
HETATM   45  O   UNK A   1      -7.541  19.591  65.571  1.00  0.00    -0.425 OA 
HETATM   46  O   UNK A   1      -9.367  18.367  66.062  1.00  0.00    -0.502 OA 
HETATM   47  H2  UNK A   1     -10.603  20.173  68.740  1.00  0.00     0.000 HD 
HETATM   48  H1  UNK A   1     -10.883  20.181  67.081  1.00  0.00     0.000 HD 
ENDBRANCH  41  42
ENDBRANCH  40  41
ENDBRANCH  39  40
ENDBRANCH  27  36
ENDBRANCH  26  27
ENDBRANCH  25  26
ENDBRANCH  24  25
ENDBRANCH  23  24
ENDBRANCH  14  23
ENDBRANCH  11  14
ENDBRANCH   9  10
ENDBRANCH   8   9
ENDBRANCH   4   8
TORSDOF 17
ENDMDL
MODEL       14
REMARK 921   NORMALIZED FREE ENERGY PREDICTED BY IDOCK:   -5.99 KCAL/MOL
REMARK 922        TOTAL FREE ENERGY PREDICTED BY IDOCK:  -14.91 KCAL/MOL
REMARK 923 INTER-LIGAND FREE ENERGY PREDICTED BY IDOCK:  -12.64 KCAL/MOL
REMARK 924 INTRA-LIGAND FREE ENERGY PREDICTED BY IDOCK:   -2.28 KCAL/MOL
REMARK 927      BINDING AFFINITY PREDICTED BY RF-SCORE:    0.00 PKD
ROOT
HETATM    1  N   UNK A   1     -13.218   7.193  71.179  1.00  0.00    -0.538 NA 
HETATM    2  H1  UNK A   1     -13.647   6.302  71.428  1.00  0.00     0.000 HD 
HETATM    3  H2  UNK A   1     -13.761   7.666  70.456  1.00  0.00     0.000 HD 
HETATM    4  C   UNK A   1     -11.792   7.074  70.772  1.00  0.00    -0.355 C  
HETATM    5  O   UNK A   1      -9.815   6.415  72.073  1.00  0.00    -0.159 OA 
HETATM    6  C   UNK A   1     -11.019   6.345  71.885  1.00  0.00    -0.253 C  
HETATM    7  O   UNK A   1     -11.857   5.596  72.646  1.00  0.00    -0.283 OA 
ENDROOT
BRANCH   4   8
HETATM    8  C   UNK A   1     -11.149   8.412  70.399  1.00  0.00    -0.240 C  
BRANCH   8   9
HETATM    9  C   UNK A   1     -10.446   8.434  69.040  1.00  0.00    -0.216 C  
BRANCH   9  10
HETATM   10  C   UNK A   1      -9.963   9.833  68.737  1.00  0.00    -0.169 C  
HETATM   11  N   UNK A   1      -9.296   9.958  67.536  1.00  0.00    -0.140 N  
HETATM   12  O   UNK A   1     -10.118  10.766  69.520  1.00  0.00    -0.189 OA 
HETATM   13  H   UNK A   1      -9.142   9.139  66.948  1.00  0.00     0.000 HD 
BRANCH  11  14
HETATM   14  C   UNK A   1      -8.808  11.276  67.110  1.00  0.00    -0.153 C  
BRANCH  14  15
HETATM   15  C   UNK A   1      -9.226  11.508  65.644  1.00  0.00    -0.170 C  
ATOM     16  H   GLY A   2     -10.662  12.855  66.278  1.00  0.00     0.000 HD 
ATOM     17  N   GLY A   2     -10.235  12.427  65.458  1.00  0.00    -0.270 N  
HETATM   18  O   UNK A   1      -8.715  10.907  64.711  1.00  0.00    -0.149 OA 
BRANCH  17  19
ATOM     19  CA  GLY A   2     -10.715  12.812  64.142  1.00  0.00    -0.412 C  
ATOM     20  C   GLY A   2     -12.165  13.265  64.105  1.00  0.00    -0.401 C  
ATOM     21  O   GLY A   2     -12.962  12.744  65.086  1.00  0.00    -0.768 OA 
ATOM     22  OXT GLY A   2     -12.629  13.986  63.234  1.00  0.00    -0.801 OA 
ENDBRANCH  17  19
ENDBRANCH  14  15
BRANCH  14  23
HETATM   23  C   UNK A   1      -7.283  11.373  67.283  1.00  0.00    -0.119 C  
BRANCH  23  24
HETATM   24  S   UNK A   1      -6.684  12.728  68.342  1.00  0.00    -0.097 SA 
BRANCH  24  25
HETATM   25  S   UNK A   1      -7.466  14.376  67.407  1.00  0.00    -0.091 SA 
BRANCH  25  26
HETATM   26  C   UNK A   1      -8.795  14.878  68.557  1.00  0.00    -0.174 C  
BRANCH  26  27
HETATM   27  C   UNK A   1     -10.124  15.283  67.892  1.00  0.00    -0.233 C  
BRANCH  27  28
HETATM   28  C   UNK A   1     -11.331  14.645  68.643  1.00  0.00    -0.283 C  
ATOM     29  H   GLY A   2     -11.012  15.847  70.321  1.00  0.00     0.000 HD 
ATOM     30  N   GLY A   2     -11.622  15.150  69.895  1.00  0.00    -0.278 N  
HETATM   31  O   UNK A   1     -12.077  13.822  68.116  1.00  0.00    -0.364 OA 
BRANCH  30  32
ATOM     32  CA  GLY A   2     -12.806  14.678  70.602  1.00  0.00    -0.342 C  
ATOM     33  OXT GLY A   2     -13.391  13.557  72.691  1.00  0.00    -0.536 OA 
ATOM     34  C   GLY A   2     -12.678  14.357  72.097  1.00  0.00    -0.323 C  
ATOM     35  O   GLY A   2     -11.856  15.179  72.776  1.00  0.00    -0.391 OA 
ENDBRANCH  30  32
ENDBRANCH  27  28
BRANCH  27  36
HETATM   36  N   UNK A   1     -10.213  16.707  67.501  1.00  0.00    -0.282 N  
HETATM   37  H   UNK A   1     -10.144  17.423  68.224  1.00  0.00     0.000 HD 
HETATM   38  O   UNK A   1     -10.340  16.320  65.246  1.00  0.00    -0.552 OA 
HETATM   39  C   UNK A   1     -10.386  17.098  66.194  1.00  0.00    -0.322 C  
BRANCH  39  40
HETATM   40  C   UNK A   1     -10.502  18.594  65.948  1.00  0.00    -0.395 C  
BRANCH  40  41
HETATM   41  C   UNK A   1      -9.793  19.520  66.955  1.00  0.00    -0.476 C  
BRANCH  41  42
HETATM   42  C   UNK A   1      -8.301  19.807  66.730  1.00  0.00    -0.319 C  
HETATM   43  N   UNK A   1      -8.027  20.332  65.365  1.00  0.00    -0.447 NA 
HETATM   44  C   UNK A   1      -7.503  18.526  66.888  1.00  0.00    -0.218 C  
HETATM   45  O   UNK A   1      -7.151  17.972  67.914  1.00  0.00    -0.208 OA 
HETATM   46  O   UNK A   1      -7.271  17.999  65.664  1.00  0.00    -0.516 OA 
HETATM   47  H2  UNK A   1      -8.594  21.156  65.167  1.00  0.00     0.000 HD 
HETATM   48  H1  UNK A   1      -7.036  20.523  65.215  1.00  0.00     0.000 HD 
ENDBRANCH  41  42
ENDBRANCH  40  41
ENDBRANCH  39  40
ENDBRANCH  27  36
ENDBRANCH  26  27
ENDBRANCH  25  26
ENDBRANCH  24  25
ENDBRANCH  23  24
ENDBRANCH  14  23
ENDBRANCH  11  14
ENDBRANCH   9  10
ENDBRANCH   8   9
ENDBRANCH   4   8
TORSDOF 17
ENDMDL
MODEL       15
REMARK 921   NORMALIZED FREE ENERGY PREDICTED BY IDOCK:   -5.99 KCAL/MOL
REMARK 922        TOTAL FREE ENERGY PREDICTED BY IDOCK:  -14.91 KCAL/MOL
REMARK 923 INTER-LIGAND FREE ENERGY PREDICTED BY IDOCK:  -11.58 KCAL/MOL
REMARK 924 INTRA-LIGAND FREE ENERGY PREDICTED BY IDOCK:   -3.32 KCAL/MOL
REMARK 927      BINDING AFFINITY PREDICTED BY RF-SCORE:    0.00 PKD
ROOT
HETATM    1  N   UNK A   1     -12.398   7.121  70.512  1.00  0.00    -0.607 NA 
HETATM    2  H1  UNK A   1     -13.025   6.972  71.303  1.00  0.00     0.000 HD 
HETATM    3  H2  UNK A   1     -12.919   7.134  69.636  1.00  0.00     0.000 HD 
HETATM    4  C   UNK A   1     -11.280   6.141  70.446  1.00  0.00    -0.353 C  
HETATM    5  O   UNK A   1      -9.383   5.786  71.965  1.00  0.00    -0.150 OA 
HETATM    6  C   UNK A   1     -10.535   6.149  71.793  1.00  0.00    -0.216 C  
HETATM    7  O   UNK A   1     -11.334   6.616  72.786  1.00  0.00    -0.253 OA 
ENDROOT
BRANCH   4   8
HETATM    8  C   UNK A   1     -10.340   6.366  69.261  1.00  0.00    -0.248 C  
BRANCH   8   9
HETATM    9  C   UNK A   1     -11.014   6.347  67.888  1.00  0.00    -0.416 C  
BRANCH   9  10
HETATM   10  C   UNK A   1     -10.260   7.245  66.935  1.00  0.00    -0.269 C  
HETATM   11  N   UNK A   1     -10.601   8.579  67.020  1.00  0.00    -0.338 N  
HETATM   12  O   UNK A   1      -9.446   6.809  66.126  1.00  0.00    -0.121 OA 
HETATM   13  H   UNK A   1     -11.326   8.882  67.669  1.00  0.00     0.000 HD 
BRANCH  11  14
HETATM   14  C   UNK A   1      -9.912   9.559  66.170  1.00  0.00    -0.272 C  
BRANCH  14  15
HETATM   15  C   UNK A   1      -8.500   9.802  66.740  1.00  0.00    -0.124 C  
ATOM     16  H   GLY A   2      -9.343  10.473  68.507  1.00  0.00     0.000 HD 
ATOM     17  N   GLY A   2      -8.462  10.276  68.033  1.00  0.00    -0.117 N  
HETATM   18  O   UNK A   1      -7.484   9.610  66.090  1.00  0.00    -0.096 OA 
BRANCH  17  19
ATOM     19  CA  GLY A   2      -7.220  10.507  68.750  1.00  0.00    -0.084 C  
ATOM     20  C   GLY A   2      -6.861  11.972  68.938  1.00  0.00    -0.103 C  
ATOM     21  O   GLY A   2      -7.366  12.820  67.993  1.00  0.00    -0.093 OA 
ATOM     22  OXT GLY A   2      -6.121  12.382  69.821  1.00  0.00    -0.121 OA 
ENDBRANCH  17  19
ENDBRANCH  14  15
BRANCH  14  23
HETATM   23  C   UNK A   1     -10.717  10.866  66.085  1.00  0.00    -0.159 C  
BRANCH  23  24
HETATM   24  S   UNK A   1      -9.972  12.201  65.096  1.00  0.00    -0.189 SA 
BRANCH  24  25
HETATM   25  S   UNK A   1     -11.543  12.785  63.916  1.00  0.00    -0.491 SA 
BRANCH  25  26
HETATM   26  C   UNK A   1     -12.422  13.965  65.000  1.00  0.00    -0.419 C  
BRANCH  26  27
HETATM   27  C   UNK A   1     -11.610  14.493  66.197  1.00  0.00    -0.365 C  
BRANCH  27  28
HETATM   28  C   UNK A   1     -10.877  15.815  65.823  1.00  0.00    -0.280 C  
ATOM     29  H   GLY A   2     -10.093  16.008  67.750  1.00  0.00     0.000 HD 
ATOM     30  N   GLY A   2     -10.102  16.397  66.807  1.00  0.00    -0.276 N  
HETATM   31  O   UNK A   1     -10.871  16.267  64.679  1.00  0.00    -0.687 OA 
BRANCH  30  32
ATOM     32  CA  GLY A   2      -9.298  17.570  66.489  1.00  0.00    -0.265 C  
ATOM     33  OXT GLY A   2      -9.606  19.919  65.892  1.00  0.00    -0.380 OA 
ATOM     34  C   GLY A   2      -9.973  18.948  66.544  1.00  0.00    -0.384 C  
ATOM     35  O   GLY A   2     -10.881  19.086  67.529  1.00  0.00    -0.463 OA 
ENDBRANCH  30  32
ENDBRANCH  27  28
BRANCH  27  36
HETATM   36  N   UNK A   1     -12.306  14.419  67.500  1.00  0.00    -0.600 N  
HETATM   37  H   UNK A   1     -13.252  14.793  67.576  1.00  0.00     0.000 HD 
HETATM   38  O   UNK A   1     -10.649  13.268  68.584  1.00  0.00    -0.253 OA 
HETATM   39  C   UNK A   1     -11.721  13.863  68.613  1.00  0.00    -0.361 C  
BRANCH  39  40
HETATM   40  C   UNK A   1     -12.542  13.896  69.893  1.00  0.00    -0.172 C  
BRANCH  40  41
HETATM   41  C   UNK A   1     -12.177  12.865  70.979  1.00  0.00    -0.211 C  
BRANCH  41  42
HETATM   42  C   UNK A   1     -12.880  11.501  70.930  1.00  0.00    -0.201 C  
HETATM   43  N   UNK A   1     -13.423  11.097  72.255  1.00  0.00    -0.527 NA 
HETATM   44  C   UNK A   1     -11.893  10.430  70.503  1.00  0.00    -0.337 C  
HETATM   45  O   UNK A   1     -11.496  10.167  69.382  1.00  0.00    -0.218 OA 
HETATM   46  O   UNK A   1     -11.422   9.803  71.604  1.00  0.00    -0.364 OA 
HETATM   47  H2  UNK A   1     -14.039  11.816  72.634  1.00  0.00     0.000 HD 
HETATM   48  H1  UNK A   1     -13.890  10.191  72.223  1.00  0.00     0.000 HD 
ENDBRANCH  41  42
ENDBRANCH  40  41
ENDBRANCH  39  40
ENDBRANCH  27  36
ENDBRANCH  26  27
ENDBRANCH  25  26
ENDBRANCH  24  25
ENDBRANCH  23  24
ENDBRANCH  14  23
ENDBRANCH  11  14
ENDBRANCH   9  10
ENDBRANCH   8   9
ENDBRANCH   4   8
TORSDOF 17
ENDMDL
MODEL       16
REMARK 921   NORMALIZED FREE ENERGY PREDICTED BY IDOCK:   -5.94 KCAL/MOL
REMARK 922        TOTAL FREE ENERGY PREDICTED BY IDOCK:  -14.82 KCAL/MOL
REMARK 923 INTER-LIGAND FREE ENERGY PREDICTED BY IDOCK:  -12.56 KCAL/MOL
REMARK 924 INTRA-LIGAND FREE ENERGY PREDICTED BY IDOCK:   -2.26 KCAL/MOL
REMARK 927      BINDING AFFINITY PREDICTED BY RF-SCORE:    0.00 PKD
ROOT
HETATM    1  N   UNK A   1     -12.377   6.109  72.358  1.00  0.00    -0.535 NA 
HETATM    2  H1  UNK A   1     -12.332   5.096  72.468  1.00  0.00     0.000 HD 
HETATM    3  H2  UNK A   1     -12.838   6.357  71.482  1.00  0.00     0.000 HD 
HETATM    4  C   UNK A   1     -11.052   6.778  72.463  1.00  0.00    -0.264 C  
HETATM    5  O   UNK A   1      -9.523   6.990  74.374  1.00  0.00    -0.242 OA 
HETATM    6  C   UNK A   1     -10.392   6.363  73.790  1.00  0.00    -0.311 C  
HETATM    7  O   UNK A   1     -10.905   5.189  74.239  1.00  0.00    -0.309 OA 
ENDROOT
BRANCH   4   8
HETATM    8  C   UNK A   1     -11.119   8.297  72.298  1.00  0.00    -0.429 C  
BRANCH   8   9
HETATM    9  C   UNK A   1     -12.518   8.901  72.435  1.00  0.00    -0.405 C  
BRANCH   9  10
HETATM   10  C   UNK A   1     -12.822   9.767  71.234  1.00  0.00    -0.377 C  
HETATM   11  N   UNK A   1     -11.706  10.241  70.577  1.00  0.00    -0.306 N  
HETATM   12  O   UNK A   1     -13.969  10.053  70.905  1.00  0.00     0.017 OA 
HETATM   13  H   UNK A   1     -10.774  10.021  70.925  1.00  0.00     0.000 HD 
BRANCH  11  14
HETATM   14  C   UNK A   1     -11.870  11.065  69.372  1.00  0.00    -0.335 C  
BRANCH  14  15
HETATM   15  C   UNK A   1     -11.401  10.250  68.149  1.00  0.00    -0.161 C  
ATOM     16  H   GLY A   2     -10.689   8.779  69.417  1.00  0.00     0.000 HD 
ATOM     17  N   GLY A   2     -10.814   9.038  68.439  1.00  0.00    -0.081 N  
HETATM   18  O   UNK A   1     -11.519  10.655  67.003  1.00  0.00    -0.304 OA 
BRANCH  17  19
ATOM     19  CA  GLY A   2     -10.365   8.115  67.412  1.00  0.00    -0.281 C  
ATOM     20  C   GLY A   2     -10.795   6.673  67.625  1.00  0.00    -0.315 C  
ATOM     21  O   GLY A   2     -11.015   6.319  68.927  1.00  0.00    -0.306 OA 
ATOM     22  OXT GLY A   2     -10.880   5.850  66.725  1.00  0.00    -0.308 OA 
ENDBRANCH  17  19
ENDBRANCH  14  15
BRANCH  14  23
HETATM   23  C   UNK A   1     -11.087  12.382  69.504  1.00  0.00    -0.016 C  
BRANCH  23  24
HETATM   24  S   UNK A   1     -11.935  13.729  70.389  1.00  0.00    -0.283 SA 
BRANCH  24  25
HETATM   25  S   UNK A   1     -12.007  15.198  68.961  1.00  0.00    -0.222 SA 
BRANCH  25  26
HETATM   26  C   UNK A   1     -10.897  14.535  67.668  1.00  0.00    -0.273 C  
BRANCH  26  27
HETATM   27  C   UNK A   1     -10.949  15.268  66.315  1.00  0.00    -0.300 C  
BRANCH  27  28
HETATM   28  C   UNK A   1      -9.956  16.468  66.302  1.00  0.00    -0.329 C  
ATOM     29  H   GLY A   2     -10.811  17.284  68.024  1.00  0.00     0.000 HD 
ATOM     30  N   GLY A   2     -10.059  17.371  67.340  1.00  0.00    -0.310 N  
HETATM   31  O   UNK A   1      -9.037  16.556  65.490  1.00  0.00    -0.404 OA 
BRANCH  30  32
ATOM     32  CA  GLY A   2      -9.087  18.452  67.452  1.00  0.00    -0.264 C  
ATOM     33  OXT GLY A   2      -7.705  19.530  69.152  1.00  0.00    -0.355 OA 
ATOM     34  C   GLY A   2      -8.201  18.503  68.704  1.00  0.00    -0.308 C  
ATOM     35  O   GLY A   2      -7.821  17.298  69.169  1.00  0.00    -0.186 OA 
ENDBRANCH  30  32
ENDBRANCH  27  28
BRANCH  27  36
HETATM   36  N   UNK A   1     -10.998  14.381  65.131  1.00  0.00    -0.350 N  
HETATM   37  H   UNK A   1     -10.122  14.088  64.698  1.00  0.00     0.000 HD 
HETATM   38  O   UNK A   1     -13.274  14.125  65.126  1.00  0.00    -0.743 OA 
HETATM   39  C   UNK A   1     -12.185  13.940  64.595  1.00  0.00    -0.419 C  
BRANCH  39  40
HETATM   40  C   UNK A   1     -12.079  13.069  63.352  1.00  0.00    -0.591 C  
BRANCH  40  41
HETATM   41  C   UNK A   1     -11.525  11.645  63.548  1.00  0.00    -0.427 C  
BRANCH  41  42
HETATM   42  C   UNK A   1     -10.026  11.423  63.299  1.00  0.00    -0.401 C  
HETATM   43  N   UNK A   1      -9.768  10.276  62.388  1.00  0.00    -0.700 NA 
HETATM   44  C   UNK A   1      -9.328  11.121  64.613  1.00  0.00    -0.175 C  
HETATM   45  O   UNK A   1      -8.979  11.898  65.483  1.00  0.00    -0.020 OA 
HETATM   46  O   UNK A   1      -9.191   9.782  64.739  1.00  0.00    -0.234 OA 
HETATM   47  H2  UNK A   1     -10.274  10.382  61.510  1.00  0.00     0.000 HD 
HETATM   48  H1  UNK A   1      -8.772  10.129  62.224  1.00  0.00     0.000 HD 
ENDBRANCH  41  42
ENDBRANCH  40  41
ENDBRANCH  39  40
ENDBRANCH  27  36
ENDBRANCH  26  27
ENDBRANCH  25  26
ENDBRANCH  24  25
ENDBRANCH  23  24
ENDBRANCH  14  23
ENDBRANCH  11  14
ENDBRANCH   9  10
ENDBRANCH   8   9
ENDBRANCH   4   8
TORSDOF 17
ENDMDL
MODEL       17
REMARK 921   NORMALIZED FREE ENERGY PREDICTED BY IDOCK:   -5.92 KCAL/MOL
REMARK 922        TOTAL FREE ENERGY PREDICTED BY IDOCK:  -14.78 KCAL/MOL
REMARK 923 INTER-LIGAND FREE ENERGY PREDICTED BY IDOCK:  -11.66 KCAL/MOL
REMARK 924 INTRA-LIGAND FREE ENERGY PREDICTED BY IDOCK:   -3.12 KCAL/MOL
REMARK 927      BINDING AFFINITY PREDICTED BY RF-SCORE:    0.00 PKD
ROOT
HETATM    1  N   UNK A   1     -12.192  14.554  63.608  1.00  0.00    -1.062 NA 
HETATM    2  H1  UNK A   1     -12.937  15.227  63.426  1.00  0.00     0.000 HD 
HETATM    3  H2  UNK A   1     -12.563  13.604  63.627  1.00  0.00     0.000 HD 
HETATM    4  C   UNK A   1     -11.417  14.843  64.844  1.00  0.00    -0.407 C  
HETATM    5  O   UNK A   1      -9.935  16.724  65.390  1.00  0.00    -0.572 OA 
HETATM    6  C   UNK A   1     -10.894  16.288  64.773  1.00  0.00    -0.224 C  
HETATM    7  O   UNK A   1     -11.645  17.035  63.924  1.00  0.00    -0.706 OA 
ENDROOT
BRANCH   4   8
HETATM    8  C   UNK A   1     -10.301  13.833  65.116  1.00  0.00    -0.391 C  
BRANCH   8   9
HETATM    9  C   UNK A   1     -10.326  12.587  64.229  1.00  0.00    -0.396 C  
BRANCH   9  10
HETATM   10  C   UNK A   1     -10.538  11.357  65.080  1.00  0.00    -0.299 C  
HETATM   11  N   UNK A   1     -10.570  11.601  66.437  1.00  0.00    -0.248 N  
HETATM   12  O   UNK A   1     -10.630  10.232  64.597  1.00  0.00    -0.066 OA 
HETATM   13  H   UNK A   1     -10.431  12.547  66.791  1.00  0.00     0.000 HD 
BRANCH  11  14
HETATM   14  C   UNK A   1     -10.806  10.490  67.369  1.00  0.00    -0.291 C  
BRANCH  14  15
HETATM   15  C   UNK A   1     -10.933  11.061  68.796  1.00  0.00    -0.221 C  
ATOM     16  H   GLY A   2     -12.004  12.665  68.046  1.00  0.00     0.000 HD 
ATOM     17  N   GLY A   2     -11.649  12.234  68.898  1.00  0.00    -0.293 N  
HETATM   18  O   UNK A   1     -10.421  10.527  69.767  1.00  0.00    -0.244 OA 
BRANCH  17  19
ATOM     19  CA  GLY A   2     -11.918  12.882  70.170  1.00  0.00    -0.301 C  
ATOM     20  C   GLY A   2     -12.430  14.309  70.058  1.00  0.00    -0.300 C  
ATOM     21  O   GLY A   2     -12.050  14.975  68.926  1.00  0.00    -0.271 OA 
ATOM     22  OXT GLY A   2     -13.078  14.868  70.930  1.00  0.00    -0.359 OA 
ENDBRANCH  17  19
ENDBRANCH  14  15
BRANCH  14  23
HETATM   23  C   UNK A   1      -9.673   9.454  67.276  1.00  0.00    -0.165 C  
BRANCH  23  24
HETATM   24  S   UNK A   1     -10.192   7.722  67.060  1.00  0.00    -0.323 SA 
BRANCH  24  25
HETATM   25  S   UNK A   1      -9.405   6.830  68.730  1.00  0.00    -0.130 SA 
BRANCH  25  26
HETATM   26  C   UNK A   1      -7.883   7.804  69.007  1.00  0.00    -0.118 C  
BRANCH  26  27
HETATM   27  C   UNK A   1      -7.791   8.509  70.373  1.00  0.00    -0.089 C  
BRANCH  27  28
HETATM   28  C   UNK A   1      -6.972   9.829  70.255  1.00  0.00    -0.135 C  
ATOM     29  H   GLY A   2      -7.692  10.185  68.327  1.00  0.00     0.000 HD 
ATOM     30  N   GLY A   2      -7.128  10.556  69.092  1.00  0.00    -0.079 N  
HETATM   31  O   UNK A   1      -6.313  10.283  71.189  1.00  0.00    -0.329 OA 
BRANCH  30  32
ATOM     32  CA  GLY A   2      -6.482  11.857  68.966  1.00  0.00    -0.086 C  
ATOM     33  OXT GLY A   2      -5.753  13.399  67.219  1.00  0.00    -0.353 OA 
ATOM     34  C   GLY A   2      -6.577  12.586  67.618  1.00  0.00    -0.136 C  
ATOM     35  O   GLY A   2      -7.754  12.430  66.982  1.00  0.00    -0.144 OA 
ENDBRANCH  30  32
ENDBRANCH  27  28
BRANCH  27  36
HETATM   36  N   UNK A   1      -9.051   8.529  71.147  1.00  0.00    -0.172 N  
HETATM   37  H   UNK A   1      -9.837   9.077  70.795  1.00  0.00     0.000 HD 
HETATM   38  O   UNK A   1      -8.363   7.046  72.751  1.00  0.00    -0.107 OA 
HETATM   39  C   UNK A   1      -9.199   7.835  72.325  1.00  0.00    -0.154 C  
BRANCH  39  40
HETATM   40  C   UNK A   1     -10.538   7.986  73.031  1.00  0.00    -0.332 C  
BRANCH  40  41
HETATM   41  C   UNK A   1     -11.686   7.082  72.543  1.00  0.00    -0.202 C  
BRANCH  41  42
HETATM   42  C   UNK A   1     -12.739   7.707  71.616  1.00  0.00    -0.343 C  
HETATM   43  N   UNK A   1     -12.153   8.183  70.335  1.00  0.00    -0.436 NA 
HETATM   44  C   UNK A   1     -13.371   8.908  72.295  1.00  0.00    -0.449 C  
HETATM   45  O   UNK A   1     -14.239   8.927  73.150  1.00  0.00    -0.330 OA 
HETATM   46  O   UNK A   1     -12.763  10.032  71.854  1.00  0.00    -0.395 OA 
HETATM   47  H2  UNK A   1     -11.645   7.435  69.863  1.00  0.00     0.000 HD 
HETATM   48  H1  UNK A   1     -12.853   8.598  69.719  1.00  0.00     0.000 HD 
ENDBRANCH  41  42
ENDBRANCH  40  41
ENDBRANCH  39  40
ENDBRANCH  27  36
ENDBRANCH  26  27
ENDBRANCH  25  26
ENDBRANCH  24  25
ENDBRANCH  23  24
ENDBRANCH  14  23
ENDBRANCH  11  14
ENDBRANCH   9  10
ENDBRANCH   8   9
ENDBRANCH   4   8
TORSDOF 17
ENDMDL
MODEL       18
REMARK 921   NORMALIZED FREE ENERGY PREDICTED BY IDOCK:   -5.87 KCAL/MOL
REMARK 922        TOTAL FREE ENERGY PREDICTED BY IDOCK:  -14.67 KCAL/MOL
REMARK 923 INTER-LIGAND FREE ENERGY PREDICTED BY IDOCK:  -12.32 KCAL/MOL
REMARK 924 INTRA-LIGAND FREE ENERGY PREDICTED BY IDOCK:   -2.35 KCAL/MOL
REMARK 927      BINDING AFFINITY PREDICTED BY RF-SCORE:    0.00 PKD
ROOT
HETATM    1  N   UNK A   1     -10.275  19.455  68.599  1.00  0.00    -0.508 NA 
HETATM    2  H1  UNK A   1      -9.644  20.196  68.296  1.00  0.00     0.000 HD 
HETATM    3  H2  UNK A   1     -10.162  19.269  69.596  1.00  0.00     0.000 HD 
HETATM    4  C   UNK A   1     -10.139  18.200  67.812  1.00  0.00    -0.362 C  
HETATM    5  O   UNK A   1     -10.633  17.742  65.449  1.00  0.00    -0.659 OA 
HETATM    6  C   UNK A   1     -10.302  18.533  66.318  1.00  0.00    -0.427 C  
HETATM    7  O   UNK A   1     -10.027  19.840  66.080  1.00  0.00    -0.422 OA 
ENDROOT
BRANCH   4   8
HETATM    8  C   UNK A   1     -11.087  17.088  68.266  1.00  0.00    -0.172 C  
BRANCH   8   9
HETATM    9  C   UNK A   1     -10.631  16.315  69.505  1.00  0.00    -0.314 C  
BRANCH   9  10
HETATM   10  C   UNK A   1      -9.996  15.009  69.089  1.00  0.00    -0.237 C  
HETATM   11  N   UNK A   1     -10.891  13.980  68.885  1.00  0.00    -0.255 N  
HETATM   12  O   UNK A   1      -8.780  14.873  68.985  1.00  0.00    -0.191 OA 
HETATM   13  H   UNK A   1     -11.888  14.129  69.041  1.00  0.00     0.000 HD 
BRANCH  11  14
HETATM   14  C   UNK A   1     -10.400  12.668  68.442  1.00  0.00    -0.235 C  
BRANCH  14  15
HETATM   15  C   UNK A   1     -10.426  12.625  66.901  1.00  0.00    -0.233 C  
ATOM     16  H   GLY A   2     -12.388  11.971  66.965  1.00  0.00     0.000 HD 
ATOM     17  N   GLY A   2     -11.625  12.239  66.344  1.00  0.00    -0.384 N  
HETATM   18  O   UNK A   1      -9.450  12.893  66.218  1.00  0.00    -0.254 OA 
BRANCH  17  19
ATOM     19  CA  GLY A   2     -11.849  12.197  64.909  1.00  0.00    -0.302 C  
ATOM     20  C   GLY A   2     -12.504  13.442  64.334  1.00  0.00    -0.277 C  
ATOM     21  O   GLY A   2     -13.285  14.145  65.208  1.00  0.00    -0.760 OA 
ATOM     22  OXT GLY A   2     -12.412  13.778  63.162  1.00  0.00    -0.786 OA 
ENDBRANCH  17  19
ENDBRANCH  14  15
BRANCH  14  23
HETATM   23  C   UNK A   1     -11.248  11.537  69.051  1.00  0.00    -0.262 C  
BRANCH  23  24
HETATM   24  S   UNK A   1     -12.286  11.996  70.475  1.00  0.00    -0.214 SA 
BRANCH  24  25
HETATM   25  S   UNK A   1     -12.991  10.172  71.091  1.00  0.00    -0.396 SA 
BRANCH  25  26
HETATM   26  C   UNK A   1     -11.462   9.330  71.634  1.00  0.00    -0.398 C  
BRANCH  26  27
HETATM   27  C   UNK A   1     -11.170   7.984  70.945  1.00  0.00    -0.266 C  
BRANCH  27  28
HETATM   28  C   UNK A   1     -11.843   6.813  71.722  1.00  0.00    -0.330 C  
ATOM     29  H   GLY A   2      -9.990   5.993  72.229  1.00  0.00     0.000 HD 
ATOM     30  N   GLY A   2     -11.000   5.919  72.351  1.00  0.00    -0.249 N  
HETATM   31  O   UNK A   1     -13.060   6.742  71.887  1.00  0.00    -0.308 OA 
BRANCH  30  32
ATOM     32  CA  GLY A   2     -11.564   4.869  73.190  1.00  0.00    -0.213 C  
ATOM     33  OXT GLY A   2     -11.310   2.470  73.574  1.00  0.00    -0.216 OA 
ATOM     34  C   GLY A   2     -10.790   3.549  73.318  1.00  0.00    -0.189 C  
ATOM     35  O   GLY A   2      -9.451   3.688  73.341  1.00  0.00    -0.103 OA 
ENDBRANCH  30  32
ENDBRANCH  27  28
BRANCH  27  36
HETATM   36  N   UNK A   1     -11.282   8.005  69.470  1.00  0.00    -0.441 N  
HETATM   37  H   UNK A   1     -12.183   8.225  69.046  1.00  0.00     0.000 HD 
HETATM   38  O   UNK A   1      -9.063   7.601  69.065  1.00  0.00    -0.144 OA 
HETATM   39  C   UNK A   1     -10.210   7.738  68.651  1.00  0.00    -0.201 C  
BRANCH  39  40
HETATM   40  C   UNK A   1     -10.485   7.755  67.155  1.00  0.00    -0.413 C  
BRANCH  40  41
HETATM   41  C   UNK A   1     -10.135   9.051  66.399  1.00  0.00    -0.351 C  
BRANCH  41  42
HETATM   42  C   UNK A   1      -8.950   9.009  65.424  1.00  0.00    -0.200 C  
HETATM   43  N   UNK A   1      -8.736   7.652  64.853  1.00  0.00    -0.366 NA 
HETATM   44  C   UNK A   1      -7.675   9.398  66.150  1.00  0.00    -0.100 C  
HETATM   45  O   UNK A   1      -7.280  10.512  66.445  1.00  0.00    -0.114 OA 
HETATM   46  O   UNK A   1      -7.017   8.275  66.515  1.00  0.00    -0.066 OA 
HETATM   47  H2  UNK A   1      -9.586   7.299  64.415  1.00  0.00     0.000 HD 
HETATM   48  H1  UNK A   1      -7.948   7.624  64.206  1.00  0.00     0.000 HD 
ENDBRANCH  41  42
ENDBRANCH  40  41
ENDBRANCH  39  40
ENDBRANCH  27  36
ENDBRANCH  26  27
ENDBRANCH  25  26
ENDBRANCH  24  25
ENDBRANCH  23  24
ENDBRANCH  14  23
ENDBRANCH  11  14
ENDBRANCH   9  10
ENDBRANCH   8   9
ENDBRANCH   4   8
TORSDOF 17
ENDMDL
MODEL       19
REMARK 921   NORMALIZED FREE ENERGY PREDICTED BY IDOCK:   -5.84 KCAL/MOL
REMARK 922        TOTAL FREE ENERGY PREDICTED BY IDOCK:  -14.61 KCAL/MOL
REMARK 923 INTER-LIGAND FREE ENERGY PREDICTED BY IDOCK:  -12.59 KCAL/MOL
REMARK 924 INTRA-LIGAND FREE ENERGY PREDICTED BY IDOCK:   -2.02 KCAL/MOL
REMARK 927      BINDING AFFINITY PREDICTED BY RF-SCORE:    0.00 PKD
ROOT
HETATM    1  N   UNK A   1     -11.323   4.274  65.108  1.00  0.00    -0.997 NA 
HETATM    2  H1  UNK A   1     -11.434   3.986  64.136  1.00  0.00     0.000 HD 
HETATM    3  H2  UNK A   1     -11.888   5.100  65.306  1.00  0.00     0.000 HD 
HETATM    4  C   UNK A   1      -9.906   4.497  65.504  1.00  0.00    -0.208 C  
HETATM    5  O   UNK A   1      -8.038   2.913  65.693  1.00  0.00    -0.085 OA 
HETATM    6  C   UNK A   1      -9.095   3.232  65.172  1.00  0.00    -0.146 C  
HETATM    7  O   UNK A   1      -9.710   2.500  64.209  1.00  0.00    -0.144 OA 
ENDROOT
BRANCH   4   8
HETATM    8  C   UNK A   1      -9.740   4.928  66.962  1.00  0.00    -0.193 C  
BRANCH   8   9
HETATM    9  C   UNK A   1     -10.769   5.947  67.457  1.00  0.00    -0.359 C  
BRANCH   9  10
HETATM   10  C   UNK A   1     -10.062   7.173  67.987  1.00  0.00    -0.169 C  
HETATM   11  N   UNK A   1     -10.892   8.089  68.598  1.00  0.00    -0.417 N  
HETATM   12  O   UNK A   1      -8.855   7.348  67.844  1.00  0.00    -0.132 OA 
HETATM   13  H   UNK A   1     -11.896   7.923  68.640  1.00  0.00     0.000 HD 
BRANCH  11  14
HETATM   14  C   UNK A   1     -10.319   9.307  69.187  1.00  0.00    -0.211 C  
BRANCH  14  15
HETATM   15  C   UNK A   1     -10.974   9.546  70.562  1.00  0.00    -0.288 C  
ATOM     16  H   GLY A   2     -12.628  10.356  69.618  1.00  0.00     0.000 HD 
ATOM     17  N   GLY A   2     -12.234  10.103  70.524  1.00  0.00    -0.278 N  
HETATM   18  O   UNK A   1     -10.413   9.282  71.614  1.00  0.00    -0.344 OA 
BRANCH  17  19
ATOM     19  CA  GLY A   2     -13.023  10.345  71.718  1.00  0.00    -0.475 C  
ATOM     20  C   GLY A   2     -13.868   9.164  72.170  1.00  0.00    -0.446 C  
ATOM     21  O   GLY A   2     -14.229   8.296  71.178  1.00  0.00    -0.260 OA 
ATOM     22  OXT GLY A   2     -14.265   9.013  73.315  1.00  0.00    -0.244 OA 
ENDBRANCH  17  19
ENDBRANCH  14  15
BRANCH  14  23
HETATM   23  C   UNK A   1     -10.521  10.510  68.250  1.00  0.00    -0.183 C  
BRANCH  23  24
HETATM   24  S   UNK A   1      -9.076  10.999  67.255  1.00  0.00    -0.138 SA 
BRANCH  24  25
HETATM   25  S   UNK A   1      -8.589  12.813  68.074  1.00  0.00    -0.192 SA 
BRANCH  25  26
HETATM   26  C   UNK A   1      -9.873  13.910  67.375  1.00  0.00    -0.237 C  
BRANCH  26  27
HETATM   27  C   UNK A   1      -9.428  14.762  66.171  1.00  0.00    -0.292 C  
BRANCH  27  28
HETATM   28  C   UNK A   1     -10.351  14.501  64.943  1.00  0.00    -0.371 C  
ATOM     29  H   GLY A   2      -9.857  12.471  64.916  1.00  0.00     0.000 HD 
ATOM     30  N   GLY A   2     -10.440  13.197  64.499  1.00  0.00    -0.399 N  
HETATM   31  O   UNK A   1     -11.070  15.374  64.459  1.00  0.00    -0.357 OA 
BRANCH  30  32
ATOM     32  CA  GLY A   2     -11.374  12.865  63.430  1.00  0.00    -0.259 C  
ATOM     33  OXT GLY A   2     -13.406  11.555  63.087  1.00  0.00    -0.270 OA 
ATOM     34  C   GLY A   2     -12.740  12.281  63.815  1.00  0.00    -0.405 C  
ATOM     35  O   GLY A   2     -13.269  12.796  64.941  1.00  0.00    -0.808 OA 
ENDBRANCH  30  32
ENDBRANCH  27  28
BRANCH  27  36
HETATM   36  N   UNK A   1      -9.072  16.160  66.499  1.00  0.00    -0.250 N  
HETATM   37  H   UNK A   1      -9.806  16.867  66.508  1.00  0.00     0.000 HD 
HETATM   38  O   UNK A   1      -6.863  15.739  66.938  1.00  0.00    -0.248 OA 
HETATM   39  C   UNK A   1      -7.782  16.538  66.791  1.00  0.00    -0.259 C  
BRANCH  39  40
HETATM   40  C   UNK A   1      -7.560  18.017  67.066  1.00  0.00    -0.237 C  
BRANCH  40  41
HETATM   41  C   UNK A   1      -7.961  18.531  68.462  1.00  0.00    -0.346 C  
BRANCH  41  42
HETATM   42  C   UNK A   1      -9.443  18.853  68.704  1.00  0.00    -0.378 C  
HETATM   43  N   UNK A   1     -10.248  17.633  68.976  1.00  0.00    -0.358 NA 
HETATM   44  C   UNK A   1     -10.031  19.516  67.472  1.00  0.00    -0.380 C  
HETATM   45  O   UNK A   1      -9.929  20.675  67.112  1.00  0.00    -0.452 OA 
HETATM   46  O   UNK A   1     -10.672  18.581  66.734  1.00  0.00    -0.372 OA 
HETATM   47  H2  UNK A   1      -9.856  17.098  69.750  1.00  0.00     0.000 HD 
HETATM   48  H1  UNK A   1     -11.233  17.846  69.137  1.00  0.00     0.000 HD 
ENDBRANCH  41  42
ENDBRANCH  40  41
ENDBRANCH  39  40
ENDBRANCH  27  36
ENDBRANCH  26  27
ENDBRANCH  25  26
ENDBRANCH  24  25
ENDBRANCH  23  24
ENDBRANCH  14  23
ENDBRANCH  11  14
ENDBRANCH   9  10
ENDBRANCH   8   9
ENDBRANCH   4   8
TORSDOF 17
ENDMDL
MODEL       20
REMARK 921   NORMALIZED FREE ENERGY PREDICTED BY IDOCK:   -5.83 KCAL/MOL
REMARK 922        TOTAL FREE ENERGY PREDICTED BY IDOCK:  -14.60 KCAL/MOL
REMARK 923 INTER-LIGAND FREE ENERGY PREDICTED BY IDOCK:  -12.46 KCAL/MOL
REMARK 924 INTRA-LIGAND FREE ENERGY PREDICTED BY IDOCK:   -2.14 KCAL/MOL
REMARK 927      BINDING AFFINITY PREDICTED BY RF-SCORE:    0.00 PKD
ROOT
HETATM    1  N   UNK A   1     -11.365  13.910  70.280  1.00  0.00    -0.495 NA 
HETATM    2  H1  UNK A   1     -11.253  14.883  69.995  1.00  0.00     0.000 HD 
HETATM    3  H2  UNK A   1     -11.240  13.285  69.484  1.00  0.00     0.000 HD 
HETATM    4  C   UNK A   1     -12.656  13.637  70.966  1.00  0.00    -0.363 C  
HETATM    5  O   UNK A   1     -13.509  14.433  73.128  1.00  0.00    -0.625 OA 
HETATM    6  C   UNK A   1     -12.804  14.612  72.147  1.00  0.00    -0.333 C  
HETATM    7  O   UNK A   1     -12.041  15.719  71.961  1.00  0.00    -0.381 OA 
ENDROOT
BRANCH   4   8
HETATM    8  C   UNK A   1     -12.825  12.177  71.393  1.00  0.00    -0.378 C  
BRANCH   8   9
HETATM    9  C   UNK A   1     -12.068  11.161  70.536  1.00  0.00    -0.474 C  
BRANCH   9  10
HETATM   10  C   UNK A   1     -12.543   9.764  70.857  1.00  0.00    -0.263 C  
HETATM   11  N   UNK A   1     -11.612   8.776  70.616  1.00  0.00    -0.388 N  
HETATM   12  O   UNK A   1     -13.680   9.534  71.260  1.00  0.00    -0.336 OA 
HETATM   13  H   UNK A   1     -10.701   9.014  70.226  1.00  0.00     0.000 HD 
BRANCH  11  14
HETATM   14  C   UNK A   1     -11.942   7.378  70.923  1.00  0.00    -0.277 C  
BRANCH  14  15
HETATM   15  C   UNK A   1     -11.386   7.034  72.319  1.00  0.00    -0.268 C  
ATOM     16  H   GLY A   2     -11.627   5.021  71.906  1.00  0.00     0.000 HD 
ATOM     17  N   GLY A   2     -11.293   5.688  72.600  1.00  0.00    -0.300 N  
HETATM   18  O   UNK A   1     -11.068   7.889  73.131  1.00  0.00    -0.382 OA 
BRANCH  17  19
ATOM     19  CA  GLY A   2     -10.738   5.181  73.843  1.00  0.00    -0.290 C  
ATOM     20  C   GLY A   2      -9.755   4.034  73.676  1.00  0.00    -0.109 C  
ATOM     21  O   GLY A   2      -9.932   3.276  72.552  1.00  0.00    -0.141 OA 
ATOM     22  OXT GLY A   2      -8.902   3.746  74.502  1.00  0.00    -0.090 OA 
ENDBRANCH  17  19
ENDBRANCH  14  15
BRANCH  14  23
HETATM   23  C   UNK A   1     -11.377   6.437  69.845  1.00  0.00    -0.434 C  
BRANCH  23  24
HETATM   24  S   UNK A   1      -9.927   7.051  68.930  1.00  0.00    -0.165 SA 
BRANCH  24  25
HETATM   25  S   UNK A   1     -10.695   7.320  67.048  1.00  0.00    -0.244 SA 
BRANCH  25  26
HETATM   26  C   UNK A   1      -9.547   8.552  66.336  1.00  0.00    -0.245 C  
BRANCH  26  27
HETATM   27  C   UNK A   1      -9.764  10.003  66.803  1.00  0.00    -0.189 C  
BRANCH  27  28
HETATM   28  C   UNK A   1      -8.417  10.643  67.253  1.00  0.00    -0.126 C  
ATOM     29  H   GLY A   2      -9.295  12.529  67.442  1.00  0.00     0.000 HD 
ATOM     30  N   GLY A   2      -8.443  11.984  67.578  1.00  0.00    -0.156 N  
HETATM   31  O   UNK A   1      -7.399   9.978  67.439  1.00  0.00    -0.089 OA 
BRANCH  30  32
ATOM     32  CA  GLY A   2      -7.245  12.617  68.117  1.00  0.00    -0.109 C  
ATOM     33  OXT GLY A   2      -5.692  14.417  67.558  1.00  0.00    -0.345 OA 
ATOM     34  C   GLY A   2      -6.840  13.991  67.566  1.00  0.00    -0.131 C  
ATOM     35  O   GLY A   2      -7.875  14.803  67.278  1.00  0.00    -0.188 OA 
ENDBRANCH  30  32
ENDBRANCH  27  28
BRANCH  27  36
HETATM   36  N   UNK A   1     -10.671  10.801  65.949  1.00  0.00    -0.132 N  
HETATM   37  H   UNK A   1     -11.528  11.177  66.354  1.00  0.00     0.000 HD 
HETATM   38  O   UNK A   1      -9.332  10.762  64.090  1.00  0.00    -0.219 OA 
HETATM   39  C   UNK A   1     -10.397  11.053  64.625  1.00  0.00    -0.345 C  
BRANCH  39  40
HETATM   40  C   UNK A   1     -11.442  11.851  63.861  1.00  0.00    -0.511 C  
BRANCH  40  41
HETATM   41  C   UNK A   1     -12.584  12.470  64.689  1.00  0.00    -0.507 C  
BRANCH  41  42
HETATM   42  C   UNK A   1     -12.474  13.958  65.054  1.00  0.00    -0.419 C  
HETATM   43  N   UNK A   1     -12.260  14.818  63.860  1.00  0.00    -1.018 NA 
HETATM   44  C   UNK A   1     -11.292  14.172  65.981  1.00  0.00    -0.330 C  
HETATM   45  O   UNK A   1     -11.219  13.963  67.178  1.00  0.00    -0.296 OA 
HETATM   46  O   UNK A   1     -10.232  14.588  65.252  1.00  0.00    -0.367 OA 
HETATM   47  H2  UNK A   1     -12.985  14.663  63.160  1.00  0.00     0.000 HD 
HETATM   48  H1  UNK A   1     -12.187  15.806  64.102  1.00  0.00     0.000 HD 
ENDBRANCH  41  42
ENDBRANCH  40  41
ENDBRANCH  39  40
ENDBRANCH  27  36
ENDBRANCH  26  27
ENDBRANCH  25  26
ENDBRANCH  24  25
ENDBRANCH  23  24
ENDBRANCH  14  23
ENDBRANCH  11  14
ENDBRANCH   9  10
ENDBRANCH   8   9
ENDBRANCH   4   8
TORSDOF 17
ENDMDL
MODEL       21
REMARK 921   NORMALIZED FREE ENERGY PREDICTED BY IDOCK:   -5.83 KCAL/MOL
REMARK 922        TOTAL FREE ENERGY PREDICTED BY IDOCK:  -14.59 KCAL/MOL
REMARK 923 INTER-LIGAND FREE ENERGY PREDICTED BY IDOCK:  -12.48 KCAL/MOL
REMARK 924 INTRA-LIGAND FREE ENERGY PREDICTED BY IDOCK:   -2.11 KCAL/MOL
REMARK 927      BINDING AFFINITY PREDICTED BY RF-SCORE:    0.00 PKD
ROOT
HETATM    1  N   UNK A   1     -12.565  15.634  70.456  1.00  0.00    -0.453 NA 
HETATM    2  H1  UNK A   1     -13.296  16.344  70.402  1.00  0.00     0.000 HD 
HETATM    3  H2  UNK A   1     -11.995  15.638  69.610  1.00  0.00     0.000 HD 
HETATM    4  C   UNK A   1     -13.083  14.268  70.736  1.00  0.00    -0.259 C  
HETATM    5  O   UNK A   1     -14.195  13.365  72.732  1.00  0.00    -0.693 OA 
HETATM    6  C   UNK A   1     -13.945  14.317  72.010  1.00  0.00    -0.504 C  
HETATM    7  O   UNK A   1     -14.405  15.574  72.235  1.00  0.00    -0.562 OA 
ENDROOT
BRANCH   4   8
HETATM    8  C   UNK A   1     -11.986  13.204  70.818  1.00  0.00    -0.158 C  
BRANCH   8   9
HETATM    9  C   UNK A   1     -12.476  11.760  70.700  1.00  0.00    -0.364 C  
BRANCH   9  10
HETATM   10  C   UNK A   1     -11.773  11.073  69.552  1.00  0.00    -0.329 C  
HETATM   11  N   UNK A   1     -10.544  10.538  69.876  1.00  0.00    -0.400 N  
HETATM   12  O   UNK A   1     -12.247  11.035  68.420  1.00  0.00    -0.586 OA 
HETATM   13  H   UNK A   1     -10.170  10.646  70.818  1.00  0.00     0.000 HD 
BRANCH  11  14
HETATM   14  C   UNK A   1      -9.778   9.812  68.854  1.00  0.00    -0.171 C  
BRANCH  14  15
HETATM   15  C   UNK A   1      -9.816   8.306  69.185  1.00  0.00    -0.179 C  
ATOM     16  H   GLY A   2     -11.543   8.604  70.285  1.00  0.00     0.000 HD 
ATOM     17  N   GLY A   2     -10.884   7.900  69.953  1.00  0.00    -0.244 N  
HETATM   18  O   UNK A   1      -8.952   7.528  68.811  1.00  0.00    -0.131 OA 
BRANCH  17  19
ATOM     19  CA  GLY A   2     -11.111   6.511  70.312  1.00  0.00    -0.335 C  
ATOM     20  C   GLY A   2     -11.252   6.257  71.804  1.00  0.00    -0.284 C  
ATOM     21  O   GLY A   2     -10.616   7.159  72.609  1.00  0.00    -0.223 OA 
ATOM     22  OXT GLY A   2     -11.829   5.288  72.276  1.00  0.00    -0.005 OA 
ENDBRANCH  17  19
ENDBRANCH  14  15
BRANCH  14  23
HETATM   23  C   UNK A   1      -8.333  10.336  68.784  1.00  0.00    -0.125 C  
BRANCH  23  24
HETATM   24  S   UNK A   1      -7.890  11.258  67.278  1.00  0.00    -0.148 SA 
BRANCH  24  25
HETATM   25  S   UNK A   1      -6.721  12.765  68.030  1.00  0.00    -0.118 SA 
BRANCH  25  26
HETATM   26  C   UNK A   1      -7.954  14.064  68.397  1.00  0.00    -0.143 C  
BRANCH  26  27
HETATM   27  C   UNK A   1      -8.200  15.079  67.265  1.00  0.00    -0.211 C  
BRANCH  27  28
HETATM   28  C   UNK A   1      -9.684  15.028  66.795  1.00  0.00    -0.241 C  
ATOM     29  H   GLY A   2     -10.136  13.511  68.158  1.00  0.00     0.000 HD 
ATOM     30  N   GLY A   2     -10.516  14.147  67.457  1.00  0.00    -0.248 N  
HETATM   31  O   UNK A   1     -10.142  15.814  65.967  1.00  0.00    -0.290 OA 
BRANCH  30  32
ATOM     32  CA  GLY A   2     -11.940  14.133  67.146  1.00  0.00    -0.426 C  
ATOM     33  OXT GLY A   2     -13.409  13.967  65.202  1.00  0.00    -0.698 OA 
ATOM     34  C   GLY A   2     -12.376  13.625  65.765  1.00  0.00    -0.482 C  
ATOM     35  O   GLY A   2     -11.644  12.598  65.292  1.00  0.00    -0.321 OA 
ENDBRANCH  30  32
ENDBRANCH  27  28
BRANCH  27  36
HETATM   36  N   UNK A   1      -7.572  16.402  67.472  1.00  0.00    -0.137 N  
HETATM   37  H   UNK A   1      -6.761  16.657  66.908  1.00  0.00     0.000 HD 
HETATM   38  O   UNK A   1      -9.090  17.140  69.021  1.00  0.00    -0.230 OA 
HETATM   39  C   UNK A   1      -8.045  17.301  68.400  1.00  0.00    -0.259 C  
BRANCH  39  40
HETATM   40  C   UNK A   1      -7.271  18.604  68.530  1.00  0.00    -0.314 C  
BRANCH  40  41
HETATM   41  C   UNK A   1      -7.950  19.872  67.979  1.00  0.00    -0.314 C  
BRANCH  41  42
HETATM   42  C   UNK A   1      -8.394  19.861  66.509  1.00  0.00    -0.336 C  
HETATM   43  N   UNK A   1      -9.280  18.708  66.195  1.00  0.00    -0.486 NA 
HETATM   44  C   UNK A   1      -7.178  19.753  65.607  1.00  0.00    -0.301 C  
HETATM   45  O   UNK A   1      -6.400  20.629  65.274  1.00  0.00    -0.246 OA 
HETATM   46  O   UNK A   1      -7.012  18.461  65.247  1.00  0.00    -0.534 OA 
HETATM   47  H2  UNK A   1     -10.083  18.679  66.822  1.00  0.00     0.000 HD 
HETATM   48  H1  UNK A   1      -9.574  18.700  65.219  1.00  0.00     0.000 HD 
ENDBRANCH  41  42
ENDBRANCH  40  41
ENDBRANCH  39  40
ENDBRANCH  27  36
ENDBRANCH  26  27
ENDBRANCH  25  26
ENDBRANCH  24  25
ENDBRANCH  23  24
ENDBRANCH  14  23
ENDBRANCH  11  14
ENDBRANCH   9  10
ENDBRANCH   8   9
ENDBRANCH   4   8
TORSDOF 17
ENDMDL
MODEL       22
REMARK 921   NORMALIZED FREE ENERGY PREDICTED BY IDOCK:   -5.83 KCAL/MOL
REMARK 922        TOTAL FREE ENERGY PREDICTED BY IDOCK:  -14.59 KCAL/MOL
REMARK 923 INTER-LIGAND FREE ENERGY PREDICTED BY IDOCK:  -13.14 KCAL/MOL
REMARK 924 INTRA-LIGAND FREE ENERGY PREDICTED BY IDOCK:   -1.45 KCAL/MOL
REMARK 927      BINDING AFFINITY PREDICTED BY RF-SCORE:    0.00 PKD
ROOT
HETATM    1  N   UNK A   1     -13.115   7.505  70.806  1.00  0.00    -0.537 NA 
HETATM    2  H1  UNK A   1     -12.879   6.589  70.424  1.00  0.00     0.000 HD 
HETATM    3  H2  UNK A   1     -13.622   8.062  70.117  1.00  0.00     0.000 HD 
HETATM    4  C   UNK A   1     -11.939   8.254  71.326  1.00  0.00    -0.287 C  
HETATM    5  O   UNK A   1     -10.462   7.774  73.229  1.00  0.00    -0.349 OA 
HETATM    6  C   UNK A   1     -11.202   7.369  72.346  1.00  0.00    -0.293 C  
HETATM    7  O   UNK A   1     -11.479   6.057  72.139  1.00  0.00    -0.289 OA 
ENDROOT
BRANCH   4   8
HETATM    8  C   UNK A   1     -12.295   9.628  71.898  1.00  0.00    -0.437 C  
BRANCH   8   9
HETATM    9  C   UNK A   1     -12.565  10.713  70.854  1.00  0.00    -0.503 C  
BRANCH   9  10
HETATM   10  C   UNK A   1     -11.487  10.685  69.795  1.00  0.00    -0.302 C  
HETATM   11  N   UNK A   1     -11.960  10.569  68.505  1.00  0.00    -0.425 N  
HETATM   12  O   UNK A   1     -10.292  10.720  70.073  1.00  0.00    -0.067 OA 
HETATM   13  H   UNK A   1     -12.961  10.485  68.331  1.00  0.00     0.000 HD 
BRANCH  11  14
HETATM   14  C   UNK A   1     -11.012  10.567  67.383  1.00  0.00    -0.288 C  
BRANCH  14  15
HETATM   15  C   UNK A   1     -10.469   9.135  67.197  1.00  0.00    -0.255 C  
ATOM     16  H   GLY A   2     -11.548   8.524  68.853  1.00  0.00     0.000 HD 
ATOM     17  N   GLY A   2     -10.929   8.209  68.107  1.00  0.00     0.104 N  
HETATM   18  O   UNK A   1      -9.671   8.842  66.320  1.00  0.00    -0.247 OA 
BRANCH  17  19
ATOM     19  CA  GLY A   2     -10.569   6.803  68.049  1.00  0.00    -0.231 C  
ATOM     20  C   GLY A   2      -9.646   6.339  69.164  1.00  0.00    -0.135 C  
ATOM     21  O   GLY A   2      -8.847   7.311  69.699  1.00  0.00    -0.141 OA 
ATOM     22  OXT GLY A   2      -9.555   5.177  69.530  1.00  0.00    -0.134 OA 
ENDBRANCH  17  19
ENDBRANCH  14  15
BRANCH  14  23
HETATM   23  C   UNK A   1      -9.874  11.572  67.631  1.00  0.00    -0.181 C  
BRANCH  23  24
HETATM   24  S   UNK A   1      -9.752  12.949  66.445  1.00  0.00    -0.254 SA 
BRANCH  24  25
HETATM   25  S   UNK A   1      -8.421  14.197  67.378  1.00  0.00    -0.211 SA 
BRANCH  25  26
HETATM   26  C   UNK A   1      -9.351  14.711  68.866  1.00  0.00    -0.160 C  
BRANCH  26  27
HETATM   27  C   UNK A   1     -10.655  15.483  68.594  1.00  0.00    -0.243 C  
BRANCH  27  28
HETATM   28  C   UNK A   1     -11.860  14.789  69.295  1.00  0.00    -0.318 C  
ATOM     29  H   GLY A   2     -11.982  16.299  70.734  1.00  0.00     0.000 HD 
ATOM     30  N   GLY A   2     -12.412  15.445  70.377  1.00  0.00    -0.398 N  
HETATM   31  O   UNK A   1     -12.390  13.773  68.848  1.00  0.00    -0.291 OA 
BRANCH  30  32
ATOM     32  CA  GLY A   2     -13.613  14.909  71.006  1.00  0.00    -0.345 C  
ATOM     33  OXT GLY A   2     -14.234  13.383  72.810  1.00  0.00    -0.693 OA 
ATOM     34  C   GLY A   2     -13.475  14.246  72.384  1.00  0.00    -0.489 C  
ATOM     35  O   GLY A   2     -12.576  14.831  73.198  1.00  0.00    -0.418 OA 
ENDBRANCH  30  32
ENDBRANCH  27  28
BRANCH  27  36
HETATM   36  N   UNK A   1     -10.537  16.955  68.691  1.00  0.00    -0.343 N  
HETATM   37  H   UNK A   1     -10.461  17.384  69.613  1.00  0.00     0.000 HD 
HETATM   38  O   UNK A   1     -10.473  17.332  66.432  1.00  0.00    -0.322 OA 
HETATM   39  C   UNK A   1     -10.526  17.764  67.579  1.00  0.00    -0.372 C  
BRANCH  39  40
HETATM   40  C   UNK A   1     -10.443  19.260  67.836  1.00  0.00    -0.514 C  
BRANCH  40  41
HETATM   41  C   UNK A   1      -9.553  20.080  66.882  1.00  0.00    -0.541 C  
BRANCH  41  42
HETATM   42  C   UNK A   1      -8.033  20.001  67.082  1.00  0.00    -0.316 C  
HETATM   43  N   UNK A   1      -7.406  21.346  67.184  1.00  0.00    -0.815 NA 
HETATM   44  C   UNK A   1      -7.396  19.297  65.898  1.00  0.00    -0.273 C  
HETATM   45  O   UNK A   1      -7.339  18.102  65.666  1.00  0.00    -0.528 OA 
HETATM   46  O   UNK A   1      -6.925  20.226  65.036  1.00  0.00    -0.302 OA 
HETATM   47  H2  UNK A   1      -7.845  21.902  67.918  1.00  0.00     0.000 HD 
HETATM   48  H1  UNK A   1      -6.396  21.294  67.317  1.00  0.00     0.000 HD 
ENDBRANCH  41  42
ENDBRANCH  40  41
ENDBRANCH  39  40
ENDBRANCH  27  36
ENDBRANCH  26  27
ENDBRANCH  25  26
ENDBRANCH  24  25
ENDBRANCH  23  24
ENDBRANCH  14  23
ENDBRANCH  11  14
ENDBRANCH   9  10
ENDBRANCH   8   9
ENDBRANCH   4   8
TORSDOF 17
ENDMDL
MODEL       23
REMARK 921   NORMALIZED FREE ENERGY PREDICTED BY IDOCK:   -5.78 KCAL/MOL
REMARK 922        TOTAL FREE ENERGY PREDICTED BY IDOCK:  -14.50 KCAL/MOL
REMARK 923 INTER-LIGAND FREE ENERGY PREDICTED BY IDOCK:  -13.10 KCAL/MOL
REMARK 924 INTRA-LIGAND FREE ENERGY PREDICTED BY IDOCK:   -1.40 KCAL/MOL
REMARK 927      BINDING AFFINITY PREDICTED BY RF-SCORE:    0.00 PKD
ROOT
HETATM    1  N   UNK A   1     -13.606  14.691  70.339  1.00  0.00    -0.387 NA 
HETATM    2  H1  UNK A   1     -14.321  14.234  70.904  1.00  0.00     0.000 HD 
HETATM    3  H2  UNK A   1     -13.393  14.137  69.509  1.00  0.00     0.000 HD 
HETATM    4  C   UNK A   1     -12.364  15.009  71.093  1.00  0.00    -0.327 C  
HETATM    5  O   UNK A   1     -11.985  16.572  72.950  1.00  0.00    -0.536 OA 
HETATM    6  C   UNK A   1     -12.739  15.831  72.339  1.00  0.00    -0.453 C  
HETATM    7  O   UNK A   1     -14.035  15.625  72.683  1.00  0.00    -0.566 OA 
ENDROOT
BRANCH   4   8
HETATM    8  C   UNK A   1     -11.292  15.696  70.245  1.00  0.00    -0.357 C  
BRANCH   8   9
HETATM    9  C   UNK A   1     -10.447  14.754  69.385  1.00  0.00    -0.210 C  
BRANCH   9  10
HETATM   10  C   UNK A   1     -10.896  14.834  67.945  1.00  0.00    -0.269 C  
HETATM   11  N   UNK A   1      -9.867  14.874  67.028  1.00  0.00    -0.233 N  
HETATM   12  O   UNK A   1     -12.081  14.899  67.629  1.00  0.00    -0.253 OA 
HETATM   13  H   UNK A   1      -8.898  14.876  67.345  1.00  0.00     0.000 HD 
BRANCH  11  14
HETATM   14  C   UNK A   1     -10.175  14.916  65.592  1.00  0.00    -0.358 C  
BRANCH  14  15
HETATM   15  C   UNK A   1     -10.601  16.351  65.220  1.00  0.00    -0.299 C  
ATOM     16  H   GLY A   2      -9.690  17.055  66.939  1.00  0.00     0.000 HD 
ATOM     17  N   GLY A   2     -10.196  17.331  66.098  1.00  0.00    -0.342 N  
HETATM   18  O   UNK A   1     -11.269  16.603  64.229  1.00  0.00    -1.098 OA 
BRANCH  17  19
ATOM     19  CA  GLY A   2     -10.457  18.743  65.877  1.00  0.00    -0.376 C  
ATOM     20  C   GLY A   2     -10.136  19.640  67.061  1.00  0.00    -0.412 C  
ATOM     21  O   GLY A   2     -10.202  19.033  68.284  1.00  0.00    -0.371 OA 
ATOM     22  OXT GLY A   2      -9.898  20.835  66.962  1.00  0.00    -0.427 OA 
ENDBRANCH  17  19
ENDBRANCH  14  15
BRANCH  14  23
HETATM   23  C   UNK A   1     -11.271  13.895  65.242  1.00  0.00    -0.313 C  
BRANCH  23  24
HETATM   24  S   UNK A   1     -10.894  12.760  63.868  1.00  0.00    -0.375 SA 
BRANCH  24  25
HETATM   25  S   UNK A   1     -10.606  10.984  64.851  1.00  0.00    -0.211 SA 
BRANCH  25  26
HETATM   26  C   UNK A   1     -10.152  11.541  66.532  1.00  0.00    -0.213 C  
BRANCH  26  27
HETATM   27  C   UNK A   1     -10.193  10.453  67.621  1.00  0.00    -0.201 C  
BRANCH  27  28
HETATM   28  C   UNK A   1     -11.288  10.777  68.680  1.00  0.00    -0.291 C  
ATOM     29  H   GLY A   2     -10.277   9.702  70.157  1.00  0.00     0.000 HD 
ATOM     30  N   GLY A   2     -11.076  10.303  69.959  1.00  0.00    -0.289 N  
HETATM   31  O   UNK A   1     -12.237  11.523  68.442  1.00  0.00    -0.540 OA 
BRANCH  30  32
ATOM     32  CA  GLY A   2     -12.002  10.669  71.023  1.00  0.00    -0.339 C  
ATOM     33  OXT GLY A   2     -13.743   9.643  72.396  1.00  0.00    -0.414 OA 
ATOM     34  C   GLY A   2     -12.661   9.541  71.831  1.00  0.00    -0.396 C  
ATOM     35  O   GLY A   2     -11.862   8.482  72.061  1.00  0.00    -0.313 OA 
ENDBRANCH  30  32
ENDBRANCH  27  28
BRANCH  27  36
HETATM   36  N   UNK A   1     -10.091   9.066  67.116  1.00  0.00    -0.221 N  
HETATM   37  H   UNK A   1     -10.677   8.783  66.331  1.00  0.00     0.000 HD 
HETATM   38  O   UNK A   1      -8.395   8.433  68.520  1.00  0.00    -0.128 OA 
HETATM   39  C   UNK A   1      -9.232   8.147  67.670  1.00  0.00    -0.137 C  
BRANCH  39  40
HETATM   40  C   UNK A   1      -9.268   6.748  67.074  1.00  0.00    -0.152 C  
BRANCH  40  41
HETATM   41  C   UNK A   1     -10.596   5.977  67.191  1.00  0.00    -0.374 C  
BRANCH  41  42
HETATM   42  C   UNK A   1     -11.012   5.482  68.585  1.00  0.00     0.123 C  
HETATM   43  N   UNK A   1     -11.408   6.598  69.485  1.00  0.00    -0.542 NA 
HETATM   44  C   UNK A   1      -9.848   4.765  69.242  1.00  0.00    -0.199 C  
HETATM   45  O   UNK A   1      -9.452   3.628  69.053  1.00  0.00    -0.164 OA 
HETATM   46  O   UNK A   1      -9.215   5.624  70.073  1.00  0.00    -0.140 OA 
HETATM   47  H2  UNK A   1     -12.140   7.169  69.064  1.00  0.00     0.000 HD 
HETATM   48  H1  UNK A   1     -11.684   6.270  70.410  1.00  0.00     0.000 HD 
ENDBRANCH  41  42
ENDBRANCH  40  41
ENDBRANCH  39  40
ENDBRANCH  27  36
ENDBRANCH  26  27
ENDBRANCH  25  26
ENDBRANCH  24  25
ENDBRANCH  23  24
ENDBRANCH  14  23
ENDBRANCH  11  14
ENDBRANCH   9  10
ENDBRANCH   8   9
ENDBRANCH   4   8
TORSDOF 17
ENDMDL
MODEL       24
REMARK 921   NORMALIZED FREE ENERGY PREDICTED BY IDOCK:   -5.77 KCAL/MOL
REMARK 922        TOTAL FREE ENERGY PREDICTED BY IDOCK:  -14.48 KCAL/MOL
REMARK 923 INTER-LIGAND FREE ENERGY PREDICTED BY IDOCK:  -12.71 KCAL/MOL
REMARK 924 INTRA-LIGAND FREE ENERGY PREDICTED BY IDOCK:   -1.77 KCAL/MOL
REMARK 927      BINDING AFFINITY PREDICTED BY RF-SCORE:    0.00 PKD
ROOT
HETATM    1  N   UNK A   1     -10.213  16.585  65.320  1.00  0.00    -0.596 NA 
HETATM    2  H1  UNK A   1     -10.977  16.715  64.656  1.00  0.00     0.000 HD 
HETATM    3  H2  UNK A   1     -10.103  15.599  65.555  1.00  0.00     0.000 HD 
HETATM    4  C   UNK A   1     -10.349  17.408  66.552  1.00  0.00    -0.312 C  
HETATM    5  O   UNK A   1     -10.280  19.845  66.854  1.00  0.00    -0.413 OA 
HETATM    6  C   UNK A   1     -10.526  18.881  66.145  1.00  0.00    -0.457 C  
HETATM    7  O   UNK A   1     -10.999  18.981  64.877  1.00  0.00    -0.349 OA 
ENDROOT
BRANCH   4   8
HETATM    8  C   UNK A   1      -9.202  17.213  67.546  1.00  0.00    -0.233 C  
BRANCH   8   9
HETATM    9  C   UNK A   1      -9.595  16.541  68.863  1.00  0.00    -0.261 C  
BRANCH   9  10
HETATM   10  C   UNK A   1      -9.661  15.043  68.673  1.00  0.00    -0.219 C  
HETATM   11  N   UNK A   1     -10.926  14.508  68.798  1.00  0.00    -0.241 N  
HETATM   12  O   UNK A   1      -8.660  14.363  68.467  1.00  0.00    -0.168 OA 
HETATM   13  H   UNK A   1     -11.717  15.110  69.028  1.00  0.00     0.000 HD 
BRANCH  11  14
HETATM   14  C   UNK A   1     -11.127  13.067  68.600  1.00  0.00    -0.269 C  
BRANCH  14  15
HETATM   15  C   UNK A   1     -11.878  12.850  67.271  1.00  0.00    -0.356 C  
ATOM     16  H   GLY A   2     -12.083  14.899  67.068  1.00  0.00     0.000 HD 
ATOM     17  N   GLY A   2     -12.270  14.001  66.623  1.00  0.00    -0.448 N  
HETATM   18  O   UNK A   1     -12.129  11.740  66.830  1.00  0.00    -0.547 OA 
BRANCH  17  19
ATOM     19  CA  GLY A   2     -12.937  13.989  65.333  1.00  0.00    -0.310 C  
ATOM     20  C   GLY A   2     -12.055  13.567  64.168  1.00  0.00    -0.435 C  
ATOM     21  O   GLY A   2     -10.720  13.803  64.336  1.00  0.00    -0.407 OA 
ATOM     22  OXT GLY A   2     -12.488  13.111  63.120  1.00  0.00    -0.686 OA 
ENDBRANCH  17  19
ENDBRANCH  14  15
BRANCH  14  23
HETATM   23  C   UNK A   1     -11.894  12.457  69.786  1.00  0.00    -0.317 C  
BRANCH  23  24
HETATM   24  S   UNK A   1     -11.610  10.685  70.095  1.00  0.00    -0.353 SA 
BRANCH  24  25
HETATM   25  S   UNK A   1     -12.844  10.328  71.692  1.00  0.00    -0.481 SA 
BRANCH  25  26
HETATM   26  C   UNK A   1     -13.093   8.520  71.592  1.00  0.00    -0.341 C  
BRANCH  26  27
HETATM   27  C   UNK A   1     -11.841   7.702  71.223  1.00  0.00    -0.292 C  
BRANCH  27  28
HETATM   28  C   UNK A   1     -11.376   6.835  72.431  1.00  0.00    -0.268 C  
ATOM     29  H   GLY A   2     -12.126   5.092  71.559  1.00  0.00     0.000 HD 
ATOM     30  N   GLY A   2     -11.603   5.476  72.345  1.00  0.00    -0.220 N  
HETATM   31  O   UNK A   1     -10.724   7.299  73.366  1.00  0.00    -0.365 OA 
BRANCH  30  32
ATOM     32  CA  GLY A   2     -11.089   4.595  73.387  1.00  0.00    -0.337 C  
ATOM     33  OXT GLY A   2      -9.418   2.835  73.665  1.00  0.00    -0.086 OA 
ATOM     34  C   GLY A   2      -9.743   3.898  73.148  1.00  0.00    -0.123 C  
ATOM     35  O   GLY A   2      -8.838   4.644  72.487  1.00  0.00    -0.116 OA 
ENDBRANCH  30  32
ENDBRANCH  27  28
BRANCH  27  36
HETATM   36  N   UNK A   1     -11.881   7.077  69.883  1.00  0.00    -0.600 N  
HETATM   37  H   UNK A   1     -12.767   6.707  69.537  1.00  0.00     0.000 HD 
HETATM   38  O   UNK A   1      -9.694   7.512  69.359  1.00  0.00    -0.162 OA 
HETATM   39  C   UNK A   1     -10.764   6.977  69.088  1.00  0.00    -0.218 C  
BRANCH  39  40
HETATM   40  C   UNK A   1     -10.948   6.271  67.753  1.00  0.00    -0.427 C  
BRANCH  40  41
HETATM   41  C   UNK A   1      -9.974   5.120  67.436  1.00  0.00    -0.215 C  
BRANCH  41  42
HETATM   42  C   UNK A   1      -9.810   4.711  65.965  1.00  0.00    -0.224 C  
HETATM   43  N   UNK A   1     -11.117   4.480  65.294  1.00  0.00    -0.949 NA 
HETATM   44  C   UNK A   1      -9.025   3.415  65.879  1.00  0.00    -0.145 C  
HETATM   45  O   UNK A   1      -7.822   3.249  65.968  1.00  0.00    -0.083 OA 
HETATM   46  O   UNK A   1      -9.891   2.384  65.749  1.00  0.00     0.315 OA 
HETATM   47  H2  UNK A   1     -11.726   5.293  65.384  1.00  0.00     0.000 HD 
HETATM   48  H1  UNK A   1     -11.008   4.208  64.317  1.00  0.00     0.000 HD 
ENDBRANCH  41  42
ENDBRANCH  40  41
ENDBRANCH  39  40
ENDBRANCH  27  36
ENDBRANCH  26  27
ENDBRANCH  25  26
ENDBRANCH  24  25
ENDBRANCH  23  24
ENDBRANCH  14  23
ENDBRANCH  11  14
ENDBRANCH   9  10
ENDBRANCH   8   9
ENDBRANCH   4   8
TORSDOF 17
ENDMDL
MODEL       25
REMARK 921   NORMALIZED FREE ENERGY PREDICTED BY IDOCK:   -5.77 KCAL/MOL
REMARK 922        TOTAL FREE ENERGY PREDICTED BY IDOCK:  -14.48 KCAL/MOL
REMARK 923 INTER-LIGAND FREE ENERGY PREDICTED BY IDOCK:  -11.21 KCAL/MOL
REMARK 924 INTRA-LIGAND FREE ENERGY PREDICTED BY IDOCK:   -3.26 KCAL/MOL
REMARK 927      BINDING AFFINITY PREDICTED BY RF-SCORE:    0.00 PKD
ROOT
HETATM    1  N   UNK A   1     -13.997   7.517  71.123  1.00  0.00    -0.642 NA 
HETATM    2  H1  UNK A   1     -14.762   8.131  71.402  1.00  0.00     0.000 HD 
HETATM    3  H2  UNK A   1     -14.215   6.545  71.346  1.00  0.00     0.000 HD 
HETATM    4  C   UNK A   1     -12.682   7.906  71.697  1.00  0.00    -0.330 C  
HETATM    5  O   UNK A   1     -11.303   9.902  71.308  1.00  0.00    -0.368 OA 
HETATM    6  C   UNK A   1     -12.406   9.379  71.347  1.00  0.00    -0.357 C  
HETATM    7  O   UNK A   1     -13.561  10.039  71.081  1.00  0.00    -0.313 OA 
ENDROOT
BRANCH   4   8
HETATM    8  C   UNK A   1     -11.534   6.984  71.279  1.00  0.00    -0.324 C  
BRANCH   8   9
HETATM    9  C   UNK A   1     -11.554   6.553  69.811  1.00  0.00    -0.392 C  
BRANCH   9  10
HETATM   10  C   UNK A   1     -10.284   7.002  69.128  1.00  0.00    -0.187 C  
HETATM   11  N   UNK A   1      -9.953   8.322  69.352  1.00  0.00    -0.184 N  
HETATM   12  O   UNK A   1      -9.631   6.259  68.402  1.00  0.00    -0.121 OA 
HETATM   13  H   UNK A   1     -10.561   8.914  69.917  1.00  0.00     0.000 HD 
BRANCH  11  14
HETATM   14  C   UNK A   1      -8.720   8.869  68.771  1.00  0.00    -0.137 C  
BRANCH  14  15
HETATM   15  C   UNK A   1      -7.829   9.400  69.912  1.00  0.00    -0.126 C  
ATOM     16  H   GLY A   2      -6.502  10.147  68.512  1.00  0.00     0.000 HD 
ATOM     17  N   GLY A   2      -6.699  10.077  69.510  1.00  0.00    -0.052 N  
HETATM   18  O   UNK A   1      -8.091   9.219  71.091  1.00  0.00    -0.298 OA 
BRANCH  17  19
ATOM     19  CA  GLY A   2      -5.776  10.694  70.446  1.00  0.00    -0.094 C  
ATOM     20  C   GLY A   2      -5.903  12.205  70.558  1.00  0.00    -0.119 C  
ATOM     21  O   GLY A   2      -6.395  12.830  69.446  1.00  0.00    -0.104 OA 
ATOM     22  OXT GLY A   2      -5.536  12.846  71.531  1.00  0.00    -0.382 OA 
ENDBRANCH  17  19
ENDBRANCH  14  15
BRANCH  14  23
HETATM   23  C   UNK A   1      -9.044   9.974  67.750  1.00  0.00    -0.131 C  
BRANCH  23  24
HETATM   24  S   UNK A   1      -9.958   9.447  66.266  1.00  0.00    -0.264 SA 
BRANCH  24  25
HETATM   25  S   UNK A   1     -10.118  11.202  65.219  1.00  0.00    -0.293 SA 
BRANCH  25  26
HETATM   26  C   UNK A   1      -9.573  12.437  66.451  1.00  0.00    -0.246 C  
BRANCH  26  27
HETATM   27  C   UNK A   1     -10.654  13.434  66.908  1.00  0.00    -0.273 C  
BRANCH  27  28
HETATM   28  C   UNK A   1     -11.463  12.856  68.107  1.00  0.00    -0.315 C  
ATOM     29  H   GLY A   2     -11.007  14.508  69.301  1.00  0.00     0.000 HD 
ATOM     30  N   GLY A   2     -11.535  13.637  69.243  1.00  0.00    -0.276 N  
HETATM   31  O   UNK A   1     -12.117  11.818  68.023  1.00  0.00    -0.572 OA 
BRANCH  30  32
ATOM     32  CA  GLY A   2     -12.371  13.208  70.357  1.00  0.00    -0.279 C  
ATOM     33  OXT GLY A   2     -13.144  14.042  72.519  1.00  0.00    -0.431 OA 
ATOM     34  C   GLY A   2     -12.857  14.273  71.351  1.00  0.00    -0.344 C  
ATOM     35  O   GLY A   2     -13.156  15.461  70.793  1.00  0.00    -0.453 OA 
ENDBRANCH  30  32
ENDBRANCH  27  28
BRANCH  27  36
HETATM   36  N   UNK A   1     -10.209  14.844  66.974  1.00  0.00    -0.254 N  
HETATM   37  H   UNK A   1      -9.725  15.170  67.811  1.00  0.00     0.000 HD 
HETATM   38  O   UNK A   1     -10.873  15.396  64.852  1.00  0.00    -0.421 OA 
HETATM   39  C   UNK A   1     -10.427  15.730  65.945  1.00  0.00    -0.352 C  
BRANCH  39  40
HETATM   40  C   UNK A   1      -9.952  17.157  66.173  1.00  0.00    -0.296 C  
BRANCH  40  41
HETATM   41  C   UNK A   1      -8.548  17.331  66.784  1.00  0.00    -0.275 C  
BRANCH  41  42
HETATM   42  C   UNK A   1      -8.460  17.739  68.262  1.00  0.00    -0.277 C  
HETATM   43  N   UNK A   1      -7.489  18.843  68.487  1.00  0.00    -0.295 NA 
HETATM   44  C   UNK A   1      -7.998  16.556  69.093  1.00  0.00    -0.182 C  
HETATM   45  O   UNK A   1      -8.648  15.604  69.485  1.00  0.00    -0.258 OA 
HETATM   46  O   UNK A   1      -6.667  16.661  69.303  1.00  0.00    -0.202 OA 
HETATM   47  H2  UNK A   1      -7.701  19.646  67.896  1.00  0.00     0.000 HD 
HETATM   48  H1  UNK A   1      -7.431  19.113  69.468  1.00  0.00     0.000 HD 
ENDBRANCH  41  42
ENDBRANCH  40  41
ENDBRANCH  39  40
ENDBRANCH  27  36
ENDBRANCH  26  27
ENDBRANCH  25  26
ENDBRANCH  24  25
ENDBRANCH  23  24
ENDBRANCH  14  23
ENDBRANCH  11  14
ENDBRANCH   9  10
ENDBRANCH   8   9
ENDBRANCH   4   8
TORSDOF 17
ENDMDL
MODEL       26
REMARK 921   NORMALIZED FREE ENERGY PREDICTED BY IDOCK:   -5.76 KCAL/MOL
REMARK 922        TOTAL FREE ENERGY PREDICTED BY IDOCK:  -14.45 KCAL/MOL
REMARK 923 INTER-LIGAND FREE ENERGY PREDICTED BY IDOCK:  -11.89 KCAL/MOL
REMARK 924 INTRA-LIGAND FREE ENERGY PREDICTED BY IDOCK:   -2.56 KCAL/MOL
REMARK 927      BINDING AFFINITY PREDICTED BY RF-SCORE:    0.00 PKD
ROOT
HETATM    1  N   UNK A   1     -11.334  14.134  70.269  1.00  0.00    -0.479 NA 
HETATM    2  H1  UNK A   1     -11.271  15.108  69.973  1.00  0.00     0.000 HD 
HETATM    3  H2  UNK A   1     -11.226  13.507  69.471  1.00  0.00     0.000 HD 
HETATM    4  C   UNK A   1     -12.579  13.819  71.020  1.00  0.00    -0.371 C  
HETATM    5  O   UNK A   1     -13.353  14.601  73.216  1.00  0.00    -0.585 OA 
HETATM    6  C   UNK A   1     -12.704  14.798  72.201  1.00  0.00    -0.326 C  
HETATM    7  O   UNK A   1     -11.992  15.930  71.970  1.00  0.00    -0.420 OA 
ENDROOT
BRANCH   4   8
HETATM    8  C   UNK A   1     -12.673  12.358  71.464  1.00  0.00    -0.333 C  
BRANCH   8   9
HETATM    9  C   UNK A   1     -12.120  11.342  70.463  1.00  0.00    -0.481 C  
BRANCH   9  10
HETATM   10  C   UNK A   1     -12.585   9.953  70.833  1.00  0.00    -0.302 C  
HETATM   11  N   UNK A   1     -11.687   8.951  70.528  1.00  0.00    -0.447 N  
HETATM   12  O   UNK A   1     -13.689   9.739  71.326  1.00  0.00    -0.301 OA 
HETATM   13  H   UNK A   1     -10.806   9.176  70.066  1.00  0.00     0.000 HD 
BRANCH  11  14
HETATM   14  C   UNK A   1     -12.007   7.560  70.873  1.00  0.00    -0.251 C  
BRANCH  14  15
HETATM   15  C   UNK A   1     -11.396   7.238  72.251  1.00  0.00    -0.272 C  
ATOM     16  H   GLY A   2     -11.054   5.294  71.632  1.00  0.00     0.000 HD 
ATOM     17  N   GLY A   2     -10.931   5.950  72.402  1.00  0.00    -0.249 N  
HETATM   18  O   UNK A   1     -11.343   8.057  73.156  1.00  0.00    -0.317 OA 
BRANCH  17  19
ATOM     19  CA  GLY A   2     -10.272   5.488  73.612  1.00  0.00    -0.218 C  
ATOM     20  C   GLY A   2     -10.178   3.977  73.744  1.00  0.00    -0.151 C  
ATOM     21  O   GLY A   2     -11.150   3.275  73.087  1.00  0.00    -0.147 OA 
ATOM     22  OXT GLY A   2      -9.346   3.407  74.434  1.00  0.00    -0.091 OA 
ENDBRANCH  17  19
ENDBRANCH  14  15
BRANCH  14  23
HETATM   23  C   UNK A   1     -11.489   6.599  69.789  1.00  0.00    -0.328 C  
BRANCH  23  24
HETATM   24  S   UNK A   1      -9.892   7.036  69.032  1.00  0.00    -0.157 SA 
BRANCH  24  25
HETATM   25  S   UNK A   1     -10.470   7.739  67.196  1.00  0.00    -0.331 SA 
BRANCH  25  26
HETATM   26  C   UNK A   1     -10.316   9.548  67.408  1.00  0.00    -0.258 C  
BRANCH  26  27
HETATM   27  C   UNK A   1      -9.465  10.267  66.345  1.00  0.00    -0.174 C  
BRANCH  27  28
HETATM   28  C   UNK A   1     -10.374  10.900  65.251  1.00  0.00    -0.268 C  
ATOM     29  H   GLY A   2     -11.403  12.040  66.666  1.00  0.00     0.000 HD 
ATOM     30  N   GLY A   2     -11.288  11.845  65.672  1.00  0.00    -0.313 N  
HETATM   31  O   UNK A   1     -10.215  10.680  64.051  1.00  0.00    -0.341 OA 
BRANCH  30  32
ATOM     32  CA  GLY A   2     -12.088  12.560  64.686  1.00  0.00    -0.428 C  
ATOM     33  OXT GLY A   2     -12.584  14.857  64.017  1.00  0.00    -0.832 OA 
ATOM     34  C   GLY A   2     -11.769  14.039  64.427  1.00  0.00    -0.397 C  
ATOM     35  O   GLY A   2     -10.458  14.343  64.478  1.00  0.00    -0.349 OA 
ENDBRANCH  30  32
ENDBRANCH  27  28
BRANCH  27  36
HETATM   36  N   UNK A   1      -8.349  11.073  66.886  1.00  0.00    -0.133 N  
HETATM   37  H   UNK A   1      -7.413  10.941  66.503  1.00  0.00     0.000 HD 
HETATM   38  O   UNK A   1      -9.635  12.321  68.314  1.00  0.00    -0.211 OA 
HETATM   39  C   UNK A   1      -8.531  11.996  67.890  1.00  0.00    -0.160 C  
BRANCH  39  40
HETATM   40  C   UNK A   1      -7.284  12.719  68.374  1.00  0.00    -0.115 C  
BRANCH  40  41
HETATM   41  C   UNK A   1      -7.013  14.113  67.775  1.00  0.00    -0.189 C  
BRANCH  41  42
HETATM   42  C   UNK A   1      -7.666  15.322  68.461  1.00  0.00    -0.128 C  
HETATM   43  N   UNK A   1      -8.329  14.955  69.741  1.00  0.00    -0.430 NA 
HETATM   44  C   UNK A   1      -8.731  15.911  67.555  1.00  0.00    -0.178 C  
HETATM   45  O   UNK A   1      -8.588  16.645  66.593  1.00  0.00    -0.210 OA 
HETATM   46  O   UNK A   1      -9.940  15.435  67.930  1.00  0.00    -0.220 OA 
HETATM   47  H2  UNK A   1      -7.680  14.482  70.369  1.00  0.00     0.000 HD 
HETATM   48  H1  UNK A   1      -8.763  15.758  70.196  1.00  0.00     0.000 HD 
ENDBRANCH  41  42
ENDBRANCH  40  41
ENDBRANCH  39  40
ENDBRANCH  27  36
ENDBRANCH  26  27
ENDBRANCH  25  26
ENDBRANCH  24  25
ENDBRANCH  23  24
ENDBRANCH  14  23
ENDBRANCH  11  14
ENDBRANCH   9  10
ENDBRANCH   8   9
ENDBRANCH   4   8
TORSDOF 17
ENDMDL
MODEL       27
REMARK 921   NORMALIZED FREE ENERGY PREDICTED BY IDOCK:   -5.72 KCAL/MOL
REMARK 922        TOTAL FREE ENERGY PREDICTED BY IDOCK:  -14.38 KCAL/MOL
REMARK 923 INTER-LIGAND FREE ENERGY PREDICTED BY IDOCK:  -12.77 KCAL/MOL
REMARK 924 INTRA-LIGAND FREE ENERGY PREDICTED BY IDOCK:   -1.62 KCAL/MOL
REMARK 927      BINDING AFFINITY PREDICTED BY RF-SCORE:    0.00 PKD
ROOT
HETATM    1  N   UNK A   1     -12.170  16.052  71.106  1.00  0.00    -0.560 NA 
HETATM    2  H1  UNK A   1     -12.705  16.899  71.296  1.00  0.00     0.000 HD 
HETATM    3  H2  UNK A   1     -11.581  16.175  70.282  1.00  0.00     0.000 HD 
HETATM    4  C   UNK A   1     -13.012  14.833  70.975  1.00  0.00    -0.363 C  
HETATM    5  O   UNK A   1     -14.390  13.664  72.639  1.00  0.00    -0.703 OA 
HETATM    6  C   UNK A   1     -13.889  14.700  72.232  1.00  0.00    -0.479 C  
HETATM    7  O   UNK A   1     -14.042  15.901  72.845  1.00  0.00    -0.561 OA 
ENDROOT
BRANCH   4   8
HETATM    8  C   UNK A   1     -12.208  13.562  70.690  1.00  0.00    -0.434 C  
BRANCH   8   9
HETATM    9  C   UNK A   1     -12.118  13.171  69.214  1.00  0.00    -0.270 C  
BRANCH   9  10
HETATM   10  C   UNK A   1     -11.828  11.694  69.093  1.00  0.00    -0.326 C  
HETATM   11  N   UNK A   1     -11.107  11.166  70.143  1.00  0.00    -0.479 N  
HETATM   12  O   UNK A   1     -12.173  11.035  68.116  1.00  0.00    -0.578 OA 
HETATM   13  H   UNK A   1     -10.793  11.769  70.904  1.00  0.00     0.000 HD 
BRANCH  11  14
HETATM   14  C   UNK A   1     -10.792   9.732  70.159  1.00  0.00    -0.291 C  
BRANCH  14  15
HETATM   15  C   UNK A   1     -11.513   9.081  71.357  1.00  0.00    -0.330 C  
ATOM     16  H   GLY A   2     -10.200   7.484  71.264  1.00  0.00     0.000 HD 
ATOM     17  N   GLY A   2     -10.986   7.881  71.780  1.00  0.00    -0.236 N  
HETATM   18  O   UNK A   1     -12.496   9.579  71.884  1.00  0.00    -0.369 OA 
BRANCH  17  19
ATOM     19  CA  GLY A   2     -11.501   7.156  72.928  1.00  0.00    -0.151 C  
ATOM     20  C   GLY A   2     -11.028   5.715  73.032  1.00  0.00    -0.284 C  
ATOM     21  O   GLY A   2     -10.694   5.127  71.844  1.00  0.00    -0.213 OA 
ATOM     22  OXT GLY A   2     -11.003   5.083  74.078  1.00  0.00    -0.287 OA 
ENDBRANCH  17  19
ENDBRANCH  14  15
BRANCH  14  23
HETATM   23  C   UNK A   1      -9.271   9.509  70.230  1.00  0.00    -0.258 C  
BRANCH  23  24
HETATM   24  S   UNK A   1      -8.609   8.181  69.176  1.00  0.00    -0.136 SA 
BRANCH  24  25
HETATM   25  S   UNK A   1      -9.121   8.830  67.300  1.00  0.00    -0.133 SA 
BRANCH  25  26
HETATM   26  C   UNK A   1      -7.555   9.562  66.704  1.00  0.00    -0.097 C  
BRANCH  26  27
HETATM   27  C   UNK A   1      -7.709  10.734  65.717  1.00  0.00    -0.094 C  
BRANCH  27  28
HETATM   28  C   UNK A   1      -8.998  10.564  64.859  1.00  0.00    -0.199 C  
ATOM     29  H   GLY A   2      -9.493  12.582  65.077  1.00  0.00     0.000 HD 
ATOM     30  N   GLY A   2      -9.746  11.702  64.628  1.00  0.00    -0.220 N  
HETATM   31  O   UNK A   1      -9.285   9.507  64.300  1.00  0.00    -0.229 OA 
BRANCH  30  32
ATOM     32  CA  GLY A   2     -10.898  11.635  63.738  1.00  0.00    -0.424 C  
ATOM     33  OXT GLY A   2     -13.319  11.948  63.818  1.00  0.00    -0.614 OA 
ATOM     34  C   GLY A   2     -12.207  12.295  64.196  1.00  0.00    -0.446 C  
ATOM     35  O   GLY A   2     -12.042  13.439  64.887  1.00  0.00    -0.356 OA 
ENDBRANCH  30  32
ENDBRANCH  27  28
BRANCH  27  36
HETATM   36  N   UNK A   1      -7.414  12.067  66.288  1.00  0.00    -0.218 N  
HETATM   37  H   UNK A   1      -6.767  12.682  65.795  1.00  0.00     0.000 HD 
HETATM   38  O   UNK A   1      -8.873  11.895  68.046  1.00  0.00    -0.163 OA 
HETATM   39  C   UNK A   1      -7.984  12.504  67.460  1.00  0.00    -0.175 C  
BRANCH  39  40
HETATM   40  C   UNK A   1      -7.553  13.880  67.946  1.00  0.00    -0.158 C  
BRANCH  40  41
HETATM   41  C   UNK A   1      -8.675  14.889  68.256  1.00  0.00    -0.166 C  
BRANCH  41  42
HETATM   42  C   UNK A   1      -9.706  15.171  67.153  1.00  0.00    -0.228 C  
HETATM   43  N   UNK A   1      -9.213  14.775  65.806  1.00  0.00    -0.488 NA 
HETATM   44  C   UNK A   1     -10.010  16.656  67.103  1.00  0.00    -0.268 C  
HETATM   45  O   UNK A   1     -10.740  17.307  67.828  1.00  0.00    -0.368 OA 
HETATM   46  O   UNK A   1      -9.266  17.224  66.126  1.00  0.00    -0.413 OA 
HETATM   47  H2  UNK A   1      -8.918  13.799  65.794  1.00  0.00     0.000 HD 
HETATM   48  H1  UNK A   1      -9.898  14.962  65.073  1.00  0.00     0.000 HD 
ENDBRANCH  41  42
ENDBRANCH  40  41
ENDBRANCH  39  40
ENDBRANCH  27  36
ENDBRANCH  26  27
ENDBRANCH  25  26
ENDBRANCH  24  25
ENDBRANCH  23  24
ENDBRANCH  14  23
ENDBRANCH  11  14
ENDBRANCH   9  10
ENDBRANCH   8   9
ENDBRANCH   4   8
TORSDOF 17
ENDMDL
MODEL       28
REMARK 921   NORMALIZED FREE ENERGY PREDICTED BY IDOCK:   -5.71 KCAL/MOL
REMARK 922        TOTAL FREE ENERGY PREDICTED BY IDOCK:  -14.35 KCAL/MOL
REMARK 923 INTER-LIGAND FREE ENERGY PREDICTED BY IDOCK:  -11.49 KCAL/MOL
REMARK 924 INTRA-LIGAND FREE ENERGY PREDICTED BY IDOCK:   -2.87 KCAL/MOL
REMARK 927      BINDING AFFINITY PREDICTED BY RF-SCORE:    0.00 PKD
ROOT
HETATM    1  N   UNK A   1     -12.291  10.848  69.142  1.00  0.00    -0.693 NA 
HETATM    2  H1  UNK A   1     -12.093   9.861  69.306  1.00  0.00     0.000 HD 
HETATM    3  H2  UNK A   1     -11.714  11.211  68.384  1.00  0.00     0.000 HD 
HETATM    4  C   UNK A   1     -12.153  11.692  70.360  1.00  0.00    -0.373 C  
HETATM    5  O   UNK A   1     -13.458  11.710  72.440  1.00  0.00    -0.291 OA 
HETATM    6  C   UNK A   1     -13.029  11.097  71.476  1.00  0.00    -0.437 C  
HETATM    7  O   UNK A   1     -13.270   9.780  71.253  1.00  0.00    -0.372 OA 
ENDROOT
BRANCH   4   8
HETATM    8  C   UNK A   1     -12.450  13.173  70.114  1.00  0.00    -0.192 C  
BRANCH   8   9
HETATM    9  C   UNK A   1     -11.971  13.713  68.765  1.00  0.00    -0.394 C  
BRANCH   9  10
HETATM   10  C   UNK A   1     -10.656  14.436  68.941  1.00  0.00    -0.247 C  
HETATM   11  N   UNK A   1      -9.825  14.382  67.842  1.00  0.00    -0.220 N  
HETATM   12  O   UNK A   1     -10.345  14.986  69.993  1.00  0.00    -0.184 OA 
HETATM   13  H   UNK A   1     -10.107  13.863  67.011  1.00  0.00     0.000 HD 
BRANCH  11  14
HETATM   14  C   UNK A   1      -8.532  15.078  67.875  1.00  0.00    -0.147 C  
BRANCH  14  15
HETATM   15  C   UNK A   1      -8.609  16.310  66.950  1.00  0.00    -0.215 C  
ATOM     16  H   GLY A   2     -10.412  16.833  67.819  1.00  0.00     0.000 HD 
ATOM     17  N   GLY A   2      -9.712  17.114  67.134  1.00  0.00    -0.254 N  
HETATM   18  O   UNK A   1      -7.765  16.549  66.100  1.00  0.00    -0.257 OA 
BRANCH  17  19
ATOM     19  CA  GLY A   2      -9.918  18.346  66.392  1.00  0.00    -0.386 C  
ATOM     20  C   GLY A   2     -10.052  19.590  67.255  1.00  0.00    -0.405 C  
ATOM     21  O   GLY A   2     -10.521  19.372  68.520  1.00  0.00    -0.355 OA 
ATOM     22  OXT GLY A   2      -9.827  20.722  66.852  1.00  0.00    -0.380 OA 
ENDBRANCH  17  19
ENDBRANCH  14  15
BRANCH  14  23
HETATM   23  C   UNK A   1      -7.394  14.130  67.457  1.00  0.00    -0.175 C  
BRANCH  23  24
HETATM   24  S   UNK A   1      -7.709  12.353  67.691  1.00  0.00    -0.164 SA 
BRANCH  24  25
HETATM   25  S   UNK A   1      -6.030  11.511  66.869  1.00  0.00    -0.139 SA 
BRANCH  25  26
HETATM   26  C   UNK A   1      -6.736  10.398  65.603  1.00  0.00    -0.127 C  
BRANCH  26  27
HETATM   27  C   UNK A   1      -8.229  10.064  65.777  1.00  0.00    -0.130 C  
BRANCH  27  28
HETATM   28  C   UNK A   1      -9.059  10.617  64.580  1.00  0.00    -0.217 C  
ATOM     29  H   GLY A   2      -9.914  12.106  65.769  1.00  0.00     0.000 HD 
ATOM     30  N   GLY A   2      -9.836  11.731  64.823  1.00  0.00    -0.236 N  
HETATM   31  O   UNK A   1      -8.943  10.177  63.437  1.00  0.00    -0.200 OA 
BRANCH  30  32
ATOM     32  CA  GLY A   2     -10.545  12.367  63.720  1.00  0.00    -0.452 C  
ATOM     33  OXT GLY A   2     -12.600  13.627  63.322  1.00  0.00    -0.816 OA 
ATOM     34  C   GLY A   2     -11.651  13.378  64.056  1.00  0.00    -0.385 C  
ATOM     35  O   GLY A   2     -11.398  14.144  65.134  1.00  0.00    -0.313 OA 
ENDBRANCH  30  32
ENDBRANCH  27  28
BRANCH  27  36
HETATM   36  N   UNK A   1      -8.506   8.690  66.250  1.00  0.00    -0.120 N  
HETATM   37  H   UNK A   1      -7.863   7.941  65.995  1.00  0.00     0.000 HD 
HETATM   38  O   UNK A   1     -10.351   9.240  67.492  1.00  0.00    -0.228 OA 
HETATM   39  C   UNK A   1      -9.603   8.389  67.023  1.00  0.00    -0.190 C  
BRANCH  39  40
HETATM   40  C   UNK A   1      -9.781   6.925  67.398  1.00  0.00    -0.172 C  
BRANCH  40  41
HETATM   41  C   UNK A   1     -11.155   6.515  67.962  1.00  0.00    -0.332 C  
BRANCH  41  42
HETATM   42  C   UNK A   1     -11.281   6.355  69.484  1.00  0.00    -0.412 C  
HETATM   43  N   UNK A   1     -12.531   6.964  70.014  1.00  0.00    -0.334 NA 
HETATM   44  C   UNK A   1     -10.117   7.046  70.170  1.00  0.00    -0.187 C  
HETATM   45  O   UNK A   1      -8.975   6.648  70.312  1.00  0.00    -0.150 OA 
HETATM   46  O   UNK A   1     -10.513   8.274  70.575  1.00  0.00    -0.204 OA 
HETATM   47  H2  UNK A   1     -13.352   6.595  69.536  1.00  0.00     0.000 HD 
HETATM   48  H1  UNK A   1     -12.615   6.858  71.025  1.00  0.00     0.000 HD 
ENDBRANCH  41  42
ENDBRANCH  40  41
ENDBRANCH  39  40
ENDBRANCH  27  36
ENDBRANCH  26  27
ENDBRANCH  25  26
ENDBRANCH  24  25
ENDBRANCH  23  24
ENDBRANCH  14  23
ENDBRANCH  11  14
ENDBRANCH   9  10
ENDBRANCH   8   9
ENDBRANCH   4   8
TORSDOF 17
ENDMDL
MODEL       29
REMARK 921   NORMALIZED FREE ENERGY PREDICTED BY IDOCK:   -5.70 KCAL/MOL
REMARK 922        TOTAL FREE ENERGY PREDICTED BY IDOCK:  -14.34 KCAL/MOL
REMARK 923 INTER-LIGAND FREE ENERGY PREDICTED BY IDOCK:  -12.74 KCAL/MOL
REMARK 924 INTRA-LIGAND FREE ENERGY PREDICTED BY IDOCK:   -1.60 KCAL/MOL
REMARK 927      BINDING AFFINITY PREDICTED BY RF-SCORE:    0.00 PKD
ROOT
HETATM    1  N   UNK A   1     -13.292  15.837  72.376  1.00  0.00    -0.475 NA 
HETATM    2  H1  UNK A   1     -14.132  15.463  72.818  1.00  0.00     0.000 HD 
HETATM    3  H2  UNK A   1     -13.357  16.851  72.278  1.00  0.00     0.000 HD 
HETATM    4  C   UNK A   1     -12.973  15.201  71.070  1.00  0.00    -0.431 C  
HETATM    5  O   UNK A   1     -12.301  12.898  70.544  1.00  0.00    -0.342 OA 
HETATM    6  C   UNK A   1     -12.901  13.677  71.268  1.00  0.00    -0.344 C  
HETATM    7  O   UNK A   1     -13.602  13.296  72.366  1.00  0.00    -0.564 OA 
ENDROOT
BRANCH   4   8
HETATM    8  C   UNK A   1     -11.713  15.762  70.408  1.00  0.00    -0.390 C  
BRANCH   8   9
HETATM    9  C   UNK A   1     -11.778  15.873  68.884  1.00  0.00    -0.376 C  
BRANCH   9  10
HETATM   10  C   UNK A   1     -10.425  16.273  68.342  1.00  0.00    -0.282 C  
HETATM   11  N   UNK A   1      -9.460  16.468  69.307  1.00  0.00    -0.204 N  
HETATM   12  O   UNK A   1     -10.224  16.447  67.143  1.00  0.00    -0.271 OA 
HETATM   13  H   UNK A   1      -9.694  16.367  70.294  1.00  0.00     0.000 HD 
BRANCH  11  14
HETATM   14  C   UNK A   1      -8.093  16.825  68.904  1.00  0.00    -0.230 C  
BRANCH  14  15
HETATM   15  C   UNK A   1      -8.094  18.277  68.384  1.00  0.00    -0.307 C  
ATOM     16  H   GLY A   2      -6.579  17.791  67.061  1.00  0.00     0.000 HD 
ATOM     17  N   GLY A   2      -7.200  18.539  67.369  1.00  0.00    -0.205 N  
HETATM   18  O   UNK A   1      -8.820  19.143  68.849  1.00  0.00    -0.349 OA 
BRANCH  17  19
ATOM     19  CA  GLY A   2      -7.105  19.835  66.720  1.00  0.00    -0.219 C  
ATOM     20  C   GLY A   2      -6.591  19.791  65.290  1.00  0.00    -0.287 C  
ATOM     21  O   GLY A   2      -5.785  18.727  64.995  1.00  0.00    -0.209 OA 
ATOM     22  OXT GLY A   2      -6.812  20.663  64.463  1.00  0.00    -0.234 OA 
ENDBRANCH  17  19
ENDBRANCH  14  15
BRANCH  14  23
HETATM   23  C   UNK A   1      -7.568  15.847  67.839  1.00  0.00    -0.133 C  
BRANCH  23  24
HETATM   24  S   UNK A   1      -7.169  14.169  68.423  1.00  0.00    -0.122 SA 
BRANCH  24  25
HETATM   25  S   UNK A   1      -8.874  13.136  67.946  1.00  0.00    -0.206 SA 
BRANCH  25  26
HETATM   26  C   UNK A   1      -8.363  11.402  68.217  1.00  0.00    -0.152 C  
BRANCH  26  27
HETATM   27  C   UNK A   1      -9.375  10.337  67.754  1.00  0.00    -0.144 C  
BRANCH  27  28
HETATM   28  C   UNK A   1     -10.322   9.934  68.923  1.00  0.00    -0.205 C  
ATOM     29  H   GLY A   2      -8.741   9.114  70.014  1.00  0.00     0.000 HD 
ATOM     30  N   GLY A   2      -9.734   9.343  70.024  1.00  0.00    -0.208 N  
HETATM   31  O   UNK A   1     -11.515  10.234  68.941  1.00  0.00    -0.213 OA 
BRANCH  30  32
ATOM     32  CA  GLY A   2     -10.545   9.048  71.199  1.00  0.00    -0.290 C  
ATOM     33  OXT GLY A   2     -10.433   7.702  73.234  1.00  0.00    -0.348 OA 
ATOM     34  C   GLY A   2      -9.858   8.403  72.411  1.00  0.00    -0.308 C  
ATOM     35  O   GLY A   2      -8.602   8.835  72.635  1.00  0.00    -0.411 OA 
ENDBRANCH  30  32
ENDBRANCH  27  28
BRANCH  27  36
HETATM   36  N   UNK A   1      -9.968  10.583  66.421  1.00  0.00    -0.210 N  
HETATM   37  H   UNK A   1     -10.936  10.898  66.362  1.00  0.00     0.000 HD 
HETATM   38  O   UNK A   1      -8.055  10.158  65.234  1.00  0.00    -0.139 OA 
HETATM   39  C   UNK A   1      -9.257  10.400  65.258  1.00  0.00    -0.199 C  
BRANCH  39  40
HETATM   40  C   UNK A   1     -10.012  10.651  63.962  1.00  0.00    -0.401 C  
BRANCH  40  41
HETATM   41  C   UNK A   1     -10.457  12.100  63.687  1.00  0.00    -0.495 C  
BRANCH  41  42
HETATM   42  C   UNK A   1     -11.937  12.445  63.912  1.00  0.00    -0.486 C  
HETATM   43  N   UNK A   1     -12.429  13.472  62.956  1.00  0.00    -0.925 NA 
HETATM   44  C   UNK A   1     -12.126  13.003  65.310  1.00  0.00    -0.441 C  
HETATM   45  O   UNK A   1     -12.197  12.400  66.365  1.00  0.00    -0.604 OA 
HETATM   46  O   UNK A   1     -12.139  14.354  65.245  1.00  0.00    -0.378 OA 
HETATM   47  H2  UNK A   1     -12.260  13.189  61.991  1.00  0.00     0.000 HD 
HETATM   48  H1  UNK A   1     -13.411  13.702  63.105  1.00  0.00     0.000 HD 
ENDBRANCH  41  42
ENDBRANCH  40  41
ENDBRANCH  39  40
ENDBRANCH  27  36
ENDBRANCH  26  27
ENDBRANCH  25  26
ENDBRANCH  24  25
ENDBRANCH  23  24
ENDBRANCH  14  23
ENDBRANCH  11  14
ENDBRANCH   9  10
ENDBRANCH   8   9
ENDBRANCH   4   8
TORSDOF 17
ENDMDL
MODEL       30
REMARK 921   NORMALIZED FREE ENERGY PREDICTED BY IDOCK:   -5.69 KCAL/MOL
REMARK 922        TOTAL FREE ENERGY PREDICTED BY IDOCK:  -14.32 KCAL/MOL
REMARK 923 INTER-LIGAND FREE ENERGY PREDICTED BY IDOCK:  -11.25 KCAL/MOL
REMARK 924 INTRA-LIGAND FREE ENERGY PREDICTED BY IDOCK:   -3.07 KCAL/MOL
REMARK 927      BINDING AFFINITY PREDICTED BY RF-SCORE:    0.00 PKD
ROOT
HETATM    1  N   UNK A   1     -12.684   7.209  70.684  1.00  0.00    -0.597 NA 
HETATM    2  H1  UNK A   1     -13.322   7.695  71.313  1.00  0.00     0.000 HD 
HETATM    3  H2  UNK A   1     -12.722   6.202  70.839  1.00  0.00     0.000 HD 
HETATM    4  C   UNK A   1     -11.282   7.701  70.762  1.00  0.00    -0.268 C  
HETATM    5  O   UNK A   1     -10.323   9.879  70.153  1.00  0.00    -0.255 OA 
HETATM    6  C   UNK A   1     -11.279   9.223  70.536  1.00  0.00    -0.265 C  
HETATM    7  O   UNK A   1     -12.493   9.758  70.823  1.00  0.00    -0.280 OA 
ENDROOT
BRANCH   4   8
HETATM    8  C   UNK A   1     -10.324   6.971  69.818  1.00  0.00    -0.225 C  
BRANCH   8   9
HETATM    9  C   UNK A   1     -10.940   6.526  68.490  1.00  0.00    -0.360 C  
BRANCH   9  10
HETATM   10  C   UNK A   1     -10.211   7.183  67.341  1.00  0.00    -0.226 C  
HETATM   11  N   UNK A   1     -10.213   8.562  67.380  1.00  0.00    -0.239 N  
HETATM   12  O   UNK A   1      -9.699   6.536  66.433  1.00  0.00    -0.156 OA 
HETATM   13  H   UNK A   1     -10.703   9.053  68.127  1.00  0.00     0.000 HD 
BRANCH  11  14
HETATM   14  C   UNK A   1      -9.506   9.317  66.337  1.00  0.00    -0.218 C  
BRANCH  14  15
HETATM   15  C   UNK A   1      -8.102   9.684  66.859  1.00  0.00    -0.113 C  
ATOM     16  H   GLY A   2      -8.880  11.403  67.707  1.00  0.00     0.000 HD 
ATOM     17  N   GLY A   2      -8.033  10.848  67.593  1.00  0.00    -0.113 N  
HETATM   18  O   UNK A   1      -7.114   9.006  66.624  1.00  0.00    -0.080 OA 
BRANCH  17  19
ATOM     19  CA  GLY A   2      -6.805  11.317  68.210  1.00  0.00    -0.064 C  
ATOM     20  C   GLY A   2      -6.914  12.674  68.887  1.00  0.00    -0.086 C  
ATOM     21  O   GLY A   2      -7.878  13.499  68.380  1.00  0.00    -0.133 OA 
ATOM     22  OXT GLY A   2      -6.164  13.051  69.775  1.00  0.00    -0.124 OA 
ENDBRANCH  17  19
ENDBRANCH  14  15
BRANCH  14  23
HETATM   23  C   UNK A   1     -10.304  10.571  65.939  1.00  0.00    -0.206 C  
BRANCH  23  24
HETATM   24  S   UNK A   1      -9.918  11.277  64.306  1.00  0.00    -0.324 SA 
BRANCH  24  25
HETATM   25  S   UNK A   1     -10.592  13.203  64.505  1.00  0.00    -0.411 SA 
BRANCH  25  26
HETATM   26  C   UNK A   1     -11.776  13.057  65.890  1.00  0.00    -0.394 C  
BRANCH  26  27
HETATM   27  C   UNK A   1     -11.497  13.974  67.095  1.00  0.00    -0.352 C  
BRANCH  27  28
HETATM   28  C   UNK A   1     -11.893  13.268  68.426  1.00  0.00    -0.360 C  
ATOM     29  H   GLY A   2     -11.898  15.079  69.467  1.00  0.00     0.000 HD 
ATOM     30  N   GLY A   2     -12.090  14.079  69.525  1.00  0.00    -0.338 N  
HETATM   31  O   UNK A   1     -12.148  12.066  68.486  1.00  0.00    -0.367 OA 
BRANCH  30  32
ATOM     32  CA  GLY A   2     -12.575  13.496  70.770  1.00  0.00    -0.309 C  
ATOM     33  OXT GLY A   2     -13.293  14.210  72.993  1.00  0.00    -0.635 OA 
ATOM     34  C   GLY A   2     -13.260  14.420  71.786  1.00  0.00    -0.358 C  
ATOM     35  O   GLY A   2     -14.018  15.388  71.237  1.00  0.00    -0.497 OA 
ENDBRANCH  30  32
ENDBRANCH  27  28
BRANCH  27  36
HETATM   36  N   UNK A   1     -10.208  14.697  67.039  1.00  0.00    -0.259 N  
HETATM   37  H   UNK A   1      -9.349  14.164  66.896  1.00  0.00     0.000 HD 
HETATM   38  O   UNK A   1     -11.110  16.795  67.211  1.00  0.00    -0.113 OA 
HETATM   39  C   UNK A   1     -10.127  16.063  67.174  1.00  0.00    -0.270 C  
BRANCH  39  40
HETATM   40  C   UNK A   1      -8.729  16.662  67.138  1.00  0.00    -0.215 C  
BRANCH  40  41
HETATM   41  C   UNK A   1      -8.588  18.123  67.607  1.00  0.00    -0.252 C  
BRANCH  41  42
HETATM   42  C   UNK A   1      -8.531  19.214  66.528  1.00  0.00    -0.317 C  
HETATM   43  N   UNK A   1      -7.396  20.153  66.734  1.00  0.00    -0.258 NA 
HETATM   44  C   UNK A   1      -9.807  20.035  66.562  1.00  0.00    -0.459 C  
HETATM   45  O   UNK A   1     -10.900  19.760  66.101  1.00  0.00    -0.420 OA 
HETATM   46  O   UNK A   1      -9.585  21.161  67.277  1.00  0.00    -0.335 OA 
HETATM   47  H2  UNK A   1      -6.511  19.652  66.797  1.00  0.00     0.000 HD 
HETATM   48  H1  UNK A   1      -7.359  20.878  66.017  1.00  0.00     0.000 HD 
ENDBRANCH  41  42
ENDBRANCH  40  41
ENDBRANCH  39  40
ENDBRANCH  27  36
ENDBRANCH  26  27
ENDBRANCH  25  26
ENDBRANCH  24  25
ENDBRANCH  23  24
ENDBRANCH  14  23
ENDBRANCH  11  14
ENDBRANCH   9  10
ENDBRANCH   8   9
ENDBRANCH   4   8
TORSDOF 17
ENDMDL
MODEL       31
REMARK 921   NORMALIZED FREE ENERGY PREDICTED BY IDOCK:   -5.69 KCAL/MOL
REMARK 922        TOTAL FREE ENERGY PREDICTED BY IDOCK:  -14.31 KCAL/MOL
REMARK 923 INTER-LIGAND FREE ENERGY PREDICTED BY IDOCK:  -11.11 KCAL/MOL
REMARK 924 INTRA-LIGAND FREE ENERGY PREDICTED BY IDOCK:   -3.20 KCAL/MOL
REMARK 927      BINDING AFFINITY PREDICTED BY RF-SCORE:    0.00 PKD
ROOT
HETATM    1  N   UNK A   1     -12.760  10.578  70.008  1.00  0.00    -0.522 NA 
HETATM    2  H1  UNK A   1     -13.747  10.407  70.196  1.00  0.00     0.000 HD 
HETATM    3  H2  UNK A   1     -12.619  10.842  69.032  1.00  0.00     0.000 HD 
HETATM    4  C   UNK A   1     -11.878   9.439  70.378  1.00  0.00    -0.090 C  
HETATM    5  O   UNK A   1     -11.356   8.479  72.578  1.00  0.00    -0.368 OA 
HETATM    6  C   UNK A   1     -12.137   9.071  71.849  1.00  0.00    -0.378 C  
HETATM    7  O   UNK A   1     -13.365   9.491  72.245  1.00  0.00    -0.438 OA 
ENDROOT
BRANCH   4   8
HETATM    8  C   UNK A   1     -10.396   9.696  70.095  1.00  0.00    -0.315 C  
BRANCH   8   9
HETATM    9  C   UNK A   1     -10.103  10.394  68.765  1.00  0.00    -0.198 C  
BRANCH   9  10
HETATM   10  C   UNK A   1      -8.612  10.574  68.599  1.00  0.00    -0.139 C  
HETATM   11  N   UNK A   1      -7.958  10.986  69.740  1.00  0.00    -0.294 N  
HETATM   12  O   UNK A   1      -8.047  10.405  67.523  1.00  0.00    -0.107 OA 
HETATM   13  H   UNK A   1      -8.482  11.169  70.595  1.00  0.00     0.000 HD 
BRANCH  11  14
HETATM   14  C   UNK A   1      -6.499  11.162  69.717  1.00  0.00    -0.137 C  
BRANCH  14  15
HETATM   15  C   UNK A   1      -5.891  10.405  70.914  1.00  0.00    -0.068 C  
ATOM     16  H   GLY A   2      -6.649   8.633  70.163  1.00  0.00     0.000 HD 
ATOM     17  N   GLY A   2      -6.090   9.042  70.911  1.00  0.00    -0.043 N  
HETATM   18  O   UNK A   1      -5.290  10.971  71.815  1.00  0.00    -0.319 OA 
BRANCH  17  19
ATOM     19  CA  GLY A   2      -5.540   8.164  71.929  1.00  0.00    -0.036 C  
ATOM     20  C   GLY A   2      -6.529   7.736  73.000  1.00  0.00    -0.067 C  
ATOM     21  O   GLY A   2      -7.561   8.606  73.219  1.00  0.00    -0.364 OA 
ATOM     22  OXT GLY A   2      -6.402   6.728  73.678  1.00  0.00    -0.063 OA 
ENDBRANCH  17  19
ENDBRANCH  14  15
BRANCH  14  23
HETATM   23  C   UNK A   1      -6.132  12.656  69.749  1.00  0.00    -0.134 C  
BRANCH  23  24
HETATM   24  S   UNK A   1      -5.540  13.367  68.181  1.00  0.00    -0.117 SA 
BRANCH  24  25
HETATM   25  S   UNK A   1      -7.226  14.290  67.470  1.00  0.00    -0.126 SA 
BRANCH  25  26
HETATM   26  C   UNK A   1      -8.185  14.575  68.999  1.00  0.00    -0.076 C  
BRANCH  26  27
HETATM   27  C   UNK A   1      -9.680  14.884  68.792  1.00  0.00    -0.225 C  
BRANCH  27  28
HETATM   28  C   UNK A   1      -9.965  16.397  69.032  1.00  0.00    -0.267 C  
ATOM     29  H   GLY A   2      -8.324  16.962  67.870  1.00  0.00     0.000 HD 
ATOM     30  N   GLY A   2      -9.131  17.295  68.397  1.00  0.00    -0.258 N  
HETATM   31  O   UNK A   1     -10.954  16.794  69.647  1.00  0.00    -0.287 OA 
BRANCH  30  32
ATOM     32  CA  GLY A   2      -9.413  18.723  68.484  1.00  0.00    -0.358 C  
ATOM     33  OXT GLY A   2      -9.088  20.758  67.174  1.00  0.00    -0.317 OA 
ATOM     34  C   GLY A   2      -9.334  19.558  67.199  1.00  0.00    -0.326 C  
ATOM     35  O   GLY A   2      -9.768  18.923  66.094  1.00  0.00    -0.402 OA 
ENDBRANCH  30  32
ENDBRANCH  27  28
BRANCH  27  36
HETATM   36  N   UNK A   1     -10.291  14.231  67.614  1.00  0.00    -0.246 N  
HETATM   37  H   UNK A   1      -9.834  14.323  66.707  1.00  0.00     0.000 HD 
HETATM   38  O   UNK A   1     -11.997  13.225  68.766  1.00  0.00    -0.325 OA 
HETATM   39  C   UNK A   1     -11.455  13.504  67.702  1.00  0.00    -0.318 C  
BRANCH  39  40
HETATM   40  C   UNK A   1     -11.987  12.927  66.399  1.00  0.00    -0.462 C  
BRANCH  40  41
HETATM   41  C   UNK A   1     -12.543  13.930  65.371  1.00  0.00    -0.538 C  
BRANCH  41  42
HETATM   42  C   UNK A   1     -11.623  14.350  64.216  1.00  0.00    -0.262 C  
HETATM   43  N   UNK A   1     -10.468  13.428  64.050  1.00  0.00    -0.612 NA 
HETATM   44  C   UNK A   1     -11.059  15.733  64.486  1.00  0.00    -0.277 C  
HETATM   45  O   UNK A   1     -11.597  16.815  64.334  1.00  0.00    -0.902 OA 
HETATM   46  O   UNK A   1      -9.823  15.607  65.018  1.00  0.00    -0.322 OA 
HETATM   47  H2  UNK A   1     -10.780  12.464  63.940  1.00  0.00     0.000 HD 
HETATM   48  H1  UNK A   1      -9.856  13.707  63.282  1.00  0.00     0.000 HD 
ENDBRANCH  41  42
ENDBRANCH  40  41
ENDBRANCH  39  40
ENDBRANCH  27  36
ENDBRANCH  26  27
ENDBRANCH  25  26
ENDBRANCH  24  25
ENDBRANCH  23  24
ENDBRANCH  14  23
ENDBRANCH  11  14
ENDBRANCH   9  10
ENDBRANCH   8   9
ENDBRANCH   4   8
TORSDOF 17
ENDMDL
MODEL       32
REMARK 921   NORMALIZED FREE ENERGY PREDICTED BY IDOCK:   -5.66 KCAL/MOL
REMARK 922        TOTAL FREE ENERGY PREDICTED BY IDOCK:  -14.25 KCAL/MOL
REMARK 923 INTER-LIGAND FREE ENERGY PREDICTED BY IDOCK:  -12.55 KCAL/MOL
REMARK 924 INTRA-LIGAND FREE ENERGY PREDICTED BY IDOCK:   -1.70 KCAL/MOL
REMARK 927      BINDING AFFINITY PREDICTED BY RF-SCORE:    0.00 PKD
ROOT
HETATM    1  N   UNK A   1     -11.577   4.364  64.741  1.00  0.00    -0.944 NA 
HETATM    2  H1  UNK A   1     -11.510   4.031  63.779  1.00  0.00     0.000 HD 
HETATM    3  H2  UNK A   1     -12.152   5.204  64.792  1.00  0.00     0.000 HD 
HETATM    4  C   UNK A   1     -10.256   4.590  65.386  1.00  0.00    -0.202 C  
HETATM    5  O   UNK A   1      -8.488   2.996  65.995  1.00  0.00    -0.102 OA 
HETATM    6  C   UNK A   1      -9.422   3.301  65.271  1.00  0.00    -0.127 C  
HETATM    7  O   UNK A   1      -9.860   2.531  64.242  1.00  0.00    -0.145 OA 
ENDROOT
BRANCH   4   8
HETATM    8  C   UNK A   1     -10.357   5.089  66.829  1.00  0.00    -0.290 C  
BRANCH   8   9
HETATM    9  C   UNK A   1     -10.961   6.485  66.989  1.00  0.00    -0.466 C  
BRANCH   9  10
HETATM   10  C   UNK A   1     -10.012   7.367  67.766  1.00  0.00    -0.167 C  
HETATM   11  N   UNK A   1     -10.519   8.611  68.079  1.00  0.00    -0.326 N  
HETATM   12  O   UNK A   1      -8.873   7.013  68.054  1.00  0.00    -0.125 OA 
HETATM   13  H   UNK A   1     -11.451   8.879  67.767  1.00  0.00     0.000 HD 
BRANCH  11  14
HETATM   14  C   UNK A   1      -9.705   9.549  68.865  1.00  0.00    -0.164 C  
BRANCH  14  15
HETATM   15  C   UNK A   1     -10.107   9.429  70.349  1.00  0.00    -0.255 C  
ATOM     16  H   GLY A   2     -12.088   9.237  69.784  1.00  0.00     0.000 HD 
ATOM     17  N   GLY A   2     -11.452   9.242  70.580  1.00  0.00    -0.272 N  
HETATM   18  O   UNK A   1      -9.298   9.513  71.259  1.00  0.00    -0.229 OA 
BRANCH  17  19
ATOM     19  CA  GLY A   2     -12.002   9.050  71.911  1.00  0.00    -0.375 C  
ATOM     20  C   GLY A   2     -13.463   9.442  72.055  1.00  0.00    -0.449 C  
ATOM     21  O   GLY A   2     -13.897  10.398  71.179  1.00  0.00     0.081 OA 
ATOM     22  OXT GLY A   2     -14.202   9.002  72.923  1.00  0.00    -0.528 OA 
ENDBRANCH  17  19
ENDBRANCH  14  15
BRANCH  14  23
HETATM   23  C   UNK A   1      -9.883  10.987  68.348  1.00  0.00    -0.182 C  
BRANCH  23  24
HETATM   24  S   UNK A   1      -8.446  11.714  67.500  1.00  0.00    -0.158 SA 
BRANCH  24  25
HETATM   25  S   UNK A   1      -9.340  12.986  66.163  1.00  0.00     0.003 SA 
BRANCH  25  26
HETATM   26  C   UNK A   1      -9.317  14.575  67.066  1.00  0.00    -0.238 C  
BRANCH  26  27
HETATM   27  C   UNK A   1     -10.698  15.198  67.340  1.00  0.00    -0.286 C  
BRANCH  27  28
HETATM   28  C   UNK A   1     -11.586  14.223  68.170  1.00  0.00    -0.332 C  
ATOM     29  H   GLY A   2     -10.848  14.976  69.973  1.00  0.00     0.000 HD 
ATOM     30  N   GLY A   2     -11.517  14.337  69.544  1.00  0.00    -0.274 N  
HETATM   31  O   UNK A   1     -12.407  13.470  67.649  1.00  0.00    -0.248 OA 
BRANCH  30  32
ATOM     32  CA  GLY A   2     -12.406  13.536  70.376  1.00  0.00    -0.327 C  
ATOM     33  OXT GLY A   2     -13.435  13.610  72.590  1.00  0.00    -0.550 OA 
ATOM     34  C   GLY A   2     -13.069  14.209  71.586  1.00  0.00    -0.351 C  
ATOM     35  O   GLY A   2     -13.422  15.493  71.385  1.00  0.00    -0.496 OA 
ENDBRANCH  30  32
ENDBRANCH  27  28
BRANCH  27  36
HETATM   36  N   UNK A   1     -10.669  16.625  67.727  1.00  0.00    -0.340 N  
HETATM   37  H   UNK A   1     -10.711  16.869  68.717  1.00  0.00     0.000 HD 
HETATM   38  O   UNK A   1     -10.396  17.437  65.602  1.00  0.00    -0.589 OA 
HETATM   39  C   UNK A   1     -10.589  17.635  66.797  1.00  0.00    -0.224 C  
BRANCH  39  40
HETATM   40  C   UNK A   1     -10.612  19.055  67.342  1.00  0.00    -0.559 C  
BRANCH  40  41
HETATM   41  C   UNK A   1      -9.577  19.397  68.431  1.00  0.00    -0.460 C  
BRANCH  41  42
HETATM   42  C   UNK A   1      -8.092  19.227  68.081  1.00  0.00    -0.314 C  
HETATM   43  N   UNK A   1      -7.197  19.689  69.175  1.00  0.00    -0.353 NA 
HETATM   44  C   UNK A   1      -7.758  20.047  66.849  1.00  0.00    -0.293 C  
HETATM   45  O   UNK A   1      -7.973  19.783  65.680  1.00  0.00    -0.386 OA 
HETATM   46  O   UNK A   1      -7.214  21.223  67.238  1.00  0.00    -0.508 OA 
HETATM   47  H2  UNK A   1      -7.422  19.228  70.056  1.00  0.00     0.000 HD 
HETATM   48  H1  UNK A   1      -6.210  19.576  68.943  1.00  0.00     0.000 HD 
ENDBRANCH  41  42
ENDBRANCH  40  41
ENDBRANCH  39  40
ENDBRANCH  27  36
ENDBRANCH  26  27
ENDBRANCH  25  26
ENDBRANCH  24  25
ENDBRANCH  23  24
ENDBRANCH  14  23
ENDBRANCH  11  14
ENDBRANCH   9  10
ENDBRANCH   8   9
ENDBRANCH   4   8
TORSDOF 17
ENDMDL
MODEL       33
REMARK 921   NORMALIZED FREE ENERGY PREDICTED BY IDOCK:   -5.65 KCAL/MOL
REMARK 922        TOTAL FREE ENERGY PREDICTED BY IDOCK:  -14.23 KCAL/MOL
REMARK 923 INTER-LIGAND FREE ENERGY PREDICTED BY IDOCK:  -12.79 KCAL/MOL
REMARK 924 INTRA-LIGAND FREE ENERGY PREDICTED BY IDOCK:   -1.44 KCAL/MOL
REMARK 927      BINDING AFFINITY PREDICTED BY RF-SCORE:    0.00 PKD
ROOT
HETATM    1  N   UNK A   1     -13.426  15.843  72.665  1.00  0.00    -0.508 NA 
HETATM    2  H1  UNK A   1     -14.350  15.574  73.004  1.00  0.00     0.000 HD 
HETATM    3  H2  UNK A   1     -13.374  16.852  72.523  1.00  0.00     0.000 HD 
HETATM    4  C   UNK A   1     -13.008  15.116  71.437  1.00  0.00    -0.403 C  
HETATM    5  O   UNK A   1     -12.510  12.736  71.088  1.00  0.00    -0.352 OA 
HETATM    6  C   UNK A   1     -13.117  13.604  71.697  1.00  0.00    -0.372 C  
HETATM    7  O   UNK A   1     -13.989  13.346  72.704  1.00  0.00    -0.755 OA 
ENDROOT
BRANCH   4   8
HETATM    8  C   UNK A   1     -11.622  15.521  70.930  1.00  0.00    -0.410 C  
BRANCH   8   9
HETATM    9  C   UNK A   1     -11.588  16.054  69.497  1.00  0.00    -0.304 C  
BRANCH   9  10
HETATM   10  C   UNK A   1     -10.251  15.743  68.865  1.00  0.00    -0.219 C  
HETATM   11  N   UNK A   1      -9.204  15.663  69.759  1.00  0.00    -0.231 N  
HETATM   12  O   UNK A   1     -10.112  15.616  67.652  1.00  0.00    -0.242 OA 
HETATM   13  H   UNK A   1      -9.363  15.834  70.752  1.00  0.00     0.000 HD 
BRANCH  11  14
HETATM   14  C   UNK A   1      -7.859  15.330  69.273  1.00  0.00    -0.221 C  
BRANCH  14  15
HETATM   15  C   UNK A   1      -7.437  16.383  68.228  1.00  0.00    -0.161 C  
ATOM     16  H   GLY A   2      -8.148  17.880  69.467  1.00  0.00     0.000 HD 
ATOM     17  N   GLY A   2      -7.679  17.692  68.582  1.00  0.00    -0.279 N  
HETATM   18  O   UNK A   1      -6.941  16.083  67.153  1.00  0.00    -0.192 OA 
BRANCH  17  19
ATOM     19  CA  GLY A   2      -7.294  18.817  67.747  1.00  0.00    -0.233 C  
ATOM     20  C   GLY A   2      -8.227  20.015  67.828  1.00  0.00    -0.292 C  
ATOM     21  O   GLY A   2      -9.518  19.723  68.170  1.00  0.00    -0.344 OA 
ATOM     22  OXT GLY A   2      -7.892  21.156  67.548  1.00  0.00    -0.265 OA 
ENDBRANCH  17  19
ENDBRANCH  14  15
BRANCH  14  23
HETATM   23  C   UNK A   1      -7.830  13.910  68.682  1.00  0.00    -0.120 C  
BRANCH  23  24
HETATM   24  S   UNK A   1      -6.483  12.831  69.263  1.00  0.00    -0.086 SA 
BRANCH  24  25
HETATM   25  S   UNK A   1      -7.033  11.012  68.494  1.00  0.00    -0.076 SA 
BRANCH  25  26
HETATM   26  C   UNK A   1      -8.047  10.312  69.844  1.00  0.00    -0.052 C  
BRANCH  26  27
HETATM   27  C   UNK A   1      -9.546  10.154  69.528  1.00  0.00    -0.221 C  
BRANCH  27  28
HETATM   28  C   UNK A   1     -10.306   9.567  70.755  1.00  0.00    -0.306 C  
ATOM     29  H   GLY A   2     -12.161   9.921  69.863  1.00  0.00     0.000 HD 
ATOM     30  N   GLY A   2     -11.683   9.513  70.666  1.00  0.00    -0.273 N  
HETATM   31  O   UNK A   1      -9.724   9.054  71.710  1.00  0.00    -0.304 OA 
BRANCH  30  32
ATOM     32  CA  GLY A   2     -12.447   8.870  71.728  1.00  0.00    -0.362 C  
ATOM     33  OXT GLY A   2     -13.973   6.988  72.030  1.00  0.00    -0.241 OA 
ATOM     34  C   GLY A   2     -12.983   7.453  71.479  1.00  0.00    -0.375 C  
ATOM     35  O   GLY A   2     -12.162   6.664  70.762  1.00  0.00    -0.378 OA 
ENDBRANCH  30  32
ENDBRANCH  27  28
BRANCH  27  36
HETATM   36  N   UNK A   1     -10.151  11.294  68.806  1.00  0.00    -0.214 N  
HETATM   37  H   UNK A   1      -9.963  12.242  69.133  1.00  0.00     0.000 HD 
HETATM   38  O   UNK A   1     -11.129  10.033  67.161  1.00  0.00    -0.189 OA 
HETATM   39  C   UNK A   1     -10.959  11.119  67.707  1.00  0.00    -0.262 C  
BRANCH  39  40
HETATM   40  C   UNK A   1     -11.545  12.382  67.094  1.00  0.00    -0.435 C  
BRANCH  40  41
HETATM   41  C   UNK A   1     -10.792  12.983  65.892  1.00  0.00    -0.291 C  
BRANCH  41  42
HETATM   42  C   UNK A   1     -11.077  12.392  64.504  1.00  0.00    -0.316 C  
HETATM   43  N   UNK A   1     -10.175  12.945  63.458  1.00  0.00    -0.638 NA 
HETATM   44  C   UNK A   1     -12.500  12.720  64.090  1.00  0.00    -0.369 C  
HETATM   45  O   UNK A   1     -13.535  12.179  64.436  1.00  0.00    -0.675 OA 
HETATM   46  O   UNK A   1     -12.484  13.807  63.285  1.00  0.00    -0.819 OA 
HETATM   47  H2  UNK A   1      -9.196  12.824  63.715  1.00  0.00     0.000 HD 
HETATM   48  H1  UNK A   1     -10.365  12.553  62.536  1.00  0.00     0.000 HD 
ENDBRANCH  41  42
ENDBRANCH  40  41
ENDBRANCH  39  40
ENDBRANCH  27  36
ENDBRANCH  26  27
ENDBRANCH  25  26
ENDBRANCH  24  25
ENDBRANCH  23  24
ENDBRANCH  14  23
ENDBRANCH  11  14
ENDBRANCH   9  10
ENDBRANCH   8   9
ENDBRANCH   4   8
TORSDOF 17
ENDMDL
MODEL       34
REMARK 921   NORMALIZED FREE ENERGY PREDICTED BY IDOCK:   -5.64 KCAL/MOL
REMARK 922        TOTAL FREE ENERGY PREDICTED BY IDOCK:  -14.22 KCAL/MOL
REMARK 923 INTER-LIGAND FREE ENERGY PREDICTED BY IDOCK:  -11.22 KCAL/MOL
REMARK 924 INTRA-LIGAND FREE ENERGY PREDICTED BY IDOCK:   -3.00 KCAL/MOL
REMARK 927      BINDING AFFINITY PREDICTED BY RF-SCORE:    0.00 PKD
ROOT
HETATM    1  N   UNK A   1     -12.411  11.634  62.976  1.00  0.00    -0.937 NA 
HETATM    2  H1  UNK A   1     -13.191  12.122  62.536  1.00  0.00     0.000 HD 
HETATM    3  H2  UNK A   1     -12.550  10.624  62.940  1.00  0.00     0.000 HD 
HETATM    4  C   UNK A   1     -12.143  12.078  64.371  1.00  0.00    -0.286 C  
HETATM    5  O   UNK A   1     -11.357  14.242  65.228  1.00  0.00    -0.314 OA 
HETATM    6  C   UNK A   1     -11.956  13.605  64.376  1.00  0.00    -0.437 C  
HETATM    7  O   UNK A   1     -12.551  14.171  63.294  1.00  0.00    -0.766 OA 
ENDROOT
BRANCH   4   8
HETATM    8  C   UNK A   1     -10.973  11.347  65.031  1.00  0.00    -0.271 C  
BRANCH   8   9
HETATM    9  C   UNK A   1      -9.904  10.832  64.065  1.00  0.00    -0.390 C  
BRANCH   9  10
HETATM   10  C   UNK A   1      -8.741  10.264  64.843  1.00  0.00    -0.185 C  
HETATM   11  N   UNK A   1      -9.045   9.899  66.137  1.00  0.00    -0.152 N  
HETATM   12  O   UNK A   1      -7.612  10.177  64.367  1.00  0.00    -0.144 OA 
HETATM   13  H   UNK A   1      -9.985  10.045  66.504  1.00  0.00     0.000 HD 
BRANCH  11  14
HETATM   14  C   UNK A   1      -8.006   9.300  66.986  1.00  0.00    -0.102 C  
BRANCH  14  15
HETATM   15  C   UNK A   1      -8.556   7.993  67.592  1.00  0.00    -0.130 C  
ATOM     16  H   GLY A   2      -9.714   7.711  65.901  1.00  0.00     0.000 HD 
ATOM     17  N   GLY A   2      -9.446   7.305  66.797  1.00  0.00    -0.164 N  
HETATM   18  O   UNK A   1      -8.243   7.600  68.705  1.00  0.00    -0.125 OA 
BRANCH  17  19
ATOM     19  CA  GLY A   2     -10.020   6.028  67.182  1.00  0.00    -0.156 C  
ATOM     20  C   GLY A   2      -9.556   4.847  66.343  1.00  0.00    -0.172 C  
ATOM     21  O   GLY A   2      -9.164   5.157  65.071  1.00  0.00    -0.122 OA 
ATOM     22  OXT GLY A   2      -9.584   3.688  66.730  1.00  0.00    -0.204 OA 
ENDBRANCH  17  19
ENDBRANCH  14  15
BRANCH  14  23
HETATM   23  C   UNK A   1      -7.564  10.285  68.081  1.00  0.00    -0.087 C  
BRANCH  23  24
HETATM   24  S   UNK A   1      -6.334  11.533  67.583  1.00  0.00    -0.075 SA 
BRANCH  24  25
HETATM   25  S   UNK A   1      -7.386  13.279  67.806  1.00  0.00    -0.163 SA 
BRANCH  25  26
HETATM   26  C   UNK A   1      -8.864  12.725  68.727  1.00  0.00     0.184 C  
BRANCH  26  27
HETATM   27  C   UNK A   1     -10.212  12.976  68.025  1.00  0.00    -0.233 C  
BRANCH  27  28
HETATM   28  C   UNK A   1     -11.280  11.947  68.503  1.00  0.00    -0.256 C  
ATOM     29  H   GLY A   2     -10.095  11.363  70.121  1.00  0.00     0.000 HD 
ATOM     30  N   GLY A   2     -10.999  11.253  69.663  1.00  0.00    -0.197 N  
HETATM   31  O   UNK A   1     -12.378  11.836  67.961  1.00  0.00    -0.391 OA 
BRANCH  30  32
ATOM     32  CA  GLY A   2     -12.005  10.362  70.227  1.00  0.00    -0.302 C  
ATOM     33  OXT GLY A   2     -13.342  10.129  72.259  1.00  0.00    -0.415 OA 
ATOM     34  C   GLY A   2     -12.830  10.863  71.421  1.00  0.00    -0.449 C  
ATOM     35  O   GLY A   2     -13.140  12.173  71.375  1.00  0.00    -0.332 OA 
ENDBRANCH  30  32
ENDBRANCH  27  28
BRANCH  27  36
HETATM   36  N   UNK A   1     -10.602  14.399  67.924  1.00  0.00    -0.238 N  
HETATM   37  H   UNK A   1     -10.553  14.861  67.015  1.00  0.00     0.000 HD 
HETATM   38  O   UNK A   1     -11.250  14.619  70.110  1.00  0.00    -0.246 OA 
HETATM   39  C   UNK A   1     -11.028  15.121  69.014  1.00  0.00    -0.244 C  
BRANCH  39  40
HETATM   40  C   UNK A   1     -11.354  16.586  68.765  1.00  0.00    -0.221 C  
BRANCH  40  41
HETATM   41  C   UNK A   1     -10.218  17.465  68.207  1.00  0.00    -0.362 C  
BRANCH  41  42
HETATM   42  C   UNK A   1     -10.299  17.882  66.732  1.00  0.00    -0.355 C  
HETATM   43  N   UNK A   1      -9.818  16.814  65.815  1.00  0.00    -0.552 NA 
HETATM   44  C   UNK A   1      -9.430  19.103  66.496  1.00  0.00    -0.356 C  
HETATM   45  O   UNK A   1      -9.674  20.270  66.748  1.00  0.00    -0.411 OA 
HETATM   46  O   UNK A   1      -8.237  18.704  65.999  1.00  0.00    -0.460 OA 
HETATM   47  H2  UNK A   1     -10.314  15.939  65.978  1.00  0.00     0.000 HD 
HETATM   48  H1  UNK A   1      -9.872  17.091  64.835  1.00  0.00     0.000 HD 
ENDBRANCH  41  42
ENDBRANCH  40  41
ENDBRANCH  39  40
ENDBRANCH  27  36
ENDBRANCH  26  27
ENDBRANCH  25  26
ENDBRANCH  24  25
ENDBRANCH  23  24
ENDBRANCH  14  23
ENDBRANCH  11  14
ENDBRANCH   9  10
ENDBRANCH   8   9
ENDBRANCH   4   8
TORSDOF 17
ENDMDL
MODEL       35
REMARK 921   NORMALIZED FREE ENERGY PREDICTED BY IDOCK:   -5.63 KCAL/MOL
REMARK 922        TOTAL FREE ENERGY PREDICTED BY IDOCK:  -14.20 KCAL/MOL
REMARK 923 INTER-LIGAND FREE ENERGY PREDICTED BY IDOCK:  -12.59 KCAL/MOL
REMARK 924 INTRA-LIGAND FREE ENERGY PREDICTED BY IDOCK:   -1.61 KCAL/MOL
REMARK 927      BINDING AFFINITY PREDICTED BY RF-SCORE:    0.00 PKD
ROOT
HETATM    1  N   UNK A   1     -10.089   4.580  64.752  1.00  0.00    -0.393 NA 
HETATM    2  H1  UNK A   1      -9.762   4.152  63.885  1.00  0.00     0.000 HD 
HETATM    3  H2  UNK A   1     -10.342   5.556  64.599  1.00  0.00     0.000 HD 
HETATM    4  C   UNK A   1      -9.124   4.456  65.877  1.00  0.00    -0.133 C  
HETATM    5  O   UNK A   1      -8.334   2.467  67.084  1.00  0.00    -0.079 OA 
HETATM    6  C   UNK A   1      -8.764   2.971  66.058  1.00  0.00    -0.135 C  
HETATM    7  O   UNK A   1      -8.987   2.275  64.914  1.00  0.00    -0.116 OA 
ENDROOT
BRANCH   4   8
HETATM    8  C   UNK A   1      -9.616   5.097  67.177  1.00  0.00    -0.156 C  
BRANCH   8   9
HETATM    9  C   UNK A   1     -10.867   5.966  67.036  1.00  0.00    -0.379 C  
BRANCH   9  10
HETATM   10  C   UNK A   1     -10.514   7.415  67.276  1.00  0.00    -0.315 C  
HETATM   11  N   UNK A   1     -10.004   8.067  66.173  1.00  0.00    -0.466 N  
HETATM   12  O   UNK A   1     -10.635   7.947  68.376  1.00  0.00    -0.188 OA 
HETATM   13  H   UNK A   1      -9.869   7.563  65.297  1.00  0.00     0.000 HD 
BRANCH  11  14
HETATM   14  C   UNK A   1      -9.656   9.491  66.268  1.00  0.00    -0.226 C  
BRANCH  14  15
HETATM   15  C   UNK A   1      -9.897  10.152  64.896  1.00  0.00    -0.319 C  
ATOM     16  H   GLY A   2     -11.161  11.523  65.792  1.00  0.00     0.000 HD 
ATOM     17  N   GLY A   2     -10.731  11.248  64.909  1.00  0.00    -0.294 N  
HETATM   18  O   UNK A   1      -9.402   9.726  63.864  1.00  0.00    -0.261 OA 
BRANCH  17  19
ATOM     19  CA  GLY A   2     -11.024  12.028  63.720  1.00  0.00    -0.426 C  
ATOM     20  C   GLY A   2     -12.255  12.913  63.830  1.00  0.00    -0.476 C  
ATOM     21  O   GLY A   2     -13.204  12.480  64.712  1.00  0.00    -0.839 OA 
ATOM     22  OXT GLY A   2     -12.439  13.908  63.144  1.00  0.00    -0.766 OA 
ENDBRANCH  17  19
ENDBRANCH  14  15
BRANCH  14  23
HETATM   23  C   UNK A   1      -8.198   9.664  66.728  1.00  0.00    -0.113 C  
BRANCH  23  24
HETATM   24  S   UNK A   1      -7.480  11.321  66.497  1.00  0.00    -0.060 SA 
BRANCH  24  25
HETATM   25  S   UNK A   1      -7.957  12.243  68.264  1.00  0.00    -0.164 SA 
BRANCH  25  26
HETATM   26  C   UNK A   1      -9.727  11.825  68.453  1.00  0.00    -0.197 C  
BRANCH  26  27
HETATM   27  C   UNK A   1     -10.684  13.029  68.526  1.00  0.00    -0.255 C  
BRANCH  27  28
HETATM   28  C   UNK A   1     -11.766  12.805  69.624  1.00  0.00    -0.302 C  
ATOM     29  H   GLY A   2     -11.099  10.858  69.980  1.00  0.00     0.000 HD 
ATOM     30  N   GLY A   2     -11.746  11.589  70.277  1.00  0.00    -0.320 N  
HETATM   31  O   UNK A   1     -12.527  13.697  69.994  1.00  0.00    -0.293 OA 
BRANCH  30  32
ATOM     32  CA  GLY A   2     -12.654  11.358  71.393  1.00  0.00    -0.334 C  
ATOM     33  OXT GLY A   2     -13.944   9.535  72.384  1.00  0.00    -0.381 OA 
ATOM     34  C   GLY A   2     -12.920   9.909  71.824  1.00  0.00    -0.449 C  
ATOM     35  O   GLY A   2     -11.849   9.096  71.738  1.00  0.00    -0.340 OA 
ENDBRANCH  30  32
ENDBRANCH  27  28
BRANCH  27  36
HETATM   36  N   UNK A   1     -10.025  14.352  68.448  1.00  0.00    -0.235 N  
HETATM   37  H   UNK A   1      -9.198  14.525  69.019  1.00  0.00     0.000 HD 
HETATM   38  O   UNK A   1     -11.388  15.194  66.810  1.00  0.00    -0.326 OA 
HETATM   39  C   UNK A   1     -10.490  15.355  67.630  1.00  0.00    -0.272 C  
BRANCH  39  40
HETATM   40  C   UNK A   1      -9.735  16.674  67.688  1.00  0.00    -0.250 C  
BRANCH  40  41
HETATM   41  C   UNK A   1     -10.585  17.956  67.782  1.00  0.00    -0.399 C  
BRANCH  41  42
HETATM   42  C   UNK A   1     -10.157  19.159  66.928  1.00  0.00    -0.373 C  
HETATM   43  N   UNK A   1     -10.633  19.051  65.523  1.00  0.00    -0.512 NA 
HETATM   44  C   UNK A   1      -8.642  19.244  66.886  1.00  0.00    -0.298 C  
HETATM   45  O   UNK A   1      -7.883  19.685  67.729  1.00  0.00    -0.275 OA 
HETATM   46  O   UNK A   1      -8.202  18.668  65.744  1.00  0.00    -0.473 OA 
HETATM   47  H2  UNK A   1     -11.642  18.914  65.486  1.00  0.00     0.000 HD 
HETATM   48  H1  UNK A   1     -10.349  19.850  64.956  1.00  0.00     0.000 HD 
ENDBRANCH  41  42
ENDBRANCH  40  41
ENDBRANCH  39  40
ENDBRANCH  27  36
ENDBRANCH  26  27
ENDBRANCH  25  26
ENDBRANCH  24  25
ENDBRANCH  23  24
ENDBRANCH  14  23
ENDBRANCH  11  14
ENDBRANCH   9  10
ENDBRANCH   8   9
ENDBRANCH   4   8
TORSDOF 17
ENDMDL
MODEL       36
REMARK 921   NORMALIZED FREE ENERGY PREDICTED BY IDOCK:   -5.55 KCAL/MOL
REMARK 922        TOTAL FREE ENERGY PREDICTED BY IDOCK:  -14.04 KCAL/MOL
REMARK 923 INTER-LIGAND FREE ENERGY PREDICTED BY IDOCK:  -12.31 KCAL/MOL
REMARK 924 INTRA-LIGAND FREE ENERGY PREDICTED BY IDOCK:   -1.74 KCAL/MOL
REMARK 927      BINDING AFFINITY PREDICTED BY RF-SCORE:    0.00 PKD
ROOT
HETATM    1  N   UNK A   1     -13.848   7.501  71.032  1.00  0.00    -0.633 NA 
HETATM    2  H1  UNK A   1     -13.714   6.522  70.779  1.00  0.00     0.000 HD 
HETATM    3  H2  UNK A   1     -14.511   7.950  70.400  1.00  0.00     0.000 HD 
HETATM    4  C   UNK A   1     -12.580   8.275  71.103  1.00  0.00    -0.141 C  
HETATM    5  O   UNK A   1     -10.675   8.073  72.640  1.00  0.00    -0.307 OA 
HETATM    6  C   UNK A   1     -11.612   7.553  72.055  1.00  0.00    -0.287 C  
HETATM    7  O   UNK A   1     -11.932   6.238  72.167  1.00  0.00    -0.329 OA 
ENDROOT
BRANCH   4   8
HETATM    8  C   UNK A   1     -12.781   9.744  71.483  1.00  0.00    -0.504 C  
BRANCH   8   9
HETATM    9  C   UNK A   1     -12.505  10.746  70.360  1.00  0.00    -0.430 C  
BRANCH   9  10
HETATM   10  C   UNK A   1     -11.275  10.326  69.590  1.00  0.00    -0.269 C  
HETATM   11  N   UNK A   1     -11.532   9.849  68.322  1.00  0.00    -0.520 N  
HETATM   12  O   UNK A   1     -10.149  10.371  70.076  1.00  0.00    -0.193 OA 
HETATM   13  H   UNK A   1     -12.492   9.779  67.985  1.00  0.00     0.000 HD 
BRANCH  11  14
HETATM   14  C   UNK A   1     -10.414   9.443  67.459  1.00  0.00    -0.280 C  
BRANCH  14  15
HETATM   15  C   UNK A   1     -10.152   7.938  67.666  1.00  0.00    -0.203 C  
ATOM     16  H   GLY A   2      -8.582   8.398  68.933  1.00  0.00     0.000 HD 
ATOM     17  N   GLY A   2      -9.122   7.634  68.528  1.00  0.00    -0.132 N  
HETATM   18  O   UNK A   1     -10.795   7.072  67.093  1.00  0.00    -0.333 OA 
BRANCH  17  19
ATOM     19  CA  GLY A   2      -8.772   6.270  68.886  1.00  0.00    -0.125 C  
ATOM     20  C   GLY A   2      -7.464   5.775  68.290  1.00  0.00    -0.081 C  
ATOM     21  O   GLY A   2      -7.094   6.377  67.120  1.00  0.00    -0.069 OA 
ATOM     22  OXT GLY A   2      -6.805   4.861  68.764  1.00  0.00    -0.049 OA 
ENDBRANCH  17  19
ENDBRANCH  14  15
BRANCH  14  23
HETATM   23  C   UNK A   1      -9.160  10.280  67.765  1.00  0.00    -0.134 C  
BRANCH  23  24
HETATM   24  S   UNK A   1      -8.646  11.452  66.469  1.00  0.00    -0.167 SA 
BRANCH  24  25
HETATM   25  S   UNK A   1      -7.545  12.811  67.537  1.00  0.00    -0.159 SA 
BRANCH  25  26
HETATM   26  C   UNK A   1      -8.843  13.852  68.293  1.00  0.00    -0.185 C  
BRANCH  26  27
HETATM   27  C   UNK A   1      -9.224  15.114  67.496  1.00  0.00    -0.186 C  
BRANCH  27  28
HETATM   28  C   UNK A   1     -10.629  14.947  66.843  1.00  0.00    -0.300 C  
ATOM     29  H   GLY A   2      -9.789  14.414  65.006  1.00  0.00     0.000 HD 
ATOM     30  N   GLY A   2     -10.658  14.524  65.529  1.00  0.00    -0.328 N  
HETATM   31  O   UNK A   1     -11.673  15.058  67.484  1.00  0.00    -0.343 OA 
BRANCH  30  32
ATOM     32  CA  GLY A   2     -11.938  14.237  64.895  1.00  0.00    -0.425 C  
ATOM     33  OXT GLY A   2     -13.206  12.320  64.069  1.00  0.00    -0.757 OA 
ATOM     34  C   GLY A   2     -12.445  12.788  64.906  1.00  0.00    -0.497 C  
ATOM     35  O   GLY A   2     -12.162  12.108  66.033  1.00  0.00    -0.609 OA 
ENDBRANCH  30  32
ENDBRANCH  27  28
BRANCH  27  36
HETATM   36  N   UNK A   1      -8.909  16.392  68.170  1.00  0.00    -0.188 N  
HETATM   37  H   UNK A   1      -9.593  16.794  68.811  1.00  0.00     0.000 HD 
HETATM   38  O   UNK A   1      -6.790  16.586  67.320  1.00  0.00    -0.142 OA 
HETATM   39  C   UNK A   1      -7.723  17.057  67.961  1.00  0.00    -0.180 C  
BRANCH  39  40
HETATM   40  C   UNK A   1      -7.557  18.382  68.690  1.00  0.00    -0.321 C  
BRANCH  40  41
HETATM   41  C   UNK A   1      -8.048  19.645  67.957  1.00  0.00    -0.344 C  
BRANCH  41  42
HETATM   42  C   UNK A   1      -9.532  20.017  68.093  1.00  0.00    -0.276 C  
HETATM   43  N   UNK A   1     -10.162  19.394  69.288  1.00  0.00    -0.574 NA 
HETATM   44  C   UNK A   1     -10.296  19.531  66.876  1.00  0.00    -0.454 C  
HETATM   45  O   UNK A   1     -10.363  20.036  65.770  1.00  0.00    -0.479 OA 
HETATM   46  O   UNK A   1     -10.883  18.348  67.169  1.00  0.00    -0.373 OA 
HETATM   47  H2  UNK A   1      -9.646  19.622  70.137  1.00  0.00     0.000 HD 
HETATM   48  H1  UNK A   1     -11.148  19.642  69.379  1.00  0.00     0.000 HD 
ENDBRANCH  41  42
ENDBRANCH  40  41
ENDBRANCH  39  40
ENDBRANCH  27  36
ENDBRANCH  26  27
ENDBRANCH  25  26
ENDBRANCH  24  25
ENDBRANCH  23  24
ENDBRANCH  14  23
ENDBRANCH  11  14
ENDBRANCH   9  10
ENDBRANCH   8   9
ENDBRANCH   4   8
TORSDOF 17
ENDMDL
MODEL       37
REMARK 921   NORMALIZED FREE ENERGY PREDICTED BY IDOCK:   -5.55 KCAL/MOL
REMARK 922        TOTAL FREE ENERGY PREDICTED BY IDOCK:  -14.03 KCAL/MOL
REMARK 923 INTER-LIGAND FREE ENERGY PREDICTED BY IDOCK:  -12.46 KCAL/MOL
REMARK 924 INTRA-LIGAND FREE ENERGY PREDICTED BY IDOCK:   -1.57 KCAL/MOL
REMARK 927      BINDING AFFINITY PREDICTED BY RF-SCORE:    0.00 PKD
ROOT
HETATM    1  N   UNK A   1      -7.662  17.658  65.841  1.00  0.00    -0.544 NA 
HETATM    2  H1  UNK A   1      -7.029  18.455  65.769  1.00  0.00     0.000 HD 
HETATM    3  H2  UNK A   1      -7.709  17.154  64.955  1.00  0.00     0.000 HD 
HETATM    4  C   UNK A   1      -9.025  18.020  66.314  1.00  0.00    -0.172 C  
HETATM    5  O   UNK A   1      -9.776  18.891  68.484  1.00  0.00    -0.344 OA 
HETATM    6  C   UNK A   1      -8.899  18.788  67.642  1.00  0.00    -0.280 C  
HETATM    7  O   UNK A   1      -7.669  19.348  67.763  1.00  0.00    -0.264 OA 
ENDROOT
BRANCH   4   8
HETATM    8  C   UNK A   1      -9.972  16.824  66.422  1.00  0.00    -0.317 C  
BRANCH   8   9
HETATM    9  C   UNK A   1     -10.698  16.455  65.126  1.00  0.00    -0.309 C  
BRANCH   9  10
HETATM   10  C   UNK A   1     -11.127  15.007  65.174  1.00  0.00    -0.401 C  
HETATM   11  N   UNK A   1     -10.461  14.246  66.112  1.00  0.00    -0.285 N  
HETATM   12  O   UNK A   1     -11.970  14.547  64.409  1.00  0.00    -0.456 OA 
HETATM   13  H   UNK A   1      -9.728  14.664  66.684  1.00  0.00     0.000 HD 
BRANCH  11  14
HETATM   14  C   UNK A   1     -10.814  12.830  66.280  1.00  0.00    -0.275 C  
BRANCH  14  15
HETATM   15  C   UNK A   1     -11.581  12.667  67.608  1.00  0.00    -0.357 C  
ATOM     16  H   GLY A   2     -10.812  14.474  68.260  1.00  0.00     0.000 HD 
ATOM     17  N   GLY A   2     -11.434  13.704  68.503  1.00  0.00    -0.288 N  
HETATM   18  O   UNK A   1     -12.255  11.681  67.863  1.00  0.00    -0.560 OA 
BRANCH  17  19
ATOM     19  CA  GLY A   2     -12.128  13.746  69.779  1.00  0.00    -0.340 C  
ATOM     20  C   GLY A   2     -12.448  15.145  70.279  1.00  0.00    -0.342 C  
ATOM     21  O   GLY A   2     -11.610  16.128  69.832  1.00  0.00    -0.316 OA 
ATOM     22  OXT GLY A   2     -13.342  15.393  71.076  1.00  0.00    -0.485 OA 
ENDBRANCH  17  19
ENDBRANCH  14  15
BRANCH  14  23
HETATM   23  C   UNK A   1      -9.554  11.948  66.246  1.00  0.00    -0.229 C  
BRANCH  23  24
HETATM   24  S   UNK A   1      -9.766  10.281  65.545  1.00  0.00    -0.285 SA 
BRANCH  24  25
HETATM   25  S   UNK A   1      -8.108   9.307  66.254  1.00  0.00    -0.108 SA 
BRANCH  25  26
HETATM   26  C   UNK A   1      -8.705   8.636  67.845  1.00  0.00    -0.137 C  
BRANCH  26  27
HETATM   27  C   UNK A   1     -10.181   8.194  67.862  1.00  0.00    -0.218 C  
BRANCH  27  28
HETATM   28  C   UNK A   1     -10.317   6.717  67.385  1.00  0.00    -0.223 C  
ATOM     29  H   GLY A   2      -8.789   6.090  68.664  1.00  0.00     0.000 HD 
ATOM     30  N   GLY A   2      -9.499   5.788  67.996  1.00  0.00    -0.109 N  
HETATM   31  O   UNK A   1     -11.190   6.355  66.599  1.00  0.00    -0.245 OA 
BRANCH  30  32
ATOM     32  CA  GLY A   2      -9.656   4.374  67.680  1.00  0.00    -0.166 C  
ATOM     33  OXT GLY A   2      -8.972   2.196  68.548  1.00  0.00    -0.093 OA 
ATOM     34  C   GLY A   2      -9.330   3.346  68.773  1.00  0.00    -0.167 C  
ATOM     35  O   GLY A   2      -9.669   3.729  70.018  1.00  0.00    -0.197 OA 
ENDBRANCH  30  32
ENDBRANCH  27  28
BRANCH  27  36
HETATM   36  N   UNK A   1     -10.942   8.620  69.057  1.00  0.00    -0.437 N  
HETATM   37  H   UNK A   1     -11.734   8.056  69.365  1.00  0.00     0.000 HD 
HETATM   38  O   UNK A   1      -9.606  10.414  69.555  1.00  0.00    -0.215 OA 
HETATM   39  C   UNK A   1     -10.617   9.753  69.766  1.00  0.00    -0.257 C  
BRANCH  39  40
HETATM   40  C   UNK A   1     -11.517  10.089  70.946  1.00  0.00    -0.452 C  
BRANCH  40  41
HETATM   41  C   UNK A   1     -13.006   9.717  70.812  1.00  0.00    -0.215 C  
BRANCH  41  42
HETATM   42  C   UNK A   1     -13.531   8.558  71.670  1.00  0.00    -0.346 C  
HETATM   43  N   UNK A   1     -13.870   8.987  73.053  1.00  0.00    -1.108 NA 
HETATM   44  C   UNK A   1     -12.468   7.480  71.781  1.00  0.00    -0.330 C  
HETATM   45  O   UNK A   1     -12.166   6.625  70.967  1.00  0.00    -0.367 OA 
HETATM   46  O   UNK A   1     -11.803   7.637  72.948  1.00  0.00    -0.225 OA 
HETATM   47  H2  UNK A   1     -14.527   9.766  73.046  1.00  0.00     0.000 HD 
HETATM   48  H1  UNK A   1     -14.218   8.216  73.624  1.00  0.00     0.000 HD 
ENDBRANCH  41  42
ENDBRANCH  40  41
ENDBRANCH  39  40
ENDBRANCH  27  36
ENDBRANCH  26  27
ENDBRANCH  25  26
ENDBRANCH  24  25
ENDBRANCH  23  24
ENDBRANCH  14  23
ENDBRANCH  11  14
ENDBRANCH   9  10
ENDBRANCH   8   9
ENDBRANCH   4   8
TORSDOF 17
ENDMDL
MODEL       38
REMARK 921   NORMALIZED FREE ENERGY PREDICTED BY IDOCK:   -5.54 KCAL/MOL
REMARK 922        TOTAL FREE ENERGY PREDICTED BY IDOCK:  -14.02 KCAL/MOL
REMARK 923 INTER-LIGAND FREE ENERGY PREDICTED BY IDOCK:  -11.65 KCAL/MOL
REMARK 924 INTRA-LIGAND FREE ENERGY PREDICTED BY IDOCK:   -2.37 KCAL/MOL
REMARK 927      BINDING AFFINITY PREDICTED BY RF-SCORE:    0.00 PKD
ROOT
HETATM    1  N   UNK A   1     -11.682   5.207  72.758  1.00  0.00    -0.268 NA 
HETATM    2  H1  UNK A   1     -11.176   4.972  73.612  1.00  0.00     0.000 HD 
HETATM    3  H2  UNK A   1     -11.869   4.368  72.208  1.00  0.00     0.000 HD 
HETATM    4  C   UNK A   1     -11.003   6.240  71.930  1.00  0.00    -0.256 C  
HETATM    5  O   UNK A   1     -10.558   8.611  72.394  1.00  0.00    -0.331 OA 
HETATM    6  C   UNK A   1     -10.731   7.475  72.807  1.00  0.00    -0.330 C  
HETATM    7  O   UNK A   1     -10.703   7.140  74.122  1.00  0.00    -0.231 OA 
ENDROOT
BRANCH   4   8
HETATM    8  C   UNK A   1     -11.761   6.592  70.649  1.00  0.00    -0.436 C  
BRANCH   8   9
HETATM    9  C   UNK A   1     -11.048   6.212  69.350  1.00  0.00    -0.479 C  
BRANCH   9  10
HETATM   10  C   UNK A   1     -10.704   7.460  68.571  1.00  0.00    -0.098 C  
HETATM   11  N   UNK A   1     -10.715   8.619  69.319  1.00  0.00    -0.358 N  
HETATM   12  O   UNK A   1     -10.476   7.440  67.365  1.00  0.00    -0.239 OA 
HETATM   13  H   UNK A   1     -10.968   8.590  70.306  1.00  0.00     0.000 HD 
BRANCH  11  14
HETATM   14  C   UNK A   1     -10.362   9.896  68.683  1.00  0.00    -0.195 C  
BRANCH  14  15
HETATM   15  C   UNK A   1      -8.826  10.038  68.680  1.00  0.00    -0.132 C  
ATOM     16  H   GLY A   2      -8.986  11.608  67.342  1.00  0.00     0.000 HD 
ATOM     17  N   GLY A   2      -8.331  11.054  67.893  1.00  0.00    -0.121 N  
HETATM   18  O   UNK A   1      -8.094   9.292  69.313  1.00  0.00    -0.099 OA 
BRANCH  17  19
ATOM     19  CA  GLY A   2      -6.916  11.370  67.815  1.00  0.00    -0.076 C  
ATOM     20  C   GLY A   2      -6.252  10.988  66.502  1.00  0.00    -0.133 C  
ATOM     21  O   GLY A   2      -6.841   9.950  65.835  1.00  0.00    -0.091 OA 
ATOM     22  OXT GLY A   2      -5.229  11.507  66.082  1.00  0.00    -0.275 OA 
ENDBRANCH  17  19
ENDBRANCH  14  15
BRANCH  14  23
HETATM   23  C   UNK A   1     -11.034  11.071  69.413  1.00  0.00    -0.248 C  
BRANCH  23  24
HETATM   24  S   UNK A   1     -11.731  12.376  68.352  1.00  0.00    -0.323 SA 
BRANCH  24  25
HETATM   25  S   UNK A   1     -11.346  14.066  69.447  1.00  0.00    -0.255 SA 
BRANCH  25  26
HETATM   26  C   UNK A   1     -11.437  15.378  68.178  1.00  0.00    -0.343 C  
BRANCH  26  27
HETATM   27  C   UNK A   1     -10.175  15.545  67.311  1.00  0.00    -0.260 C  
BRANCH  27  28
HETATM   28  C   UNK A   1     -10.466  15.146  65.834  1.00  0.00    -0.336 C  
ATOM     29  H   GLY A   2     -10.177  13.120  66.252  1.00  0.00     0.000 HD 
ATOM     30  N   GLY A   2     -10.451  13.797  65.540  1.00  0.00    -0.305 N  
HETATM   31  O   UNK A   1     -10.819  15.963  64.986  1.00  0.00    -0.428 OA 
BRANCH  30  32
ATOM     32  CA  GLY A   2     -10.829  13.348  64.206  1.00  0.00    -0.363 C  
ATOM     33  OXT GLY A   2     -12.349  11.754  63.151  1.00  0.00    -0.465 OA 
ATOM     34  C   GLY A   2     -12.136  12.559  64.049  1.00  0.00    -0.473 C  
ATOM     35  O   GLY A   2     -13.134  12.968  64.855  1.00  0.00    -0.745 OA 
ENDBRANCH  30  32
ENDBRANCH  27  28
BRANCH  27  36
HETATM   36  N   UNK A   1      -9.407  16.784  67.567  1.00  0.00    -0.229 N  
HETATM   37  H   UNK A   1      -9.600  17.610  67.000  1.00  0.00     0.000 HD 
HETATM   38  O   UNK A   1      -8.239  15.967  69.360  1.00  0.00    -0.235 OA 
HETATM   39  C   UNK A   1      -8.442  16.859  68.543  1.00  0.00    -0.258 C  
BRANCH  39  40
HETATM   40  C   UNK A   1      -7.706  18.185  68.661  1.00  0.00    -0.309 C  
BRANCH  40  41
HETATM   41  C   UNK A   1      -8.063  19.271  67.628  1.00  0.00    -0.311 C  
BRANCH  41  42
HETATM   42  C   UNK A   1      -9.285  20.155  67.917  1.00  0.00    -0.270 C  
HETATM   43  N   UNK A   1      -9.964  19.782  69.187  1.00  0.00    -0.493 NA 
HETATM   44  C   UNK A   1     -10.302  20.004  66.801  1.00  0.00    -0.436 C  
HETATM   45  O   UNK A   1     -10.300  20.519  65.698  1.00  0.00    -0.147 OA 
HETATM   46  O   UNK A   1     -11.243  19.111  67.182  1.00  0.00    -0.271 OA 
HETATM   47  H2  UNK A   1      -9.311  19.790  69.970  1.00  0.00     0.000 HD 
HETATM   48  H1  UNK A   1     -10.776  20.369  69.379  1.00  0.00     0.000 HD 
ENDBRANCH  41  42
ENDBRANCH  40  41
ENDBRANCH  39  40
ENDBRANCH  27  36
ENDBRANCH  26  27
ENDBRANCH  25  26
ENDBRANCH  24  25
ENDBRANCH  23  24
ENDBRANCH  14  23
ENDBRANCH  11  14
ENDBRANCH   9  10
ENDBRANCH   8   9
ENDBRANCH   4   8
TORSDOF 17
ENDMDL
MODEL       39
REMARK 921   NORMALIZED FREE ENERGY PREDICTED BY IDOCK:   -5.53 KCAL/MOL
REMARK 922        TOTAL FREE ENERGY PREDICTED BY IDOCK:  -14.00 KCAL/MOL
REMARK 923 INTER-LIGAND FREE ENERGY PREDICTED BY IDOCK:  -11.22 KCAL/MOL
REMARK 924 INTRA-LIGAND FREE ENERGY PREDICTED BY IDOCK:   -2.79 KCAL/MOL
REMARK 927      BINDING AFFINITY PREDICTED BY RF-SCORE:    0.00 PKD
ROOT
HETATM    1  N   UNK A   1     -13.182  14.011  65.537  1.00  0.00    -0.637 NA 
HETATM    2  H1  UNK A   1     -13.279  14.884  65.019  1.00  0.00     0.000 HD 
HETATM    3  H2  UNK A   1     -13.301  14.171  66.538  1.00  0.00     0.000 HD 
HETATM    4  C   UNK A   1     -11.906  13.296  65.266  1.00  0.00    -0.357 C  
HETATM    5  O   UNK A   1     -11.081  12.239  63.208  1.00  0.00    -0.427 OA 
HETATM    6  C   UNK A   1     -11.767  13.093  63.747  1.00  0.00    -0.461 C  
HETATM    7  O   UNK A   1     -12.514  13.998  63.066  1.00  0.00    -0.641 OA 
ENDROOT
BRANCH   4   8
HETATM    8  C   UNK A   1     -11.762  11.986  66.044  1.00  0.00    -0.311 C  
BRANCH   8   9
HETATM    9  C   UNK A   1     -10.831  12.053  67.256  1.00  0.00    -0.290 C  
BRANCH   9  10
HETATM   10  C   UNK A   1      -9.463  11.534  66.880  1.00  0.00    -0.182 C  
HETATM   11  N   UNK A   1      -8.545  11.550  67.910  1.00  0.00    -0.137 N  
HETATM   12  O   UNK A   1      -9.188  11.171  65.740  1.00  0.00    -0.205 OA 
HETATM   13  H   UNK A   1      -8.807  11.916  68.825  1.00  0.00     0.000 HD 
BRANCH  11  14
HETATM   14  C   UNK A   1      -7.188  11.036  67.680  1.00  0.00    -0.093 C  
BRANCH  14  15
HETATM   15  C   UNK A   1      -6.929   9.872  68.658  1.00  0.00    -0.062 C  
ATOM     16  H   GLY A   2      -7.167   8.529  67.102  1.00  0.00     0.000 HD 
ATOM     17  N   GLY A   2      -6.947   8.615  68.094  1.00  0.00    -0.073 N  
HETATM   18  O   UNK A   1      -6.740  10.044  69.852  1.00  0.00    -0.069 OA 
BRANCH  17  19
ATOM     19  CA  GLY A   2      -6.665   7.409  68.852  1.00  0.00    -0.049 C  
ATOM     20  C   GLY A   2      -6.389   6.178  68.004  1.00  0.00    -0.036 C  
ATOM     21  O   GLY A   2      -6.967   6.184  66.765  1.00  0.00    -0.067 OA 
ATOM     22  OXT GLY A   2      -5.757   5.209  68.399  1.00  0.00    -0.015 OA 
ENDBRANCH  17  19
ENDBRANCH  14  15
BRANCH  14  23
HETATM   23  C   UNK A   1      -6.147  12.156  67.850  1.00  0.00    -0.075 C  
BRANCH  23  24
HETATM   24  S   UNK A   1      -6.517  13.402  69.124  1.00  0.00    -0.106 SA 
BRANCH  24  25
HETATM   25  S   UNK A   1      -7.227  14.963  68.000  1.00  0.00    -0.151 SA 
BRANCH  25  26
HETATM   26  C   UNK A   1      -8.671  15.515  68.975  1.00  0.00    -0.235 C  
BRANCH  26  27
HETATM   27  C   UNK A   1      -9.929  15.858  68.155  1.00  0.00    -0.222 C  
BRANCH  27  28
HETATM   28  C   UNK A   1     -11.181  15.143  68.744  1.00  0.00    -0.284 C  
ATOM     29  H   GLY A   2     -10.150  14.622  70.485  1.00  0.00     0.000 HD 
ATOM     30  N   GLY A   2     -11.054  14.611  70.011  1.00  0.00    -0.207 N  
HETATM   31  O   UNK A   1     -12.274  15.154  68.181  1.00  0.00    -0.102 OA 
BRANCH  30  32
ATOM     32  CA  GLY A   2     -12.220  14.032  70.667  1.00  0.00    -0.372 C  
ATOM     33  OXT GLY A   2     -13.375  14.133  72.817  1.00  0.00    -0.508 OA 
ATOM     34  C   GLY A   2     -12.750  14.713  71.937  1.00  0.00    -0.332 C  
ATOM     35  O   GLY A   2     -12.668  16.057  71.925  1.00  0.00    -0.453 OA 
ENDBRANCH  30  32
ENDBRANCH  27  28
BRANCH  27  36
HETATM   36  N   UNK A   1     -10.047  17.281  67.768  1.00  0.00    -0.298 N  
HETATM   37  H   UNK A   1      -9.959  17.997  68.489  1.00  0.00     0.000 HD 
HETATM   38  O   UNK A   1     -10.256  16.894  65.520  1.00  0.00    -0.580 OA 
HETATM   39  C   UNK A   1     -10.274  17.670  66.468  1.00  0.00    -0.355 C  
BRANCH  39  40
HETATM   40  C   UNK A   1     -10.416  19.166  66.229  1.00  0.00    -0.551 C  
BRANCH  40  41
HETATM   41  C   UNK A   1      -9.837  20.100  67.310  1.00  0.00    -0.580 C  
BRANCH  41  42
HETATM   42  C   UNK A   1      -8.340  20.432  67.237  1.00  0.00    -0.335 C  
HETATM   43  N   UNK A   1      -7.788  20.257  65.867  1.00  0.00    -0.535 NA 
HETATM   44  C   UNK A   1      -7.564  19.506  68.156  1.00  0.00    -0.303 C  
HETATM   45  O   UNK A   1      -7.431  19.574  69.365  1.00  0.00    -0.318 OA 
HETATM   46  O   UNK A   1      -7.059  18.486  67.427  1.00  0.00    -0.203 OA 
HETATM   47  H2  UNK A   1      -8.319  20.798  65.184  1.00  0.00     0.000 HD 
HETATM   48  H1  UNK A   1      -6.794  20.477  65.818  1.00  0.00     0.000 HD 
ENDBRANCH  41  42
ENDBRANCH  40  41
ENDBRANCH  39  40
ENDBRANCH  27  36
ENDBRANCH  26  27
ENDBRANCH  25  26
ENDBRANCH  24  25
ENDBRANCH  23  24
ENDBRANCH  14  23
ENDBRANCH  11  14
ENDBRANCH   9  10
ENDBRANCH   8   9
ENDBRANCH   4   8
TORSDOF 17
ENDMDL
MODEL       40
REMARK 921   NORMALIZED FREE ENERGY PREDICTED BY IDOCK:   -5.52 KCAL/MOL
REMARK 922        TOTAL FREE ENERGY PREDICTED BY IDOCK:  -13.98 KCAL/MOL
REMARK 923 INTER-LIGAND FREE ENERGY PREDICTED BY IDOCK:  -10.52 KCAL/MOL
REMARK 924 INTRA-LIGAND FREE ENERGY PREDICTED BY IDOCK:   -3.46 KCAL/MOL
REMARK 927      BINDING AFFINITY PREDICTED BY RF-SCORE:    0.00 PKD
ROOT
HETATM    1  N   UNK A   1     -11.647  14.827  68.033  1.00  0.00    -0.333 NA 
HETATM    2  H1  UNK A   1     -12.204  15.671  67.895  1.00  0.00     0.000 HD 
HETATM    3  H2  UNK A   1     -11.532  14.323  67.154  1.00  0.00     0.000 HD 
HETATM    4  C   UNK A   1     -12.184  13.927  69.089  1.00  0.00    -0.267 C  
HETATM    5  O   UNK A   1     -12.391  14.264  71.514  1.00  0.00    -0.341 OA 
HETATM    6  C   UNK A   1     -12.354  14.735  70.388  1.00  0.00    -0.344 C  
HETATM    7  O   UNK A   1     -12.461  16.062  70.123  1.00  0.00    -0.243 OA 
ENDROOT
BRANCH   4   8
HETATM    8  C   UNK A   1     -11.350  12.662  69.297  1.00  0.00    -0.306 C  
BRANCH   8   9
HETATM    9  C   UNK A   1     -12.154  11.405  69.632  1.00  0.00    -0.373 C  
BRANCH   9  10
HETATM   10  C   UNK A   1     -11.517  10.200  68.979  1.00  0.00    -0.078 C  
HETATM   11  N   UNK A   1     -11.103   9.226  69.864  1.00  0.00    -0.343 N  
HETATM   12  O   UNK A   1     -11.348  10.123  67.766  1.00  0.00    -0.274 OA 
HETATM   13  H   UNK A   1     -11.214   9.364  70.868  1.00  0.00     0.000 HD 
BRANCH  11  14
HETATM   14  C   UNK A   1     -10.500   7.989  69.350  1.00  0.00    -0.220 C  
BRANCH  14  15
HETATM   15  C   UNK A   1     -10.929   6.817  70.256  1.00  0.00    -0.291 C  
ATOM     16  H   GLY A   2      -9.053   5.973  70.032  1.00  0.00     0.000 HD 
ATOM     17  N   GLY A   2      -9.958   5.869  70.492  1.00  0.00    -0.182 N  
HETATM   18  O   UNK A   1     -12.056   6.719  70.718  1.00  0.00    -0.387 OA 
BRANCH  17  19
ATOM     19  CA  GLY A   2     -10.167   4.729  71.366  1.00  0.00    -0.166 C  
ATOM     20  C   GLY A   2      -8.917   4.243  72.083  1.00  0.00    -0.116 C  
ATOM     21  O   GLY A   2      -7.740   4.509  71.443  1.00  0.00    -0.079 OA 
ATOM     22  OXT GLY A   2      -8.938   3.601  73.123  1.00  0.00    -0.097 OA 
ENDBRANCH  17  19
ENDBRANCH  14  15
BRANCH  14  23
HETATM   23  C   UNK A   1      -8.968   8.117  69.284  1.00  0.00    -0.148 C  
BRANCH  23  24
HETATM   24  S   UNK A   1      -8.244   8.181  67.615  1.00  0.00    -0.128 SA 
BRANCH  24  25
HETATM   25  S   UNK A   1      -7.042   9.837  67.736  1.00  0.00    -0.088 SA 
BRANCH  25  26
HETATM   26  C   UNK A   1      -8.256  11.175  68.013  1.00  0.00    -0.125 C  
BRANCH  26  27
HETATM   27  C   UNK A   1      -8.255  12.296  66.957  1.00  0.00    -0.155 C  
BRANCH  27  28
HETATM   28  C   UNK A   1      -9.311  12.008  65.849  1.00  0.00    -0.157 C  
ATOM     29  H   GLY A   2      -9.995  13.981  65.889  1.00  0.00     0.000 HD 
ATOM     30  N   GLY A   2     -10.076  13.076  65.426  1.00  0.00    -0.279 N  
HETATM   31  O   UNK A   1      -9.389  10.922  65.277  1.00  0.00    -0.197 OA 
BRANCH  30  32
ATOM     32  CA  GLY A   2     -11.000  12.901  64.312  1.00  0.00    -0.388 C  
ATOM     33  OXT GLY A   2     -13.281  12.128  63.904  1.00  0.00    -0.748 OA 
ATOM     34  C   GLY A   2     -12.491  12.721  64.629  1.00  0.00    -0.456 C  
ATOM     35  O   GLY A   2     -12.932  13.450  65.672  1.00  0.00    -0.443 OA 
ENDBRANCH  30  32
ENDBRANCH  27  28
BRANCH  27  36
HETATM   36  N   UNK A   1      -8.169  13.667  67.508  1.00  0.00    -0.172 N  
HETATM   37  H   UNK A   1      -9.020  14.118  67.843  1.00  0.00     0.000 HD 
HETATM   38  O   UNK A   1      -5.892  13.845  67.334  1.00  0.00    -0.351 OA 
HETATM   39  C   UNK A   1      -6.980  14.353  67.582  1.00  0.00    -0.184 C  
BRANCH  39  40
HETATM   40  C   UNK A   1      -7.054  15.770  68.132  1.00  0.00    -0.123 C  
BRANCH  40  41
HETATM   41  C   UNK A   1      -8.423  16.239  68.660  1.00  0.00    -0.221 C  
BRANCH  41  42
HETATM   42  C   UNK A   1      -9.067  17.458  67.986  1.00  0.00    -0.259 C  
HETATM   43  N   UNK A   1     -10.473  17.668  68.423  1.00  0.00    -0.372 NA 
HETATM   44  C   UNK A   1      -9.088  17.261  66.482  1.00  0.00    -0.265 C  
HETATM   45  O   UNK A   1      -8.180  17.410  65.684  1.00  0.00    -0.491 OA 
HETATM   46  O   UNK A   1     -10.306  16.801  66.116  1.00  0.00    -0.328 OA 
HETATM   47  H2  UNK A   1     -10.537  17.733  69.439  1.00  0.00     0.000 HD 
HETATM   48  H1  UNK A   1     -10.901  18.478  67.975  1.00  0.00     0.000 HD 
ENDBRANCH  41  42
ENDBRANCH  40  41
ENDBRANCH  39  40
ENDBRANCH  27  36
ENDBRANCH  26  27
ENDBRANCH  25  26
ENDBRANCH  24  25
ENDBRANCH  23  24
ENDBRANCH  14  23
ENDBRANCH  11  14
ENDBRANCH   9  10
ENDBRANCH   8   9
ENDBRANCH   4   8
TORSDOF 17
ENDMDL
MODEL       41
REMARK 921   NORMALIZED FREE ENERGY PREDICTED BY IDOCK:   -5.50 KCAL/MOL
REMARK 922        TOTAL FREE ENERGY PREDICTED BY IDOCK:  -13.94 KCAL/MOL
REMARK 923 INTER-LIGAND FREE ENERGY PREDICTED BY IDOCK:  -12.03 KCAL/MOL
REMARK 924 INTRA-LIGAND FREE ENERGY PREDICTED BY IDOCK:   -1.92 KCAL/MOL
REMARK 927      BINDING AFFINITY PREDICTED BY RF-SCORE:    0.00 PKD
ROOT
HETATM    1  N   UNK A   1     -12.641   7.229  72.233  1.00  0.00    -0.512 NA 
HETATM    2  H1  UNK A   1     -13.523   7.255  72.744  1.00  0.00     0.000 HD 
HETATM    3  H2  UNK A   1     -12.059   6.456  72.557  1.00  0.00     0.000 HD 
HETATM    4  C   UNK A   1     -11.889   8.511  72.280  1.00  0.00    -0.383 C  
HETATM    5  O   UNK A   1     -12.439  10.715  71.344  1.00  0.00    -0.368 OA 
HETATM    6  C   UNK A   1     -12.811   9.644  71.796  1.00  0.00    -0.421 C  
HETATM    7  O   UNK A   1     -14.116   9.300  71.940  1.00  0.00    -0.319 OA 
ENDROOT
BRANCH   4   8
HETATM    8  C   UNK A   1     -10.565   8.472  71.512  1.00  0.00    -0.333 C  
BRANCH   8   9
HETATM    9  C   UNK A   1     -10.692   8.157  70.021  1.00  0.00    -0.243 C  
BRANCH   9  10
HETATM   10  C   UNK A   1      -9.481   8.677  69.282  1.00  0.00    -0.158 C  
HETATM   11  N   UNK A   1      -8.960   9.847  69.795  1.00  0.00    -0.231 N  
HETATM   12  O   UNK A   1      -9.030   8.120  68.285  1.00  0.00    -0.136 OA 
HETATM   13  H   UNK A   1      -9.406  10.301  70.591  1.00  0.00     0.000 HD 
BRANCH  11  14
HETATM   14  C   UNK A   1      -7.759  10.434  69.187  1.00  0.00    -0.126 C  
BRANCH  14  15
HETATM   15  C   UNK A   1      -6.602  10.360  70.205  1.00  0.00    -0.146 C  
ATOM     16  H   GLY A   2      -7.653   8.936  71.276  1.00  0.00     0.000 HD 
ATOM     17  N   GLY A   2      -6.778   9.456  71.229  1.00  0.00    -0.046 N  
HETATM   18  O   UNK A   1      -5.609  11.065  70.125  1.00  0.00    -0.066 OA 
BRANCH  17  19
ATOM     19  CA  GLY A   2      -5.768   9.212  72.244  1.00  0.00    -0.058 C  
ATOM     20  C   GLY A   2      -6.270   8.469  73.472  1.00  0.00    -0.110 C  
ATOM     21  O   GLY A   2      -7.601   8.625  73.740  1.00  0.00    -0.384 OA 
ATOM     22  OXT GLY A   2      -5.547   7.828  74.220  1.00  0.00    -0.063 OA 
ENDBRANCH  17  19
ENDBRANCH  14  15
BRANCH  14  23
HETATM   23  C   UNK A   1      -8.027  11.883  68.744  1.00  0.00    -0.040 C  
BRANCH  23  24
HETATM   24  S   UNK A   1      -9.712  12.238  68.152  1.00  0.00    -0.213 SA 
BRANCH  24  25
HETATM   25  S   UNK A   1      -9.772  14.285  68.244  1.00  0.00    -0.225 SA 
BRANCH  25  26
HETATM   26  C   UNK A   1      -9.477  14.759  66.504  1.00  0.00    -0.293 C  
BRANCH  26  27
HETATM   27  C   UNK A   1     -10.735  15.145  65.703  1.00  0.00    -0.363 C  
BRANCH  27  28
HETATM   28  C   UNK A   1     -10.789  16.685  65.476  1.00  0.00    -0.163 C  
ATOM     29  H   GLY A   2      -9.709  17.052  67.225  1.00  0.00     0.000 HD 
ATOM     30  N   GLY A   2     -10.131  17.474  66.398  1.00  0.00    -0.332 N  
HETATM   31  O   UNK A   1     -11.278  17.187  64.465  1.00  0.00    -1.104 OA 
BRANCH  30  32
ATOM     32  CA  GLY A   2     -10.044  18.913  66.181  1.00  0.00    -0.393 C  
ATOM     33  OXT GLY A   2     -10.034  20.983  67.476  1.00  0.00    -0.315 OA 
ATOM     34  C   GLY A   2      -9.702  19.808  67.380  1.00  0.00    -0.373 C  
ATOM     35  O   GLY A   2      -8.817  19.271  68.242  1.00  0.00    -0.313 OA 
ENDBRANCH  30  32
ENDBRANCH  27  28
BRANCH  27  36
HETATM   36  N   UNK A   1     -11.043  14.254  64.563  1.00  0.00    -0.567 N  
HETATM   37  H   UNK A   1     -10.607  14.440  63.660  1.00  0.00     0.000 HD 
HETATM   38  O   UNK A   1     -12.357  12.802  65.752  1.00  0.00    -0.547 OA 
HETATM   39  C   UNK A   1     -11.897  13.183  64.681  1.00  0.00    -0.370 C  
BRANCH  39  40
HETATM   40  C   UNK A   1     -12.151  12.382  63.412  1.00  0.00    -0.620 C  
BRANCH  40  41
HETATM   41  C   UNK A   1     -11.159  11.247  63.099  1.00  0.00     0.038 C  
BRANCH  41  42
HETATM   42  C   UNK A   1      -9.772  11.311  63.755  1.00  0.00    -0.298 C  
HETATM   43  N   UNK A   1      -8.685  11.511  62.760  1.00  0.00    -0.625 NA 
HETATM   44  C   UNK A   1      -9.486  10.007  64.478  1.00  0.00    -0.296 C  
HETATM   45  O   UNK A   1      -9.888   9.640  65.567  1.00  0.00    -0.302 OA 
HETATM   46  O   UNK A   1      -8.732   9.218  63.679  1.00  0.00    -0.210 OA 
HETATM   47  H2  UNK A   1      -8.858  12.335  62.186  1.00  0.00     0.000 HD 
HETATM   48  H1  UNK A   1      -7.763  11.553  63.196  1.00  0.00     0.000 HD 
ENDBRANCH  41  42
ENDBRANCH  40  41
ENDBRANCH  39  40
ENDBRANCH  27  36
ENDBRANCH  26  27
ENDBRANCH  25  26
ENDBRANCH  24  25
ENDBRANCH  23  24
ENDBRANCH  14  23
ENDBRANCH  11  14
ENDBRANCH   9  10
ENDBRANCH   8   9
ENDBRANCH   4   8
TORSDOF 17
ENDMDL
MODEL       42
REMARK 921   NORMALIZED FREE ENERGY PREDICTED BY IDOCK:   -5.50 KCAL/MOL
REMARK 922        TOTAL FREE ENERGY PREDICTED BY IDOCK:  -13.93 KCAL/MOL
REMARK 923 INTER-LIGAND FREE ENERGY PREDICTED BY IDOCK:  -11.90 KCAL/MOL
REMARK 924 INTRA-LIGAND FREE ENERGY PREDICTED BY IDOCK:   -2.03 KCAL/MOL
REMARK 927      BINDING AFFINITY PREDICTED BY RF-SCORE:    0.00 PKD
ROOT
HETATM    1  N   UNK A   1     -12.319  11.518  62.963  1.00  0.00    -0.935 NA 
HETATM    2  H1  UNK A   1     -13.191  11.920  62.620  1.00  0.00     0.000 HD 
HETATM    3  H2  UNK A   1     -12.331  10.502  62.876  1.00  0.00     0.000 HD 
HETATM    4  C   UNK A   1     -11.985  11.923  64.355  1.00  0.00    -0.223 C  
HETATM    5  O   UNK A   1     -11.406  14.126  65.276  1.00  0.00    -0.309 OA 
HETATM    6  C   UNK A   1     -11.993  13.460  64.438  1.00  0.00    -0.411 C  
HETATM    7  O   UNK A   1     -12.751  13.995  63.447  1.00  0.00    -0.796 OA 
ENDROOT
BRANCH   4   8
HETATM    8  C   UNK A   1     -10.676  11.320  64.870  1.00  0.00    -0.337 C  
BRANCH   8   9
HETATM    9  C   UNK A   1      -9.768  10.730  63.790  1.00  0.00    -0.372 C  
BRANCH   9  10
HETATM   10  C   UNK A   1      -8.713   9.857  64.429  1.00  0.00    -0.202 C  
HETATM   11  N   UNK A   1      -9.198   8.690  64.982  1.00  0.00    -0.417 N  
HETATM   12  O   UNK A   1      -7.532  10.187  64.483  1.00  0.00    -0.141 OA 
HETATM   13  H   UNK A   1     -10.197   8.490  64.962  1.00  0.00     0.000 HD 
BRANCH  11  14
HETATM   14  C   UNK A   1      -8.266   7.739  65.602  1.00  0.00    -0.135 C  
BRANCH  14  15
HETATM   15  C   UNK A   1      -8.054   6.555  64.638  1.00  0.00    -0.092 C  
ATOM     16  H   GLY A   2      -9.330   5.404  65.790  1.00  0.00     0.000 HD 
ATOM     17  N   GLY A   2      -8.760   5.413  64.945  1.00  0.00    -0.132 N  
HETATM   18  O   UNK A   1      -7.299   6.613  63.679  1.00  0.00    -0.060 OA 
BRANCH  17  19
ATOM     19  CA  GLY A   2      -8.726   4.221  64.116  1.00  0.00    -0.127 C  
ATOM     20  C   GLY A   2      -9.328   2.983  64.762  1.00  0.00    -0.148 C  
ATOM     21  O   GLY A   2      -9.291   2.965  66.128  1.00  0.00    -0.132 OA 
ATOM     22  OXT GLY A   2      -9.759   2.029  64.130  1.00  0.00    -0.134 OA 
ENDBRANCH  17  19
ENDBRANCH  14  15
BRANCH  14  23
HETATM   23  C   UNK A   1      -8.799   7.266  66.966  1.00  0.00    -0.128 C  
BRANCH  23  24
HETATM   24  S   UNK A   1      -7.761   7.659  68.409  1.00  0.00    -0.122 SA 
BRANCH  24  25
HETATM   25  S   UNK A   1      -7.407   9.661  68.145  1.00  0.00    -0.081 SA 
BRANCH  25  26
HETATM   26  C   UNK A   1      -9.097  10.331  67.957  1.00  0.00    -0.132 C  
BRANCH  26  27
HETATM   27  C   UNK A   1      -9.419  11.562  68.825  1.00  0.00    -0.089 C  
BRANCH  27  28
HETATM   28  C   UNK A   1      -9.220  12.875  68.011  1.00  0.00    -0.212 C  
ATOM     29  H   GLY A   2     -10.346  13.978  69.381  1.00  0.00     0.000 HD 
ATOM     30  N   GLY A   2      -9.770  14.025  68.541  1.00  0.00    -0.226 N  
HETATM   31  O   UNK A   1      -8.505  12.932  67.012  1.00  0.00    -0.192 OA 
BRANCH  30  32
ATOM     32  CA  GLY A   2      -9.522  15.306  67.891  1.00  0.00    -0.197 C  
ATOM     33  OXT GLY A   2     -10.713  17.369  67.350  1.00  0.00    -0.333 OA 
ATOM     34  C   GLY A   2     -10.519  16.448  68.134  1.00  0.00    -0.302 C  
ATOM     35  O   GLY A   2     -11.023  16.491  69.382  1.00  0.00    -0.310 OA 
ENDBRANCH  30  32
ENDBRANCH  27  28
BRANCH  27  36
HETATM   36  N   UNK A   1     -10.631  11.431  69.662  1.00  0.00    -0.447 N  
HETATM   37  H   UNK A   1     -10.540  11.490  70.676  1.00  0.00     0.000 HD 
HETATM   38  O   UNK A   1     -12.105  11.285  67.914  1.00  0.00    -0.634 OA 
HETATM   39  C   UNK A   1     -11.879  11.231  69.118  1.00  0.00    -0.355 C  
BRANCH  39  40
HETATM   40  C   UNK A   1     -13.025  11.071  70.105  1.00  0.00     0.004 C  
BRANCH  40  41
HETATM   41  C   UNK A   1     -12.690  10.414  71.457  1.00  0.00    -0.564 C  
BRANCH  41  42
HETATM   42  C   UNK A   1     -13.275   9.022  71.737  1.00  0.00    -0.389 C  
HETATM   43  N   UNK A   1     -13.902   8.933  73.083  1.00  0.00    -1.176 NA 
HETATM   44  C   UNK A   1     -12.170   7.983  71.686  1.00  0.00    -0.307 C  
HETATM   45  O   UNK A   1     -11.653   7.472  70.708  1.00  0.00    -0.288 OA 
HETATM   46  O   UNK A   1     -11.753   7.723  72.945  1.00  0.00    -0.315 OA 
HETATM   47  H2  UNK A   1     -14.606   9.659  73.210  1.00  0.00     0.000 HD 
HETATM   48  H1  UNK A   1     -14.290   8.008  73.269  1.00  0.00     0.000 HD 
ENDBRANCH  41  42
ENDBRANCH  40  41
ENDBRANCH  39  40
ENDBRANCH  27  36
ENDBRANCH  26  27
ENDBRANCH  25  26
ENDBRANCH  24  25
ENDBRANCH  23  24
ENDBRANCH  14  23
ENDBRANCH  11  14
ENDBRANCH   9  10
ENDBRANCH   8   9
ENDBRANCH   4   8
TORSDOF 17
ENDMDL
MODEL       43
REMARK 921   NORMALIZED FREE ENERGY PREDICTED BY IDOCK:   -5.50 KCAL/MOL
REMARK 922        TOTAL FREE ENERGY PREDICTED BY IDOCK:  -13.93 KCAL/MOL
REMARK 923 INTER-LIGAND FREE ENERGY PREDICTED BY IDOCK:  -10.92 KCAL/MOL
REMARK 924 INTRA-LIGAND FREE ENERGY PREDICTED BY IDOCK:   -3.01 KCAL/MOL
REMARK 927      BINDING AFFINITY PREDICTED BY RF-SCORE:    0.00 PKD
ROOT
HETATM    1  N   UNK A   1     -11.846   7.665  72.677  1.00  0.00    -0.561 NA 
HETATM    2  H1  UNK A   1     -12.550   7.526  73.402  1.00  0.00     0.000 HD 
HETATM    3  H2  UNK A   1     -10.922   7.397  73.016  1.00  0.00     0.000 HD 
HETATM    4  C   UNK A   1     -11.825   9.046  72.125  1.00  0.00    -0.313 C  
HETATM    5  O   UNK A   1     -13.508  10.261  70.811  1.00  0.00    -0.278 OA 
HETATM    6  C   UNK A   1     -13.240   9.407  71.642  1.00  0.00    -0.397 C  
HETATM    7  O   UNK A   1     -14.174   8.646  72.266  1.00  0.00    -0.439 OA 
ENDROOT
BRANCH   4   8
HETATM    8  C   UNK A   1     -10.769   9.253  71.037  1.00  0.00    -0.387 C  
BRANCH   8   9
HETATM    9  C   UNK A   1      -9.475   8.460  71.232  1.00  0.00    -0.240 C  
BRANCH   9  10
HETATM   10  C   UNK A   1      -8.285   9.338  70.924  1.00  0.00    -0.132 C  
HETATM   11  N   UNK A   1      -8.386  10.040  69.741  1.00  0.00    -0.224 N  
HETATM   12  O   UNK A   1      -7.297   9.384  71.651  1.00  0.00    -0.324 OA 
HETATM   13  H   UNK A   1      -9.204   9.923  69.144  1.00  0.00     0.000 HD 
BRANCH  11  14
HETATM   14  C   UNK A   1      -7.308  10.957  69.347  1.00  0.00    -0.116 C  
BRANCH  14  15
HETATM   15  C   UNK A   1      -7.934  12.201  68.684  1.00  0.00    -0.063 C  
ATOM     16  H   GLY A   2      -9.535  11.047  68.062  1.00  0.00     0.000 HD 
ATOM     17  N   GLY A   2      -9.152  11.992  68.075  1.00  0.00    -0.182 N  
HETATM   18  O   UNK A   1      -7.384  13.291  68.678  1.00  0.00    -0.104 OA 
BRANCH  17  19
ATOM     19  CA  GLY A   2      -9.913  13.060  67.452  1.00  0.00    -0.228 C  
ATOM     20  C   GLY A   2     -11.392  13.073  67.803  1.00  0.00    -0.292 C  
ATOM     21  O   GLY A   2     -11.918  11.859  68.145  1.00  0.00    -0.496 OA 
ATOM     22  OXT GLY A   2     -12.098  14.068  67.730  1.00  0.00    -0.371 OA 
ENDBRANCH  17  19
ENDBRANCH  14  15
BRANCH  14  23
HETATM   23  C   UNK A   1      -6.316  10.256  68.404  1.00  0.00    -0.048 C  
BRANCH  23  24
HETATM   24  S   UNK A   1      -6.179  10.954  66.728  1.00  0.00    -0.105 SA 
BRANCH  24  25
HETATM   25  S   UNK A   1      -6.318   9.277  65.556  1.00  0.00    -0.066 SA 
BRANCH  25  26
HETATM   26  C   UNK A   1      -7.648   9.731  64.388  1.00  0.00    -0.135 C  
BRANCH  26  27
HETATM   27  C   UNK A   1      -9.073   9.714  64.971  1.00  0.00    -0.233 C  
BRANCH  27  28
HETATM   28  C   UNK A   1     -10.047  10.524  64.065  1.00  0.00    -0.251 C  
ATOM     29  H   GLY A   2     -11.155  11.169  65.714  1.00  0.00     0.000 HD 
ATOM     30  N   GLY A   2     -11.036  11.246  64.704  1.00  0.00    -0.261 N  
HETATM   31  O   UNK A   1      -9.885  10.633  62.851  1.00  0.00    -0.319 OA 
BRANCH  30  32
ATOM     32  CA  GLY A   2     -11.907  12.116  63.925  1.00  0.00    -0.466 C  
ATOM     33  OXT GLY A   2     -12.717  14.421  63.943  1.00  0.00    -0.771 OA 
ATOM     34  C   GLY A   2     -11.801  13.632  64.144  1.00  0.00    -0.422 C  
ATOM     35  O   GLY A   2     -10.551  14.076  64.373  1.00  0.00    -0.382 OA 
ENDBRANCH  30  32
ENDBRANCH  27  28
BRANCH  27  36
HETATM   36  N   UNK A   1      -9.518   8.399  65.482  1.00  0.00    -0.418 N  
HETATM   37  H   UNK A   1      -9.299   7.560  64.944  1.00  0.00     0.000 HD 
HETATM   38  O   UNK A   1     -10.404   9.197  67.438  1.00  0.00    -0.229 OA 
HETATM   39  C   UNK A   1     -10.217   8.269  66.659  1.00  0.00    -0.263 C  
BRANCH  39  40
HETATM   40  C   UNK A   1     -10.645   6.858  67.036  1.00  0.00    -0.403 C  
BRANCH  40  41
HETATM   41  C   UNK A   1      -9.543   5.914  67.555  1.00  0.00    -0.114 C  
BRANCH  41  42
HETATM   42  C   UNK A   1      -9.194   5.981  69.049  1.00  0.00    -0.121 C  
HETATM   43  N   UNK A   1      -7.889   5.335  69.353  1.00  0.00    -0.086 NA 
HETATM   44  C   UNK A   1     -10.255   5.257  69.856  1.00  0.00    -0.294 C  
HETATM   45  O   UNK A   1     -11.358   5.651  70.187  1.00  0.00    -0.179 OA 
HETATM   46  O   UNK A   1      -9.822   4.004  70.126  1.00  0.00    -0.210 OA 
HETATM   47  H2  UNK A   1      -7.142   5.728  68.782  1.00  0.00     0.000 HD 
HETATM   48  H1  UNK A   1      -7.657   5.379  70.345  1.00  0.00     0.000 HD 
ENDBRANCH  41  42
ENDBRANCH  40  41
ENDBRANCH  39  40
ENDBRANCH  27  36
ENDBRANCH  26  27
ENDBRANCH  25  26
ENDBRANCH  24  25
ENDBRANCH  23  24
ENDBRANCH  14  23
ENDBRANCH  11  14
ENDBRANCH   9  10
ENDBRANCH   8   9
ENDBRANCH   4   8
TORSDOF 17
ENDMDL
MODEL       44
REMARK 921   NORMALIZED FREE ENERGY PREDICTED BY IDOCK:   -5.47 KCAL/MOL
REMARK 922        TOTAL FREE ENERGY PREDICTED BY IDOCK:  -13.88 KCAL/MOL
REMARK 923 INTER-LIGAND FREE ENERGY PREDICTED BY IDOCK:  -11.28 KCAL/MOL
REMARK 924 INTRA-LIGAND FREE ENERGY PREDICTED BY IDOCK:   -2.60 KCAL/MOL
REMARK 927      BINDING AFFINITY PREDICTED BY RF-SCORE:    0.00 PKD
ROOT
HETATM    1  N   UNK A   1      -8.713   5.505  67.546  1.00  0.00    -0.108 NA 
HETATM    2  H1  UNK A   1      -9.346   4.798  67.920  1.00  0.00     0.000 HD 
HETATM    3  H2  UNK A   1      -8.672   6.316  68.164  1.00  0.00     0.000 HD 
HETATM    4  C   UNK A   1      -9.039   5.919  66.155  1.00  0.00    -0.150 C  
HETATM    5  O   UNK A   1      -8.959   4.646  64.055  1.00  0.00    -0.144 OA 
HETATM    6  C   UNK A   1      -9.103   4.663  65.268  1.00  0.00    -0.151 C  
HETATM    7  O   UNK A   1      -9.346   3.555  66.013  1.00  0.00    -0.160 OA 
ENDROOT
BRANCH   4   8
HETATM    8  C   UNK A   1      -8.089   6.979  65.594  1.00  0.00    -0.129 C  
BRANCH   8   9
HETATM    9  C   UNK A   1      -8.691   8.379  65.456  1.00  0.00    -0.196 C  
BRANCH   9  10
HETATM   10  C   UNK A   1      -8.602   9.107  66.777  1.00  0.00    -0.127 C  
HETATM   11  N   UNK A   1      -9.363  10.255  66.847  1.00  0.00    -0.156 N  
HETATM   12  O   UNK A   1      -7.878   8.723  67.691  1.00  0.00    -0.100 OA 
HETATM   13  H   UNK A   1      -9.903  10.562  66.039  1.00  0.00     0.000 HD 
BRANCH  11  14
HETATM   14  C   UNK A   1      -9.389  11.033  68.093  1.00  0.00    -0.173 C  
BRANCH  14  15
HETATM   15  C   UNK A   1     -10.749  10.812  68.785  1.00  0.00    -0.208 C  
ATOM     16  H   GLY A   2      -9.768  10.074  70.450  1.00  0.00     0.000 HD 
ATOM     17  N   GLY A   2     -10.683  10.306  70.064  1.00  0.00    -0.289 N  
HETATM   18  O   UNK A   1     -11.814  11.048  68.235  1.00  0.00    -0.537 OA 
BRANCH  17  19
ATOM     19  CA  GLY A   2     -11.860  10.089  70.887  1.00  0.00    -0.368 C  
ATOM     20  C   GLY A   2     -12.089   8.643  71.297  1.00  0.00    -0.290 C  
ATOM     21  O   GLY A   2     -11.569   7.709  70.445  1.00  0.00    -0.231 OA 
ATOM     22  OXT GLY A   2     -12.743   8.310  72.274  1.00  0.00    -0.333 OA 
ENDBRANCH  17  19
ENDBRANCH  14  15
BRANCH  14  23
HETATM   23  C   UNK A   1      -9.138  12.524  67.808  1.00  0.00    -0.191 C  
BRANCH  23  24
HETATM   24  S   UNK A   1      -7.575  13.206  68.444  1.00  0.00    -0.132 SA 
BRANCH  24  25
HETATM   25  S   UNK A   1      -7.454  14.993  67.447  1.00  0.00    -0.188 SA 
BRANCH  25  26
HETATM   26  C   UNK A   1      -9.212  15.466  67.286  1.00  0.00    -0.207 C  
BRANCH  26  27
HETATM   27  C   UNK A   1      -9.582  16.197  65.982  1.00  0.00    -0.346 C  
BRANCH  27  28
HETATM   28  C   UNK A   1     -10.753  15.470  65.258  1.00  0.00    -0.422 C  
ATOM     29  H   GLY A   2     -11.013  14.149  66.855  1.00  0.00     0.000 HD 
ATOM     30  N   GLY A   2     -11.375  14.450  65.950  1.00  0.00    -0.327 N  
HETATM   31  O   UNK A   1     -11.202  15.852  64.178  1.00  0.00    -0.381 OA 
BRANCH  30  32
ATOM     32  CA  GLY A   2     -12.551  13.807  65.378  1.00  0.00    -0.497 C  
ATOM     33  OXT GLY A   2     -13.114  12.190  63.636  1.00  0.00    -0.787 OA 
ATOM     34  C   GLY A   2     -12.346  12.551  64.520  1.00  0.00    -0.467 C  
ATOM     35  O   GLY A   2     -11.360  11.739  64.946  1.00  0.00    -0.301 OA 
ENDBRANCH  30  32
ENDBRANCH  27  28
BRANCH  27  36
HETATM   36  N   UNK A   1      -9.629  17.672  66.090  1.00  0.00    -0.235 N  
HETATM   37  H   UNK A   1      -9.109  18.233  65.416  1.00  0.00     0.000 HD 
HETATM   38  O   UNK A   1     -11.111  17.729  67.836  1.00  0.00    -0.206 OA 
HETATM   39  C   UNK A   1     -10.350  18.311  67.071  1.00  0.00    -0.389 C  
BRANCH  39  40
HETATM   40  C   UNK A   1     -10.269  19.830  67.084  1.00  0.00    -0.574 C  
BRANCH  40  41
HETATM   41  C   UNK A   1      -9.224  20.462  68.024  1.00  0.00    -0.187 C  
BRANCH  41  42
HETATM   42  C   UNK A   1      -7.773  20.539  67.527  1.00  0.00    -0.297 C  
HETATM   43  N   UNK A   1      -7.663  20.287  66.065  1.00  0.00    -0.510 NA 
HETATM   44  C   UNK A   1      -6.935  19.487  68.230  1.00  0.00    -0.293 C  
HETATM   45  O   UNK A   1      -6.460  19.519  69.350  1.00  0.00    -0.300 OA 
HETATM   46  O   UNK A   1      -6.828  18.403  67.428  1.00  0.00    -0.196 OA 
HETATM   47  H2  UNK A   1      -8.266  20.916  65.536  1.00  0.00     0.000 HD 
HETATM   48  H1  UNK A   1      -6.699  20.338  65.735  1.00  0.00     0.000 HD 
ENDBRANCH  41  42
ENDBRANCH  40  41
ENDBRANCH  39  40
ENDBRANCH  27  36
ENDBRANCH  26  27
ENDBRANCH  25  26
ENDBRANCH  24  25
ENDBRANCH  23  24
ENDBRANCH  14  23
ENDBRANCH  11  14
ENDBRANCH   9  10
ENDBRANCH   8   9
ENDBRANCH   4   8
TORSDOF 17
ENDMDL
MODEL       45
REMARK 921   NORMALIZED FREE ENERGY PREDICTED BY IDOCK:   -5.47 KCAL/MOL
REMARK 922        TOTAL FREE ENERGY PREDICTED BY IDOCK:  -13.87 KCAL/MOL
REMARK 923 INTER-LIGAND FREE ENERGY PREDICTED BY IDOCK:  -10.34 KCAL/MOL
REMARK 924 INTRA-LIGAND FREE ENERGY PREDICTED BY IDOCK:   -3.53 KCAL/MOL
REMARK 927      BINDING AFFINITY PREDICTED BY RF-SCORE:    0.00 PKD
ROOT
HETATM    1  N   UNK A   1     -11.273   7.336  69.756  1.00  0.00    -0.440 NA 
HETATM    2  H1  UNK A   1     -11.576   7.031  70.681  1.00  0.00     0.000 HD 
HETATM    3  H2  UNK A   1     -11.906   8.044  69.384  1.00  0.00     0.000 HD 
HETATM    4  C   UNK A   1     -11.103   6.220  68.788  1.00  0.00    -0.346 C  
HETATM    5  O   UNK A   1      -9.501   4.358  68.769  1.00  0.00    -0.141 OA 
HETATM    6  C   UNK A   1     -10.154   5.174  69.399  1.00  0.00    -0.234 C  
HETATM    7  O   UNK A   1     -10.133   5.272  70.753  1.00  0.00    -0.196 OA 
ENDROOT
BRANCH   4   8
HETATM    8  C   UNK A   1     -10.648   6.677  67.400  1.00  0.00    -0.370 C  
BRANCH   8   9
HETATM    9  C   UNK A   1     -10.492   8.190  67.238  1.00  0.00    -0.379 C  
BRANCH   9  10
HETATM   10  C   UNK A   1      -9.062   8.591  67.520  1.00  0.00    -0.134 C  
HETATM   11  N   UNK A   1      -8.916   9.486  68.558  1.00  0.00    -0.127 N  
HETATM   12  O   UNK A   1      -8.121   8.181  66.847  1.00  0.00    -0.102 OA 
HETATM   13  H   UNK A   1      -9.736   9.841  69.049  1.00  0.00     0.000 HD 
BRANCH  11  14
HETATM   14  C   UNK A   1      -7.571   9.925  68.954  1.00  0.00    -0.083 C  
BRANCH  14  15
HETATM   15  C   UNK A   1      -7.396   9.681  70.466  1.00  0.00    -0.131 C  
ATOM     16  H   GLY A   2      -8.992   8.364  70.426  1.00  0.00     0.000 HD 
ATOM     17  N   GLY A   2      -8.273   8.775  71.021  1.00  0.00    -0.145 N  
HETATM   18  O   UNK A   1      -6.555  10.262  71.134  1.00  0.00    -0.332 OA 
BRANCH  17  19
ATOM     19  CA  GLY A   2      -8.217   8.380  72.417  1.00  0.00    -0.139 C  
ATOM     20  C   GLY A   2      -9.553   7.968  73.013  1.00  0.00    -0.277 C  
ATOM     21  O   GLY A   2     -10.650   8.527  72.421  1.00  0.00    -0.329 OA 
ATOM     22  OXT GLY A   2      -9.665   7.244  73.992  1.00  0.00    -0.280 OA 
ENDBRANCH  17  19
ENDBRANCH  14  15
BRANCH  14  23
HETATM   23  C   UNK A   1      -7.355  11.405  68.594  1.00  0.00    -0.104 C  
BRANCH  23  24
HETATM   24  S   UNK A   1      -8.803  12.284  67.925  1.00  0.00    -0.186 SA 
BRANCH  24  25
HETATM   25  S   UNK A   1      -8.076  14.186  67.690  1.00  0.00    -0.195 SA 
BRANCH  25  26
HETATM   26  C   UNK A   1      -8.558  14.981  69.264  1.00  0.00    -0.167 C  
BRANCH  26  27
HETATM   27  C   UNK A   1      -9.925  15.690  69.252  1.00  0.00    -0.265 C  
BRANCH  27  28
HETATM   28  C   UNK A   1     -10.059  16.603  67.997  1.00  0.00    -0.262 C  
ATOM     29  H   GLY A   2      -8.778  18.035  68.816  1.00  0.00     0.000 HD 
ATOM     30  N   GLY A   2      -9.316  17.766  67.992  1.00  0.00    -0.269 N  
HETATM   31  O   UNK A   1     -10.689  16.263  66.997  1.00  0.00    -0.306 OA 
BRANCH  30  32
ATOM     32  CA  GLY A   2      -9.305  18.606  66.801  1.00  0.00    -0.308 C  
ATOM     33  OXT GLY A   2     -10.828  20.024  65.521  1.00  0.00    -0.381 OA 
ATOM     34  C   GLY A   2     -10.450  19.610  66.611  1.00  0.00    -0.497 C  
ATOM     35  O   GLY A   2     -10.886  20.182  67.750  1.00  0.00    -0.179 OA 
ENDBRANCH  30  32
ENDBRANCH  27  28
BRANCH  27  36
HETATM   36  N   UNK A   1     -11.072  14.833  69.624  1.00  0.00    -0.268 N  
HETATM   37  H   UNK A   1     -11.278  14.011  69.057  1.00  0.00     0.000 HD 
HETATM   38  O   UNK A   1     -11.618  15.989  71.526  1.00  0.00    -0.425 OA 
HETATM   39  C   UNK A   1     -11.870  15.108  70.710  1.00  0.00    -0.324 C  
BRANCH  39  40
HETATM   40  C   UNK A   1     -13.038  14.162  70.944  1.00  0.00    -0.338 C  
BRANCH  40  41
HETATM   41  C   UNK A   1     -12.717  12.818  71.626  1.00  0.00    -0.293 C  
BRANCH  41  42
HETATM   42  C   UNK A   1     -13.117  11.532  70.890  1.00  0.00     0.065 C  
HETATM   43  N   UNK A   1     -13.081  10.339  71.777  1.00  0.00    -0.446 NA 
HETATM   44  C   UNK A   1     -12.152  11.274  69.748  1.00  0.00    -0.325 C  
HETATM   45  O   UNK A   1     -12.124  11.791  68.646  1.00  0.00    -0.406 OA 
HETATM   46  O   UNK A   1     -11.218  10.384  70.155  1.00  0.00    -0.279 OA 
HETATM   47  H2  UNK A   1     -13.654  10.480  72.608  1.00  0.00     0.000 HD 
HETATM   48  H1  UNK A   1     -13.347   9.484  71.288  1.00  0.00     0.000 HD 
ENDBRANCH  41  42
ENDBRANCH  40  41
ENDBRANCH  39  40
ENDBRANCH  27  36
ENDBRANCH  26  27
ENDBRANCH  25  26
ENDBRANCH  24  25
ENDBRANCH  23  24
ENDBRANCH  14  23
ENDBRANCH  11  14
ENDBRANCH   9  10
ENDBRANCH   8   9
ENDBRANCH   4   8
TORSDOF 17
ENDMDL
MODEL       46
REMARK 921   NORMALIZED FREE ENERGY PREDICTED BY IDOCK:   -5.47 KCAL/MOL
REMARK 922        TOTAL FREE ENERGY PREDICTED BY IDOCK:  -13.87 KCAL/MOL
REMARK 923 INTER-LIGAND FREE ENERGY PREDICTED BY IDOCK:  -11.23 KCAL/MOL
REMARK 924 INTRA-LIGAND FREE ENERGY PREDICTED BY IDOCK:   -2.65 KCAL/MOL
REMARK 927      BINDING AFFINITY PREDICTED BY RF-SCORE:    0.00 PKD
ROOT
HETATM    1  N   UNK A   1     -13.003  11.531  63.085  1.00  0.00    -0.753 NA 
HETATM    2  H1  UNK A   1     -13.689  12.099  62.587  1.00  0.00     0.000 HD 
HETATM    3  H2  UNK A   1     -13.378  10.603  63.282  1.00  0.00     0.000 HD 
HETATM    4  C   UNK A   1     -12.494  12.169  64.328  1.00  0.00    -0.363 C  
HETATM    5  O   UNK A   1     -11.136  14.192  64.638  1.00  0.00    -0.374 OA 
HETATM    6  C   UNK A   1     -11.953  13.567  63.981  1.00  0.00    -0.449 C  
HETATM    7  O   UNK A   1     -12.509  14.030  62.833  1.00  0.00    -0.515 OA 
ENDROOT
BRANCH   4   8
HETATM    8  C   UNK A   1     -11.465  11.317  65.075  1.00  0.00     0.091 C  
BRANCH   8   9
HETATM    9  C   UNK A   1     -10.309  10.799  64.216  1.00  0.00    -0.401 C  
BRANCH   9  10
HETATM   10  C   UNK A   1      -9.236  10.212  65.103  1.00  0.00    -0.213 C  
HETATM   11  N   UNK A   1      -9.699   9.701  66.297  1.00  0.00    -0.220 N  
HETATM   12  O   UNK A   1      -8.047  10.231  64.795  1.00  0.00    -0.154 OA 
HETATM   13  H   UNK A   1     -10.690   9.761  66.530  1.00  0.00     0.000 HD 
BRANCH  11  14
HETATM   14  C   UNK A   1      -8.757   9.070  67.230  1.00  0.00    -0.118 C  
BRANCH  14  15
HETATM   15  C   UNK A   1      -9.330   7.705  67.663  1.00  0.00    -0.142 C  
ATOM     16  H   GLY A   2     -10.133   7.456  65.772  1.00  0.00     0.000 HD 
ATOM     17  N   GLY A   2     -10.013   7.017  66.684  1.00  0.00    -0.181 N  
HETATM   18  O   UNK A   1      -9.208   7.269  68.797  1.00  0.00    -0.138 OA 
BRANCH  17  19
ATOM     19  CA  GLY A   2     -10.569   5.692  66.897  1.00  0.00    -0.296 C  
ATOM     20  C   GLY A   2      -9.690   4.550  66.412  1.00  0.00    -0.208 C  
ATOM     21  O   GLY A   2      -8.839   4.866  65.391  1.00  0.00    -0.139 OA 
ATOM     22  OXT GLY A   2      -9.765   3.408  66.839  1.00  0.00    -0.140 OA 
ENDBRANCH  17  19
ENDBRANCH  14  15
BRANCH  14  23
HETATM   23  C   UNK A   1      -8.500   9.981  68.442  1.00  0.00    -0.112 C  
BRANCH  23  24
HETATM   24  S   UNK A   1      -7.031  11.053  68.337  1.00  0.00    -0.075 SA 
BRANCH  24  25
HETATM   25  S   UNK A   1      -7.852  12.846  67.778  1.00  0.00    -0.175 SA 
BRANCH  25  26
HETATM   26  C   UNK A   1      -9.642  12.529  67.972  1.00  0.00    -0.212 C  
BRANCH  26  27
HETATM   27  C   UNK A   1     -10.376  13.466  68.948  1.00  0.00    -0.072 C  
BRANCH  27  28
HETATM   28  C   UNK A   1     -11.036  14.650  68.181  1.00  0.00    -0.274 C  
ATOM     29  H   GLY A   2      -9.505  15.957  68.739  1.00  0.00     0.000 HD 
ATOM     30  N   GLY A   2     -10.355  15.851  68.185  1.00  0.00    -0.249 N  
HETATM   31  O   UNK A   1     -12.047  14.511  67.495  1.00  0.00    -0.366 OA 
BRANCH  30  32
ATOM     32  CA  GLY A   2     -10.858  16.965  67.391  1.00  0.00    -0.166 C  
ATOM     33  OXT GLY A   2     -10.014  18.707  65.901  1.00  0.00    -0.517 OA 
ATOM     34  C   GLY A   2      -9.946  17.552  66.305  1.00  0.00    -0.308 C  
ATOM     35  O   GLY A   2      -9.190  16.643  65.660  1.00  0.00    -0.491 OA 
ENDBRANCH  30  32
ENDBRANCH  27  28
BRANCH  27  36
HETATM   36  N   UNK A   1     -11.165  12.778  69.994  1.00  0.00    -0.440 N  
HETATM   37  H   UNK A   1     -11.085  13.094  70.960  1.00  0.00     0.000 HD 
HETATM   38  O   UNK A   1     -12.266  11.368  68.562  1.00  0.00    -0.557 OA 
HETATM   39  C   UNK A   1     -12.002  11.725  69.705  1.00  0.00    -0.322 C  
BRANCH  39  40
HETATM   40  C   UNK A   1     -12.715  11.089  70.889  1.00  0.00    -0.452 C  
BRANCH  40  41
HETATM   41  C   UNK A   1     -11.899  10.096  71.739  1.00  0.00    -0.073 C  
BRANCH  41  42
HETATM   42  C   UNK A   1     -11.051   9.053  70.997  1.00  0.00    -0.289 C  
HETATM   43  N   UNK A   1     -11.879   7.965  70.411  1.00  0.00    -0.472 NA 
HETATM   44  C   UNK A   1     -10.076   8.406  71.962  1.00  0.00    -0.294 C  
HETATM   45  O   UNK A   1      -9.017   8.842  72.378  1.00  0.00    -0.379 OA 
HETATM   46  O   UNK A   1     -10.593   7.231  72.388  1.00  0.00    -0.217 OA 
HETATM   47  H2  UNK A   1     -12.609   8.342  69.807  1.00  0.00     0.000 HD 
HETATM   48  H1  UNK A   1     -11.316   7.272  69.918  1.00  0.00     0.000 HD 
ENDBRANCH  41  42
ENDBRANCH  40  41
ENDBRANCH  39  40
ENDBRANCH  27  36
ENDBRANCH  26  27
ENDBRANCH  25  26
ENDBRANCH  24  25
ENDBRANCH  23  24
ENDBRANCH  14  23
ENDBRANCH  11  14
ENDBRANCH   9  10
ENDBRANCH   8   9
ENDBRANCH   4   8
TORSDOF 17
ENDMDL
MODEL       47
REMARK 921   NORMALIZED FREE ENERGY PREDICTED BY IDOCK:   -5.46 KCAL/MOL
REMARK 922        TOTAL FREE ENERGY PREDICTED BY IDOCK:  -13.85 KCAL/MOL
REMARK 923 INTER-LIGAND FREE ENERGY PREDICTED BY IDOCK:  -11.57 KCAL/MOL
REMARK 924 INTRA-LIGAND FREE ENERGY PREDICTED BY IDOCK:   -2.28 KCAL/MOL
REMARK 927      BINDING AFFINITY PREDICTED BY RF-SCORE:    0.00 PKD
ROOT
HETATM    1  N   UNK A   1     -11.205   5.347  72.253  1.00  0.00    -0.211 NA 
HETATM    2  H1  UNK A   1     -10.587   5.241  73.057  1.00  0.00     0.000 HD 
HETATM    3  H2  UNK A   1     -11.180   4.513  71.666  1.00  0.00     0.000 HD 
HETATM    4  C   UNK A   1     -10.928   6.566  71.446  1.00  0.00    -0.258 C  
HETATM    5  O   UNK A   1     -11.165   8.943  72.021  1.00  0.00    -0.353 OA 
HETATM    6  C   UNK A   1     -10.962   7.792  72.375  1.00  0.00    -0.311 C  
HETATM    7  O   UNK A   1     -10.733   7.431  73.663  1.00  0.00    -0.371 OA 
ENDROOT
BRANCH   4   8
HETATM    8  C   UNK A   1     -11.856   6.725  70.240  1.00  0.00    -0.359 C  
BRANCH   8   9
HETATM    9  C   UNK A   1     -11.228   6.374  68.890  1.00  0.00    -0.385 C  
BRANCH   9  10
HETATM   10  C   UNK A   1     -10.878   7.640  68.143  1.00  0.00     0.024 C  
HETATM   11  N   UNK A   1     -10.917   8.784  68.912  1.00  0.00    -0.440 N  
HETATM   12  O   UNK A   1     -10.623   7.644  66.943  1.00  0.00    -0.341 OA 
HETATM   13  H   UNK A   1     -11.191   8.733  69.893  1.00  0.00     0.000 HD 
BRANCH  11  14
HETATM   14  C   UNK A   1     -10.561  10.075  68.309  1.00  0.00    -0.226 C  
BRANCH  14  15
HETATM   15  C   UNK A   1      -9.030  10.250  68.383  1.00  0.00    -0.132 C  
ATOM     16  H   GLY A   2      -9.002  10.732  66.371  1.00  0.00     0.000 HD 
ATOM     17  N   GLY A   2      -8.425  10.632  67.206  1.00  0.00    -0.126 N  
HETATM   18  O   UNK A   1      -8.392  10.045  69.404  1.00  0.00    -0.137 OA 
BRANCH  17  19
ATOM     19  CA  GLY A   2      -7.001  10.899  67.104  1.00  0.00    -0.098 C  
ATOM     20  C   GLY A   2      -6.602  12.335  67.406  1.00  0.00    -0.154 C  
ATOM     21  O   GLY A   2      -7.573  13.268  67.173  1.00  0.00    -0.107 OA 
ATOM     22  OXT GLY A   2      -5.483  12.666  67.767  1.00  0.00    -0.092 OA 
ENDBRANCH  17  19
ENDBRANCH  14  15
BRANCH  14  23
HETATM   23  C   UNK A   1     -11.293  11.227  69.020  1.00  0.00    -0.278 C  
BRANCH  23  24
HETATM   24  S   UNK A   1     -11.783  12.630  67.969  1.00  0.00    -0.337 SA 
BRANCH  24  25
HETATM   25  S   UNK A   1     -10.569  14.128  68.666  1.00  0.00    -0.251 SA 
BRANCH  25  26
HETATM   26  C   UNK A   1     -11.195  15.586  67.759  1.00  0.00    -0.302 C  
BRANCH  26  27
HETATM   27  C   UNK A   1     -10.281  16.104  66.633  1.00  0.00    -0.287 C  
BRANCH  27  28
HETATM   28  C   UNK A   1     -10.861  15.727  65.237  1.00  0.00    -0.395 C  
ATOM     29  H   GLY A   2     -10.711  13.685  65.650  1.00  0.00     0.000 HD 
ATOM     30  N   GLY A   2     -11.033  14.382  64.979  1.00  0.00    -0.366 N  
HETATM   31  O   UNK A   1     -11.270  16.571  64.442  1.00  0.00    -0.919 OA 
BRANCH  30  32
ATOM     32  CA  GLY A   2     -11.679  13.966  63.740  1.00  0.00    -0.103 C  
ATOM     33  OXT GLY A   2     -12.888  12.045  62.837  1.00  0.00    -0.355 OA 
ATOM     34  C   GLY A   2     -12.647  12.775  63.791  1.00  0.00    -0.293 C  
ATOM     35  O   GLY A   2     -13.390  12.708  64.912  1.00  0.00    -0.741 OA 
ENDBRANCH  30  32
ENDBRANCH  27  28
BRANCH  27  36
HETATM   36  N   UNK A   1      -9.767  17.477  66.834  1.00  0.00    -0.279 N  
HETATM   37  H   UNK A   1     -10.283  18.261  66.434  1.00  0.00     0.000 HD 
HETATM   38  O   UNK A   1      -8.008  16.873  68.171  1.00  0.00    -0.183 OA 
HETATM   39  C   UNK A   1      -8.616  17.732  67.541  1.00  0.00    -0.228 C  
BRANCH  39  40
HETATM   40  C   UNK A   1      -8.188  19.189  67.628  1.00  0.00    -0.316 C  
BRANCH  40  41
HETATM   41  C   UNK A   1      -7.732  19.698  69.009  1.00  0.00    -0.291 C  
BRANCH  41  42
HETATM   42  C   UNK A   1      -6.222  19.834  69.255  1.00  0.00    -0.312 C  
HETATM   43  N   UNK A   1      -5.445  18.739  68.616  1.00  0.00    -0.195 NA 
HETATM   44  C   UNK A   1      -5.939  19.777  70.745  1.00  0.00    -0.230 C  
HETATM   45  O   UNK A   1      -6.065  20.659  71.576  1.00  0.00    -0.639 OA 
HETATM   46  O   UNK A   1      -5.568  18.519  71.074  1.00  0.00    -0.199 OA 
HETATM   47  H2  UNK A   1      -5.651  18.674  67.620  1.00  0.00     0.000 HD 
HETATM   48  H1  UNK A   1      -4.442  18.829  68.780  1.00  0.00     0.000 HD 
ENDBRANCH  41  42
ENDBRANCH  40  41
ENDBRANCH  39  40
ENDBRANCH  27  36
ENDBRANCH  26  27
ENDBRANCH  25  26
ENDBRANCH  24  25
ENDBRANCH  23  24
ENDBRANCH  14  23
ENDBRANCH  11  14
ENDBRANCH   9  10
ENDBRANCH   8   9
ENDBRANCH   4   8
TORSDOF 17
ENDMDL
MODEL       48
REMARK 921   NORMALIZED FREE ENERGY PREDICTED BY IDOCK:   -5.45 KCAL/MOL
REMARK 922        TOTAL FREE ENERGY PREDICTED BY IDOCK:  -13.84 KCAL/MOL
REMARK 923 INTER-LIGAND FREE ENERGY PREDICTED BY IDOCK:  -12.02 KCAL/MOL
REMARK 924 INTRA-LIGAND FREE ENERGY PREDICTED BY IDOCK:   -1.82 KCAL/MOL
REMARK 927      BINDING AFFINITY PREDICTED BY RF-SCORE:    0.00 PKD
ROOT
HETATM    1  N   UNK A   1     -14.232   9.066  72.860  1.00  0.00    -1.127 NA 
HETATM    2  H1  UNK A   1     -15.160   8.650  72.773  1.00  0.00     0.000 HD 
HETATM    3  H2  UNK A   1     -14.302  10.070  73.025  1.00  0.00     0.000 HD 
HETATM    4  C   UNK A   1     -13.343   8.783  71.701  1.00  0.00    -0.359 C  
HETATM    5  O   UNK A   1     -12.386   6.663  70.910  1.00  0.00    -0.353 OA 
HETATM    6  C   UNK A   1     -13.282   7.260  71.485  1.00  0.00    -0.379 C  
HETATM    7  O   UNK A   1     -14.370   6.651  72.022  1.00  0.00    -0.225 OA 
ENDROOT
BRANCH   4   8
HETATM    8  C   UNK A   1     -11.952   9.407  71.832  1.00  0.00    -0.416 C  
BRANCH   8   9
HETATM    9  C   UNK A   1     -11.459  10.152  70.590  1.00  0.00    -0.432 C  
BRANCH   9  10
HETATM   10  C   UNK A   1     -10.525   9.266  69.798  1.00  0.00    -0.222 C  
HETATM   11  N   UNK A   1     -10.925   9.035  68.499  1.00  0.00    -0.456 N  
HETATM   12  O   UNK A   1      -9.520   8.764  70.293  1.00  0.00    -0.160 OA 
HETATM   13  H   UNK A   1     -11.799   9.428  68.154  1.00  0.00     0.000 HD 
BRANCH  11  14
HETATM   14  C   UNK A   1     -10.082   8.217  67.616  1.00  0.00    -0.209 C  
BRANCH  14  15
HETATM   15  C   UNK A   1     -10.326   6.729  67.938  1.00  0.00    -0.194 C  
ATOM     16  H   GLY A   2      -8.381   6.572  68.626  1.00  0.00     0.000 HD 
ATOM     17  N   GLY A   2      -9.258   6.066  68.500  1.00  0.00    -0.115 N  
HETATM   18  O   UNK A   1     -11.383   6.168  67.695  1.00  0.00    -0.197 OA 
BRANCH  17  19
ATOM     19  CA  GLY A   2      -9.327   4.678  68.921  1.00  0.00    -0.141 C  
ATOM     20  C   GLY A   2      -9.523   4.477  70.415  1.00  0.00    -0.182 C  
ATOM     21  O   GLY A   2      -9.057   5.492  71.203  1.00  0.00    -0.139 OA 
ATOM     22  OXT GLY A   2      -9.998   3.464  70.907  1.00  0.00    -0.115 OA 
ENDBRANCH  17  19
ENDBRANCH  14  15
BRANCH  14  23
HETATM   23  C   UNK A   1      -8.599   8.592  67.780  1.00  0.00    -0.136 C  
BRANCH  23  24
HETATM   24  S   UNK A   1      -7.700   8.984  66.245  1.00  0.00    -0.096 SA 
BRANCH  24  25
HETATM   25  S   UNK A   1      -6.717  10.709  66.757  1.00  0.00    -0.112 SA 
BRANCH  25  26
HETATM   26  C   UNK A   1      -8.007  11.634  67.663  1.00  0.00    -0.136 C  
BRANCH  26  27
HETATM   27  C   UNK A   1      -8.745  12.709  66.844  1.00  0.00    -0.175 C  
BRANCH  27  28
HETATM   28  C   UNK A   1      -9.936  12.081  66.061  1.00  0.00    -0.234 C  
ATOM     29  H   GLY A   2      -9.273  12.900  64.257  1.00  0.00     0.000 HD 
ATOM     30  N   GLY A   2      -9.963  12.290  64.697  1.00  0.00    -0.228 N  
HETATM   31  O   UNK A   1     -10.751  11.328  66.591  1.00  0.00    -0.252 OA 
BRANCH  30  32
ATOM     32  CA  GLY A   2     -10.984  11.635  63.890  1.00  0.00    -0.407 C  
ATOM     33  OXT GLY A   2     -13.388  11.770  63.477  1.00  0.00    -0.518 OA 
ATOM     34  C   GLY A   2     -12.331  12.347  63.705  1.00  0.00    -0.528 C  
ATOM     35  O   GLY A   2     -12.244  13.686  63.598  1.00  0.00    -0.614 OA 
ENDBRANCH  30  32
ENDBRANCH  27  28
BRANCH  27  36
HETATM   36  N   UNK A   1      -8.967  13.988  67.555  1.00  0.00    -0.185 N  
HETATM   37  H   UNK A   1      -9.873  14.159  67.991  1.00  0.00     0.000 HD 
HETATM   38  O   UNK A   1      -6.835  14.780  67.278  1.00  0.00    -0.255 OA 
HETATM   39  C   UNK A   1      -7.991  14.953  67.648  1.00  0.00    -0.169 C  
BRANCH  39  40
HETATM   40  C   UNK A   1      -8.378  16.233  68.373  1.00  0.00    -0.190 C  
BRANCH  40  41
HETATM   41  C   UNK A   1      -8.637  17.474  67.499  1.00  0.00    -0.222 C  
BRANCH  41  42
HETATM   42  C   UNK A   1     -10.041  17.645  66.902  1.00  0.00    -0.331 C  
HETATM   43  N   UNK A   1     -10.121  17.159  65.498  1.00  0.00    -0.587 NA 
HETATM   44  C   UNK A   1     -10.419  19.115  66.891  1.00  0.00    -0.437 C  
HETATM   45  O   UNK A   1     -10.823  19.801  67.812  1.00  0.00    -0.362 OA 
HETATM   46  O   UNK A   1     -10.170  19.623  65.663  1.00  0.00    -0.418 OA 
HETATM   47  H2  UNK A   1      -9.805  16.192  65.425  1.00  0.00     0.000 HD 
HETATM   48  H1  UNK A   1     -11.054  17.272  65.101  1.00  0.00     0.000 HD 
ENDBRANCH  41  42
ENDBRANCH  40  41
ENDBRANCH  39  40
ENDBRANCH  27  36
ENDBRANCH  26  27
ENDBRANCH  25  26
ENDBRANCH  24  25
ENDBRANCH  23  24
ENDBRANCH  14  23
ENDBRANCH  11  14
ENDBRANCH   9  10
ENDBRANCH   8   9
ENDBRANCH   4   8
TORSDOF 17
ENDMDL
MODEL       49
REMARK 921   NORMALIZED FREE ENERGY PREDICTED BY IDOCK:   -5.45 KCAL/MOL
REMARK 922        TOTAL FREE ENERGY PREDICTED BY IDOCK:  -13.83 KCAL/MOL
REMARK 923 INTER-LIGAND FREE ENERGY PREDICTED BY IDOCK:  -11.01 KCAL/MOL
REMARK 924 INTRA-LIGAND FREE ENERGY PREDICTED BY IDOCK:   -2.82 KCAL/MOL
REMARK 927      BINDING AFFINITY PREDICTED BY RF-SCORE:    0.00 PKD
ROOT
HETATM    1  N   UNK A   1     -10.292  13.668  64.191  1.00  0.00    -0.699 NA 
HETATM    2  H1  UNK A   1     -10.646  14.625  64.181  1.00  0.00     0.000 HD 
HETATM    3  H2  UNK A   1      -9.340  13.633  63.825  1.00  0.00     0.000 HD 
HETATM    4  C   UNK A   1     -11.168  12.702  63.477  1.00  0.00    -0.429 C  
HETATM    5  O   UNK A   1     -13.442  11.931  63.996  1.00  0.00    -0.600 OA 
HETATM    6  C   UNK A   1     -12.590  12.804  64.055  1.00  0.00    -0.291 C  
HETATM    7  O   UNK A   1     -12.787  14.008  64.649  1.00  0.00    -0.661 OA 
ENDROOT
BRANCH   4   8
HETATM    8  C   UNK A   1     -10.636  11.267  63.493  1.00  0.00    -0.436 C  
BRANCH   8   9
HETATM    9  C   UNK A   1     -10.321  10.709  64.882  1.00  0.00    -0.347 C  
BRANCH   9  10
HETATM   10  C   UNK A   1      -9.193   9.709  64.788  1.00  0.00    -0.238 C  
HETATM   11  N   UNK A   1      -8.983   8.978  65.938  1.00  0.00    -0.176 N  
HETATM   12  O   UNK A   1      -8.500   9.592  63.781  1.00  0.00    -0.159 OA 
HETATM   13  H   UNK A   1      -9.549   9.153  66.768  1.00  0.00     0.000 HD 
BRANCH  11  14
HETATM   14  C   UNK A   1      -7.937   7.946  65.962  1.00  0.00    -0.103 C  
BRANCH  14  15
HETATM   15  C   UNK A   1      -8.410   6.784  66.859  1.00  0.00    -0.114 C  
ATOM     16  H   GLY A   2     -10.006   6.464  65.583  1.00  0.00     0.000 HD 
ATOM     17  N   GLY A   2      -9.539   6.127  66.424  1.00  0.00    -0.151 N  
HETATM   18  O   UNK A   1      -7.839   6.477  67.894  1.00  0.00    -0.105 OA 
BRANCH  17  19
ATOM     19  CA  GLY A   2     -10.092   4.973  67.112  1.00  0.00    -0.199 C  
ATOM     20  C   GLY A   2      -9.367   3.665  66.839  1.00  0.00    -0.194 C  
ATOM     21  O   GLY A   2      -8.720   3.600  65.636  1.00  0.00    -0.111 OA 
ATOM     22  OXT GLY A   2      -9.399   2.702  67.590  1.00  0.00    -0.189 OA 
ENDBRANCH  17  19
ENDBRANCH  14  15
BRANCH  14  23
HETATM   23  C   UNK A   1      -6.605   8.534  66.457  1.00  0.00    -0.059 C  
BRANCH  23  24
HETATM   24  S   UNK A   1      -6.649  10.274  66.990  1.00  0.00    -0.077 SA 
BRANCH  24  25
HETATM   25  S   UNK A   1      -6.989  10.094  69.004  1.00  0.00    -0.063 SA 
BRANCH  25  26
HETATM   26  C   UNK A   1      -8.797   9.829  69.068  1.00  0.00    -0.153 C  
BRANCH  26  27
HETATM   27  C   UNK A   1      -9.656  11.032  68.637  1.00  0.00    -0.195 C  
BRANCH  27  28
HETATM   28  C   UNK A   1     -11.127  10.856  69.116  1.00  0.00    -0.245 C  
ATOM     29  H   GLY A   2     -10.521  10.564  71.094  1.00  0.00     0.000 HD 
ATOM     30  N   GLY A   2     -11.322  10.665  70.470  1.00  0.00    -0.311 N  
HETATM   31  O   UNK A   1     -12.089  11.003  68.364  1.00  0.00    -0.594 OA 
BRANCH  30  32
ATOM     32  CA  GLY A   2     -12.678  10.610  71.000  1.00  0.00    -0.415 C  
ATOM     33  OXT GLY A   2     -14.271   8.961  71.841  1.00  0.00    -0.395 OA 
ATOM     34  C   GLY A   2     -13.111   9.345  71.754  1.00  0.00    -0.409 C  
ATOM     35  O   GLY A   2     -12.145   8.787  72.507  1.00  0.00    -0.347 OA 
ENDBRANCH  30  32
ENDBRANCH  27  28
BRANCH  27  36
HETATM   36  N   UNK A   1      -9.010  12.351  68.817  1.00  0.00    -0.386 N  
HETATM   37  H   UNK A   1      -8.292  12.455  69.533  1.00  0.00     0.000 HD 
HETATM   38  O   UNK A   1     -10.093  13.377  67.078  1.00  0.00    -0.241 OA 
HETATM   39  C   UNK A   1      -9.347  13.441  68.049  1.00  0.00    -0.217 C  
BRANCH  39  40
HETATM   40  C   UNK A   1      -8.629  14.742  68.377  1.00  0.00    -0.166 C  
BRANCH  40  41
HETATM   41  C   UNK A   1      -9.500  15.904  68.893  1.00  0.00    -0.234 C  
BRANCH  41  42
HETATM   42  C   UNK A   1     -10.217  16.773  67.850  1.00  0.00    -0.300 C  
HETATM   43  N   UNK A   1     -11.397  16.088  67.257  1.00  0.00    -0.045 NA 
HETATM   44  C   UNK A   1      -9.267  17.098  66.713  1.00  0.00    -0.254 C  
HETATM   45  O   UNK A   1      -8.385  17.937  66.676  1.00  0.00    -0.242 OA 
HETATM   46  O   UNK A   1      -9.489  16.236  65.695  1.00  0.00    -0.463 OA 
HETATM   47  H2  UNK A   1     -12.042  15.774  67.981  1.00  0.00     0.000 HD 
HETATM   48  H1  UNK A   1     -11.873  16.665  66.564  1.00  0.00     0.000 HD 
ENDBRANCH  41  42
ENDBRANCH  40  41
ENDBRANCH  39  40
ENDBRANCH  27  36
ENDBRANCH  26  27
ENDBRANCH  25  26
ENDBRANCH  24  25
ENDBRANCH  23  24
ENDBRANCH  14  23
ENDBRANCH  11  14
ENDBRANCH   9  10
ENDBRANCH   8   9
ENDBRANCH   4   8
TORSDOF 17
ENDMDL
MODEL       50
REMARK 921   NORMALIZED FREE ENERGY PREDICTED BY IDOCK:   -5.43 KCAL/MOL
REMARK 922        TOTAL FREE ENERGY PREDICTED BY IDOCK:  -13.79 KCAL/MOL
REMARK 923 INTER-LIGAND FREE ENERGY PREDICTED BY IDOCK:  -11.66 KCAL/MOL
REMARK 924 INTRA-LIGAND FREE ENERGY PREDICTED BY IDOCK:   -2.14 KCAL/MOL
REMARK 927      BINDING AFFINITY PREDICTED BY RF-SCORE:    0.00 PKD
ROOT
HETATM    1  N   UNK A   1     -11.690   7.563  72.693  1.00  0.00    -0.529 NA 
HETATM    2  H1  UNK A   1     -12.196   7.275  73.530  1.00  0.00     0.000 HD 
HETATM    3  H2  UNK A   1     -12.174   8.330  72.225  1.00  0.00     0.000 HD 
HETATM    4  C   UNK A   1     -11.427   6.449  71.743  1.00  0.00    -0.300 C  
HETATM    5  O   UNK A   1     -10.016   4.453  71.983  1.00  0.00    -0.171 OA 
HETATM    6  C   UNK A   1     -10.710   5.316  72.497  1.00  0.00    -0.236 C  
HETATM    7  O   UNK A   1     -10.951   5.393  73.831  1.00  0.00    -0.253 OA 
ENDROOT
BRANCH   4   8
HETATM    8  C   UNK A   1     -10.667   6.883  70.488  1.00  0.00    -0.267 C  
BRANCH   8   9
HETATM    9  C   UNK A   1     -11.044   6.129  69.211  1.00  0.00    -0.463 C  
BRANCH   9  10
HETATM   10  C   UNK A   1     -10.863   7.030  68.012  1.00  0.00    -0.163 C  
HETATM   11  N   UNK A   1     -10.700   8.364  68.321  1.00  0.00    -0.433 N  
HETATM   12  O   UNK A   1     -10.902   6.606  66.860  1.00  0.00    -0.341 OA 
HETATM   13  H   UNK A   1     -10.733   8.673  69.292  1.00  0.00     0.000 HD 
BRANCH  11  14
HETATM   14  C   UNK A   1     -10.479   9.337  67.243  1.00  0.00    -0.264 C  
BRANCH  14  15
HETATM   15  C   UNK A   1      -8.963   9.455  66.987  1.00  0.00    -0.130 C  
ATOM     16  H   GLY A   2      -9.195   8.423  65.208  1.00  0.00     0.000 HD 
ATOM     17  N   GLY A   2      -8.521   8.902  65.805  1.00  0.00    -0.136 N  
HETATM   18  O   UNK A   1      -8.200   9.983  67.781  1.00  0.00    -0.113 OA 
BRANCH  17  19
ATOM     19  CA  GLY A   2      -7.136   8.971  65.374  1.00  0.00    -0.081 C  
ATOM     20  C   GLY A   2      -6.851  10.036  64.327  1.00  0.00    -0.126 C  
ATOM     21  O   GLY A   2      -7.915  10.375  63.538  1.00  0.00    -0.157 OA 
ATOM     22  OXT GLY A   2      -5.746  10.523  64.138  1.00  0.00    -0.146 OA 
ENDBRANCH  17  19
ENDBRANCH  14  15
BRANCH  14  23
HETATM   23  C   UNK A   1     -11.097  10.699  67.604  1.00  0.00    -0.319 C  
BRANCH  23  24
HETATM   24  S   UNK A   1     -11.348  11.854  66.220  1.00  0.00    -0.288 SA 
BRANCH  24  25
HETATM   25  S   UNK A   1      -9.771  13.143  66.449  1.00  0.00    -0.254 SA 
BRANCH  25  26
HETATM   26  C   UNK A   1     -10.085  13.845  68.108  1.00  0.00    -0.250 C  
BRANCH  26  27
HETATM   27  C   UNK A   1     -11.434  14.569  68.274  1.00  0.00    -0.311 C  
BRANCH  27  28
HETATM   28  C   UNK A   1     -12.143  14.115  69.584  1.00  0.00    -0.349 C  
ATOM     29  H   GLY A   2     -11.769  12.102  69.172  1.00  0.00     0.000 HD 
ATOM     30  N   GLY A   2     -12.144  12.761  69.854  1.00  0.00    -0.292 N  
HETATM   31  O   UNK A   1     -12.572  14.915  70.414  1.00  0.00    -0.341 OA 
BRANCH  30  32
ATOM     32  CA  GLY A   2     -12.687  12.281  71.118  1.00  0.00    -0.243 C  
ATOM     33  OXT GLY A   2     -13.409  10.186  72.147  1.00  0.00    -0.441 OA 
ATOM     34  C   GLY A   2     -12.629  10.774  71.407  1.00  0.00    -0.410 C  
ATOM     35  O   GLY A   2     -11.518  10.163  70.955  1.00  0.00    -0.354 OA 
ENDBRANCH  30  32
ENDBRANCH  27  28
BRANCH  27  36
HETATM   36  N   UNK A   1     -11.407  16.012  67.952  1.00  0.00    -0.275 N  
HETATM   37  H   UNK A   1     -12.094  16.385  67.296  1.00  0.00     0.000 HD 
HETATM   38  O   UNK A   1      -9.716  16.542  69.404  1.00  0.00    -0.225 OA 
HETATM   39  C   UNK A   1     -10.486  16.870  68.507  1.00  0.00    -0.361 C  
BRANCH  39  40
HETATM   40  C   UNK A   1     -10.553  18.318  68.049  1.00  0.00    -0.347 C  
BRANCH  40  41
HETATM   41  C   UNK A   1      -9.360  19.220  68.420  1.00  0.00    -0.422 C  
BRANCH  41  42
HETATM   42  C   UNK A   1      -8.867  20.220  67.365  1.00  0.00    -0.344 C  
HETATM   43  N   UNK A   1      -9.805  20.338  66.216  1.00  0.00    -0.618 NA 
HETATM   44  C   UNK A   1      -7.531  19.761  66.809  1.00  0.00    -0.249 C  
HETATM   45  O   UNK A   1      -6.424  19.873  67.305  1.00  0.00    -0.195 OA 
HETATM   46  O   UNK A   1      -7.741  19.106  65.645  1.00  0.00    -0.460 OA 
HETATM   47  H2  UNK A   1     -10.746  20.571  66.532  1.00  0.00     0.000 HD 
HETATM   48  H1  UNK A   1      -9.477  21.002  65.515  1.00  0.00     0.000 HD 
ENDBRANCH  41  42
ENDBRANCH  40  41
ENDBRANCH  39  40
ENDBRANCH  27  36
ENDBRANCH  26  27
ENDBRANCH  25  26
ENDBRANCH  24  25
ENDBRANCH  23  24
ENDBRANCH  14  23
ENDBRANCH  11  14
ENDBRANCH   9  10
ENDBRANCH   8   9
ENDBRANCH   4   8
TORSDOF 17
ENDMDL
MODEL       51
REMARK 921   NORMALIZED FREE ENERGY PREDICTED BY IDOCK:   -5.41 KCAL/MOL
REMARK 922        TOTAL FREE ENERGY PREDICTED BY IDOCK:  -13.76 KCAL/MOL
REMARK 923 INTER-LIGAND FREE ENERGY PREDICTED BY IDOCK:  -10.30 KCAL/MOL
REMARK 924 INTRA-LIGAND FREE ENERGY PREDICTED BY IDOCK:   -3.46 KCAL/MOL
REMARK 927      BINDING AFFINITY PREDICTED BY RF-SCORE:    0.00 PKD
ROOT
HETATM    1  N   UNK A   1     -12.079   6.846  70.308  1.00  0.00    -0.627 NA 
HETATM    2  H1  UNK A   1     -12.609   6.960  71.172  1.00  0.00     0.000 HD 
HETATM    3  H2  UNK A   1     -12.664   6.443  69.576  1.00  0.00     0.000 HD 
HETATM    4  C   UNK A   1     -10.829   6.057  70.477  1.00  0.00    -0.314 C  
HETATM    5  O   UNK A   1      -8.784   6.566  71.738  1.00  0.00    -0.131 OA 
HETATM    6  C   UNK A   1      -9.990   6.695  71.598  1.00  0.00    -0.173 C  
HETATM    7  O   UNK A   1     -10.771   7.430  72.429  1.00  0.00    -0.225 OA 
ENDROOT
BRANCH   4   8
HETATM    8  C   UNK A   1     -10.034   5.887  69.180  1.00  0.00    -0.214 C  
BRANCH   8   9
HETATM    9  C   UNK A   1     -10.828   6.137  67.897  1.00  0.00    -0.406 C  
BRANCH   9  10
HETATM   10  C   UNK A   1     -10.075   7.097  67.007  1.00  0.00    -0.238 C  
HETATM   11  N   UNK A   1     -10.376   8.426  67.219  1.00  0.00    -0.274 N  
HETATM   12  O   UNK A   1      -9.293   6.714  66.141  1.00  0.00    -0.146 OA 
HETATM   13  H   UNK A   1     -11.076   8.689  67.912  1.00  0.00     0.000 HD 
BRANCH  11  14
HETATM   14  C   UNK A   1      -9.682   9.460  66.441  1.00  0.00    -0.250 C  
BRANCH  14  15
HETATM   15  C   UNK A   1      -8.409   9.882  67.202  1.00  0.00    -0.121 C  
ATOM     16  H   GLY A   2      -9.458  11.443  68.066  1.00  0.00     0.000 HD 
ATOM     17  N   GLY A   2      -8.555  10.969  68.036  1.00  0.00    -0.129 N  
HETATM   18  O   UNK A   1      -7.339   9.309  67.065  1.00  0.00    -0.089 OA 
BRANCH  17  19
ATOM     19  CA  GLY A   2      -7.479  11.469  68.873  1.00  0.00    -0.106 C  
ATOM     20  C   GLY A   2      -7.105  12.921  68.625  1.00  0.00    -0.103 C  
ATOM     21  O   GLY A   2      -7.370  13.382  67.365  1.00  0.00    -0.163 OA 
ATOM     22  OXT GLY A   2      -6.546  13.629  69.450  1.00  0.00    -0.107 OA 
ENDBRANCH  17  19
ENDBRANCH  14  15
BRANCH  14  23
HETATM   23  C   UNK A   1     -10.609  10.662  66.186  1.00  0.00    -0.142 C  
BRANCH  23  24
HETATM   24  S   UNK A   1     -10.775  11.187  64.450  1.00  0.00    -0.256 SA 
BRANCH  24  25
HETATM   25  S   UNK A   1     -11.510  13.090  64.651  1.00  0.00    -0.356 SA 
BRANCH  25  26
HETATM   26  C   UNK A   1     -12.130  13.086  66.370  1.00  0.00    -0.358 C  
BRANCH  26  27
HETATM   27  C   UNK A   1     -11.471  14.112  67.311  1.00  0.00    -0.350 C  
BRANCH  27  28
HETATM   28  C   UNK A   1     -11.675  13.702  68.800  1.00  0.00    -0.348 C  
ATOM     29  H   GLY A   2     -11.934  11.695  68.284  1.00  0.00     0.000 HD 
ATOM     30  N   GLY A   2     -11.857  12.358  69.055  1.00  0.00    -0.310 N  
HETATM   31  O   UNK A   1     -11.557  14.501  69.727  1.00  0.00    -0.266 OA 
BRANCH  30  32
ATOM     32  CA  GLY A   2     -11.938  11.893  70.435  1.00  0.00    -0.311 C  
ATOM     33  OXT GLY A   2     -12.476   9.859  71.674  1.00  0.00    -0.366 OA 
ATOM     34  C   GLY A   2     -11.966  10.380  70.690  1.00  0.00    -0.351 C  
ATOM     35  O   GLY A   2     -11.195   9.659  69.853  1.00  0.00    -0.242 OA 
ENDBRANCH  30  32
ENDBRANCH  27  28
BRANCH  27  36
HETATM   36  N   UNK A   1     -10.130  14.572  66.886  1.00  0.00    -0.254 N  
HETATM   37  H   UNK A   1      -9.384  13.885  66.780  1.00  0.00     0.000 HD 
HETATM   38  O   UNK A   1     -10.720  16.766  66.593  1.00  0.00    -0.236 OA 
HETATM   39  C   UNK A   1      -9.858  15.895  66.628  1.00  0.00    -0.254 C  
BRANCH  39  40
HETATM   40  C   UNK A   1      -8.424  16.224  66.241  1.00  0.00    -0.369 C  
BRANCH  40  41
HETATM   41  C   UNK A   1      -7.708  17.300  67.080  1.00  0.00    -0.227 C  
BRANCH  41  42
HETATM   42  C   UNK A   1      -7.285  18.593  66.369  1.00  0.00    -0.241 C  
HETATM   43  N   UNK A   1      -6.110  19.236  67.015  1.00  0.00    -0.175 NA 
HETATM   44  C   UNK A   1      -8.425  19.595  66.407  1.00  0.00    -0.356 C  
HETATM   45  O   UNK A   1      -9.421  19.640  65.708  1.00  0.00    -0.384 OA 
HETATM   46  O   UNK A   1      -8.219  20.454  67.431  1.00  0.00    -0.331 OA 
HETATM   47  H2  UNK A   1      -5.329  18.585  67.090  1.00  0.00     0.000 HD 
HETATM   48  H1  UNK A   1      -5.830  20.095  66.543  1.00  0.00     0.000 HD 
ENDBRANCH  41  42
ENDBRANCH  40  41
ENDBRANCH  39  40
ENDBRANCH  27  36
ENDBRANCH  26  27
ENDBRANCH  25  26
ENDBRANCH  24  25
ENDBRANCH  23  24
ENDBRANCH  14  23
ENDBRANCH  11  14
ENDBRANCH   9  10
ENDBRANCH   8   9
ENDBRANCH   4   8
TORSDOF 17
ENDMDL
MODEL       52
REMARK 921   NORMALIZED FREE ENERGY PREDICTED BY IDOCK:   -5.40 KCAL/MOL
REMARK 922        TOTAL FREE ENERGY PREDICTED BY IDOCK:  -13.75 KCAL/MOL
REMARK 923 INTER-LIGAND FREE ENERGY PREDICTED BY IDOCK:  -11.29 KCAL/MOL
REMARK 924 INTRA-LIGAND FREE ENERGY PREDICTED BY IDOCK:   -2.45 KCAL/MOL
REMARK 927      BINDING AFFINITY PREDICTED BY RF-SCORE:    0.00 PKD
ROOT
HETATM    1  N   UNK A   1     -14.028   7.437  71.081  1.00  0.00    -0.619 NA 
HETATM    2  H1  UNK A   1     -14.800   8.033  71.379  1.00  0.00     0.000 HD 
HETATM    3  H2  UNK A   1     -14.238   6.456  71.266  1.00  0.00     0.000 HD 
HETATM    4  C   UNK A   1     -12.720   7.817  71.678  1.00  0.00    -0.335 C  
HETATM    5  O   UNK A   1     -11.358   9.838  71.374  1.00  0.00    -0.369 OA 
HETATM    6  C   UNK A   1     -12.456   9.304  71.386  1.00  0.00    -0.341 C  
HETATM    7  O   UNK A   1     -13.616   9.963  71.139  1.00  0.00    -0.330 OA 
ENDROOT
BRANCH   4   8
HETATM    8  C   UNK A   1     -11.561   6.922  71.232  1.00  0.00    -0.352 C  
BRANCH   8   9
HETATM    9  C   UNK A   1     -11.606   6.491  69.765  1.00  0.00    -0.392 C  
BRANCH   9  10
HETATM   10  C   UNK A   1     -10.341   6.929  69.064  1.00  0.00    -0.192 C  
HETATM   11  N   UNK A   1      -9.959   8.226  69.337  1.00  0.00    -0.184 N  
HETATM   12  O   UNK A   1      -9.735   6.199  68.285  1.00  0.00    -0.119 OA 
HETATM   13  H   UNK A   1     -10.530   8.811  69.947  1.00  0.00     0.000 HD 
BRANCH  11  14
HETATM   14  C   UNK A   1      -8.726   8.759  68.743  1.00  0.00    -0.137 C  
BRANCH  14  15
HETATM   15  C   UNK A   1      -7.750   9.128  69.879  1.00  0.00    -0.087 C  
ATOM     16  H   GLY A   2      -8.597   7.660  71.067  1.00  0.00     0.000 HD 
ATOM     17  N   GLY A   2      -7.866   8.370  71.024  1.00  0.00    -0.090 N  
HETATM   18  O   UNK A   1      -6.944  10.040  69.784  1.00  0.00    -0.075 OA 
BRANCH  17  19
ATOM     19  CA  GLY A   2      -6.992   8.540  72.171  1.00  0.00    -0.077 C  
ATOM     20  C   GLY A   2      -7.651   8.271  73.515  1.00  0.00    -0.128 C  
ATOM     21  O   GLY A   2      -9.003   8.468  73.548  1.00  0.00    -0.240 OA 
ATOM     22  OXT GLY A   2      -7.034   7.964  74.524  1.00  0.00    -0.116 OA 
ENDBRANCH  17  19
ENDBRANCH  14  15
BRANCH  14  23
HETATM   23  C   UNK A   1      -9.033   9.973  67.849  1.00  0.00    -0.131 C  
BRANCH  23  24
HETATM   24  S   UNK A   1      -9.935   9.620  66.308  1.00  0.00    -0.254 SA 
BRANCH  24  25
HETATM   25  S   UNK A   1     -10.114  11.488  65.483  1.00  0.00    -0.254 SA 
BRANCH  25  26
HETATM   26  C   UNK A   1      -9.818  12.576  66.921  1.00  0.00    -0.227 C  
BRANCH  26  27
HETATM   27  C   UNK A   1     -10.997  13.484  67.315  1.00  0.00    -0.280 C  
BRANCH  27  28
HETATM   28  C   UNK A   1     -11.750  12.901  68.549  1.00  0.00    -0.339 C  
ATOM     29  H   GLY A   2     -11.506  14.676  69.623  1.00  0.00     0.000 HD 
ATOM     30  N   GLY A   2     -11.928  13.748  69.625  1.00  0.00    -0.324 N  
HETATM   31  O   UNK A   1     -12.279  11.791  68.536  1.00  0.00    -0.430 OA 
BRANCH  30  32
ATOM     32  CA  GLY A   2     -12.724  13.305  70.763  1.00  0.00    -0.209 C  
ATOM     33  OXT GLY A   2     -13.611  14.191  72.859  1.00  0.00    -0.651 OA 
ATOM     34  C   GLY A   2     -13.338  14.373  71.679  1.00  0.00    -0.363 C  
ATOM     35  O   GLY A   2     -13.761  15.479  71.039  1.00  0.00    -0.546 OA 
ENDBRANCH  30  32
ENDBRANCH  27  28
BRANCH  27  36
HETATM   36  N   UNK A   1     -10.699  14.933  67.293  1.00  0.00    -0.287 N  
HETATM   37  H   UNK A   1     -10.624  15.435  68.178  1.00  0.00     0.000 HD 
HETATM   38  O   UNK A   1     -10.454  15.084  65.020  1.00  0.00    -0.388 OA 
HETATM   39  C   UNK A   1     -10.520  15.625  66.119  1.00  0.00    -0.317 C  
BRANCH  39  40
HETATM   40  C   UNK A   1     -10.262  17.119  66.251  1.00  0.00    -0.340 C  
BRANCH  40  41
HETATM   41  C   UNK A   1      -9.131  17.546  67.206  1.00  0.00    -0.240 C  
BRANCH  41  42
HETATM   42  C   UNK A   1      -8.217  18.696  66.759  1.00  0.00    -0.267 C  
HETATM   43  N   UNK A   1      -7.305  18.296  65.654  1.00  0.00    -0.542 NA 
HETATM   44  C   UNK A   1      -7.348  19.141  67.920  1.00  0.00    -0.250 C  
HETATM   45  O   UNK A   1      -7.644  19.859  68.859  1.00  0.00    -0.283 OA 
HETATM   46  O   UNK A   1      -6.137  18.548  67.816  1.00  0.00    -0.185 OA 
HETATM   47  H2  UNK A   1      -7.827  17.913  64.866  1.00  0.00     0.000 HD 
HETATM   48  H1  UNK A   1      -6.698  19.060  65.357  1.00  0.00     0.000 HD 
ENDBRANCH  41  42
ENDBRANCH  40  41
ENDBRANCH  39  40
ENDBRANCH  27  36
ENDBRANCH  26  27
ENDBRANCH  25  26
ENDBRANCH  24  25
ENDBRANCH  23  24
ENDBRANCH  14  23
ENDBRANCH  11  14
ENDBRANCH   9  10
ENDBRANCH   8   9
ENDBRANCH   4   8
TORSDOF 17
ENDMDL
MODEL       53
REMARK 921   NORMALIZED FREE ENERGY PREDICTED BY IDOCK:   -5.40 KCAL/MOL
REMARK 922        TOTAL FREE ENERGY PREDICTED BY IDOCK:  -13.74 KCAL/MOL
REMARK 923 INTER-LIGAND FREE ENERGY PREDICTED BY IDOCK:  -11.91 KCAL/MOL
REMARK 924 INTRA-LIGAND FREE ENERGY PREDICTED BY IDOCK:   -1.82 KCAL/MOL
REMARK 927      BINDING AFFINITY PREDICTED BY RF-SCORE:    0.00 PKD
ROOT
HETATM    1  N   UNK A   1     -13.338  15.947  72.405  1.00  0.00    -0.438 NA 
HETATM    2  H1  UNK A   1     -14.189  15.696  72.909  1.00  0.00     0.000 HD 
HETATM    3  H2  UNK A   1     -13.353  16.933  72.143  1.00  0.00     0.000 HD 
HETATM    4  C   UNK A   1     -13.074  15.090  71.219  1.00  0.00    -0.403 C  
HETATM    5  O   UNK A   1     -12.529  12.700  71.072  1.00  0.00    -0.368 OA 
HETATM    6  C   UNK A   1     -13.076  13.617  71.663  1.00  0.00    -0.372 C  
HETATM    7  O   UNK A   1     -13.777  13.459  72.814  1.00  0.00    -0.697 OA 
ENDROOT
BRANCH   4   8
HETATM    8  C   UNK A   1     -11.798  15.468  70.464  1.00  0.00    -0.388 C  
BRANCH   8   9
HETATM    9  C   UNK A   1     -11.812  15.144  68.969  1.00  0.00    -0.331 C  
BRANCH   9  10
HETATM   10  C   UNK A   1     -10.415  15.267  68.405  1.00  0.00    -0.236 C  
HETATM   11  N   UNK A   1      -9.418  15.297  69.357  1.00  0.00    -0.310 N  
HETATM   12  O   UNK A   1     -10.199  15.371  67.202  1.00  0.00    -0.244 OA 
HETATM   13  H   UNK A   1      -9.654  15.265  70.349  1.00  0.00     0.000 HD 
BRANCH  11  14
HETATM   14  C   UNK A   1      -8.013  15.378  68.934  1.00  0.00    -0.177 C  
BRANCH  14  15
HETATM   15  C   UNK A   1      -7.777  16.745  68.261  1.00  0.00    -0.187 C  
ATOM     16  H   GLY A   2      -9.016  17.634  69.661  1.00  0.00     0.000 HD 
ATOM     17  N   GLY A   2      -8.412  17.812  68.859  1.00  0.00    -0.197 N  
HETATM   18  O   UNK A   1      -7.094  16.876  67.257  1.00  0.00    -0.142 OA 
BRANCH  17  19
ATOM     19  CA  GLY A   2      -8.256  19.180  68.396  1.00  0.00    -0.349 C  
ATOM     20  C   GLY A   2      -9.449  19.728  67.630  1.00  0.00    -0.352 C  
ATOM     21  O   GLY A   2     -10.215  18.790  66.997  1.00  0.00    -0.338 OA 
ATOM     22  OXT GLY A   2      -9.692  20.921  67.516  1.00  0.00    -0.421 OA 
ENDBRANCH  17  19
ENDBRANCH  14  15
BRANCH  14  23
HETATM   23  C   UNK A   1      -7.664  14.217  67.987  1.00  0.00    -0.147 C  
BRANCH  23  24
HETATM   24  S   UNK A   1      -7.264  12.629  68.784  1.00  0.00    -0.047 SA 
BRANCH  24  25
HETATM   25  S   UNK A   1      -8.991  11.563  68.499  1.00  0.00    -0.109 SA 
BRANCH  25  26
HETATM   26  C   UNK A   1      -8.360   9.869  68.229  1.00  0.00    -0.110 C  
BRANCH  26  27
HETATM   27  C   UNK A   1      -9.011   9.100  67.065  1.00  0.00    -0.123 C  
BRANCH  27  28
HETATM   28  C   UNK A   1      -9.998   8.022  67.603  1.00  0.00    -0.180 C  
ATOM     29  H   GLY A   2      -9.396   8.355  69.575  1.00  0.00     0.000 HD 
ATOM     30  N   GLY A   2     -10.045   7.850  68.971  1.00  0.00    -0.195 N  
HETATM   31  O   UNK A   1     -10.795   7.434  66.874  1.00  0.00    -0.357 OA 
BRANCH  30  32
ATOM     32  CA  GLY A   2     -11.029   6.942  69.548  1.00  0.00    -0.250 C  
ATOM     33  OXT GLY A   2     -11.697   6.081  71.734  1.00  0.00    -0.277 OA 
ATOM     34  C   GLY A   2     -11.290   7.019  71.059  1.00  0.00    -0.287 C  
ATOM     35  O   GLY A   2     -11.244   8.264  71.569  1.00  0.00    -0.244 OA 
ENDBRANCH  30  32
ENDBRANCH  27  28
BRANCH  27  36
HETATM   36  N   UNK A   1      -9.441   9.944  65.928  1.00  0.00    -0.197 N  
HETATM   37  H   UNK A   1      -9.994  10.780  66.116  1.00  0.00     0.000 HD 
HETATM   38  O   UNK A   1      -8.349   8.737  64.316  1.00  0.00    -0.165 OA 
HETATM   39  C   UNK A   1      -9.121   9.638  64.626  1.00  0.00    -0.235 C  
BRANCH  39  40
HETATM   40  C   UNK A   1      -9.670  10.575  63.561  1.00  0.00    -0.374 C  
BRANCH  40  41
HETATM   41  C   UNK A   1     -11.027  11.241  63.855  1.00  0.00    -0.382 C  
BRANCH  41  42
HETATM   42  C   UNK A   1     -11.014  12.684  64.379  1.00  0.00    -0.351 C  
HETATM   43  N   UNK A   1     -10.985  12.746  65.865  1.00  0.00    -0.270 NA 
HETATM   44  C   UNK A   1     -12.268  13.407  63.923  1.00  0.00    -0.415 C  
HETATM   45  O   UNK A   1     -12.508  13.898  62.834  1.00  0.00    -0.572 OA 
HETATM   46  O   UNK A   1     -13.179  13.378  64.922  1.00  0.00    -0.679 OA 
HETATM   47  H2  UNK A   1     -10.203  12.211  66.240  1.00  0.00     0.000 HD 
HETATM   48  H1  UNK A   1     -10.977  13.704  66.213  1.00  0.00     0.000 HD 
ENDBRANCH  41  42
ENDBRANCH  40  41
ENDBRANCH  39  40
ENDBRANCH  27  36
ENDBRANCH  26  27
ENDBRANCH  25  26
ENDBRANCH  24  25
ENDBRANCH  23  24
ENDBRANCH  14  23
ENDBRANCH  11  14
ENDBRANCH   9  10
ENDBRANCH   8   9
ENDBRANCH   4   8
TORSDOF 17
ENDMDL
MODEL       54
REMARK 921   NORMALIZED FREE ENERGY PREDICTED BY IDOCK:   -5.39 KCAL/MOL
REMARK 922        TOTAL FREE ENERGY PREDICTED BY IDOCK:  -13.73 KCAL/MOL
REMARK 923 INTER-LIGAND FREE ENERGY PREDICTED BY IDOCK:  -11.37 KCAL/MOL
REMARK 924 INTRA-LIGAND FREE ENERGY PREDICTED BY IDOCK:   -2.36 KCAL/MOL
REMARK 927      BINDING AFFINITY PREDICTED BY RF-SCORE:    0.00 PKD
ROOT
HETATM    1  N   UNK A   1     -10.175  10.454  65.576  1.00  0.00    -0.271 NA 
HETATM    2  H1  UNK A   1     -10.049   9.489  65.884  1.00  0.00     0.000 HD 
HETATM    3  H2  UNK A   1     -10.992  10.870  66.022  1.00  0.00     0.000 HD 
HETATM    4  C   UNK A   1     -10.249  10.602  64.098  1.00  0.00    -0.295 C  
HETATM    5  O   UNK A   1      -8.546  10.208  62.372  1.00  0.00    -0.156 OA 
HETATM    6  C   UNK A   1      -9.005   9.947  63.473  1.00  0.00    -0.252 C  
HETATM    7  O   UNK A   1      -8.470   9.024  64.311  1.00  0.00    -0.176 OA 
ENDROOT
BRANCH   4   8
HETATM    8  C   UNK A   1     -10.438  12.049  63.637  1.00  0.00    -0.494 C  
BRANCH   8   9
HETATM    9  C   UNK A   1     -11.881  12.554  63.668  1.00  0.00    -0.610 C  
BRANCH   9  10
HETATM   10  C   UNK A   1     -12.084  13.453  64.865  1.00  0.00    -0.392 C  
HETATM   11  N   UNK A   1     -10.927  13.755  65.553  1.00  0.00    -0.293 N  
HETATM   12  O   UNK A   1     -13.195  13.843  65.213  1.00  0.00    -0.774 OA 
HETATM   13  H   UNK A   1     -10.036  13.359  65.256  1.00  0.00     0.000 HD 
BRANCH  11  14
HETATM   14  C   UNK A   1     -10.987  14.651  66.715  1.00  0.00    -0.323 C  
BRANCH  14  15
HETATM   15  C   UNK A   1      -9.979  15.799  66.507  1.00  0.00    -0.269 C  
ATOM     16  H   GLY A   2      -9.525  15.750  68.525  1.00  0.00     0.000 HD 
ATOM     17  N   GLY A   2      -9.298  16.196  67.637  1.00  0.00    -0.214 N  
HETATM   18  O   UNK A   1      -9.808  16.337  65.424  1.00  0.00    -0.496 OA 
BRANCH  17  19
ATOM     19  CA  GLY A   2      -8.271  17.222  67.617  1.00  0.00    -0.193 C  
ATOM     20  C   GLY A   2      -8.654  18.516  68.318  1.00  0.00    -0.318 C  
ATOM     21  O   GLY A   2      -9.995  18.778  68.362  1.00  0.00    -0.353 OA 
ATOM     22  OXT GLY A   2      -7.841  19.315  68.759  1.00  0.00    -0.342 OA 
ENDBRANCH  17  19
ENDBRANCH  14  15
BRANCH  14  23
HETATM   23  C   UNK A   1     -10.698  13.877  68.013  1.00  0.00    -0.247 C  
BRANCH  23  24
HETATM   24  S   UNK A   1     -11.603  12.312  68.228  1.00  0.00    -0.347 SA 
BRANCH  24  25
HETATM   25  S   UNK A   1     -11.944  12.290  70.249  1.00  0.00    -0.200 SA 
BRANCH  25  26
HETATM   26  C   UNK A   1     -12.093  10.502  70.597  1.00  0.00    -0.356 C  
BRANCH  26  27
HETATM   27  C   UNK A   1     -10.877   9.862  71.292  1.00  0.00    -0.074 C  
BRANCH  27  28
HETATM   28  C   UNK A   1     -11.307   8.602  72.101  1.00  0.00    -0.364 C  
ATOM     29  H   GLY A   2      -9.320   8.057  72.442  1.00  0.00     0.000 HD 
ATOM     30  N   GLY A   2     -10.295   7.837  72.645  1.00  0.00    -0.265 N  
HETATM   31  O   UNK A   1     -12.483   8.354  72.362  1.00  0.00    -0.359 OA 
BRANCH  30  32
ATOM     32  CA  GLY A   2     -10.630   6.712  73.509  1.00  0.00    -0.311 C  
ATOM     33  OXT GLY A   2     -11.352   4.386  73.324  1.00  0.00    -0.279 OA 
ATOM     34  C   GLY A   2     -10.673   5.308  72.889  1.00  0.00    -0.253 C  
ATOM     35  O   GLY A   2      -9.740   5.088  71.943  1.00  0.00    -0.150 OA 
ENDBRANCH  30  32
ENDBRANCH  27  28
BRANCH  27  36
HETATM   36  N   UNK A   1      -9.658   9.780  70.458  1.00  0.00    -0.355 N  
HETATM   37  H   UNK A   1      -8.774  10.115  70.841  1.00  0.00     0.000 HD 
HETATM   38  O   UNK A   1     -10.657   8.716  68.692  1.00  0.00    -0.204 OA 
HETATM   39  C   UNK A   1      -9.677   9.266  69.182  1.00  0.00    -0.164 C  
BRANCH  39  40
HETATM   40  C   UNK A   1      -8.356   9.285  68.429  1.00  0.00    -0.119 C  
BRANCH  40  41
HETATM   41  C   UNK A   1      -7.829  10.664  67.987  1.00  0.00    -0.105 C  
BRANCH  41  42
HETATM   42  C   UNK A   1      -6.688  11.286  68.805  1.00  0.00    -0.070 C  
HETATM   43  N   UNK A   1      -7.035  11.425  70.245  1.00  0.00    -0.410 NA 
HETATM   44  C   UNK A   1      -6.380  12.676  68.280  1.00  0.00    -0.072 C  
HETATM   45  O   UNK A   1      -5.730  12.991  67.299  1.00  0.00    -0.334 OA 
HETATM   46  O   UNK A   1      -7.016  13.588  69.050  1.00  0.00    -0.110 OA 
HETATM   47  H2  UNK A   1      -7.327  10.532  70.641  1.00  0.00     0.000 HD 
HETATM   48  H1  UNK A   1      -6.277  11.838  70.788  1.00  0.00     0.000 HD 
ENDBRANCH  41  42
ENDBRANCH  40  41
ENDBRANCH  39  40
ENDBRANCH  27  36
ENDBRANCH  26  27
ENDBRANCH  25  26
ENDBRANCH  24  25
ENDBRANCH  23  24
ENDBRANCH  14  23
ENDBRANCH  11  14
ENDBRANCH   9  10
ENDBRANCH   8   9
ENDBRANCH   4   8
TORSDOF 17
ENDMDL
MODEL       55
REMARK 921   NORMALIZED FREE ENERGY PREDICTED BY IDOCK:   -5.39 KCAL/MOL
REMARK 922        TOTAL FREE ENERGY PREDICTED BY IDOCK:  -13.72 KCAL/MOL
REMARK 923 INTER-LIGAND FREE ENERGY PREDICTED BY IDOCK:  -11.32 KCAL/MOL
REMARK 924 INTRA-LIGAND FREE ENERGY PREDICTED BY IDOCK:   -2.40 KCAL/MOL
REMARK 927      BINDING AFFINITY PREDICTED BY RF-SCORE:    0.00 PKD
ROOT
HETATM    1  N   UNK A   1      -6.313  12.110  70.323  1.00  0.00    -0.451 NA 
HETATM    2  H1  UNK A   1      -5.873  13.016  70.162  1.00  0.00     0.000 HD 
HETATM    3  H2  UNK A   1      -5.684  11.489  70.834  1.00  0.00     0.000 HD 
HETATM    4  C   UNK A   1      -6.799  11.456  69.078  1.00  0.00    -0.102 C  
HETATM    5  O   UNK A   1      -8.584  12.119  67.526  1.00  0.00    -0.154 OA 
HETATM    6  C   UNK A   1      -7.728  12.434  68.337  1.00  0.00    -0.144 C  
HETATM    7  O   UNK A   1      -7.473  13.716  68.702  1.00  0.00    -0.113 OA 
ENDROOT
BRANCH   4   8
HETATM    8  C   UNK A   1      -7.459  10.097  69.319  1.00  0.00    -0.111 C  
BRANCH   8   9
HETATM    9  C   UNK A   1      -7.192   9.483  70.695  1.00  0.00    -0.130 C  
BRANCH   9  10
HETATM   10  C   UNK A   1      -8.502   9.213  71.398  1.00  0.00     0.029 C  
HETATM   11  N   UNK A   1      -9.617   9.646  70.712  1.00  0.00    -0.316 N  
HETATM   12  O   UNK A   1      -8.556   8.688  72.506  1.00  0.00    -0.364 OA 
HETATM   13  H   UNK A   1      -9.514  10.129  69.820  1.00  0.00     0.000 HD 
BRANCH  11  14
HETATM   14  C   UNK A   1     -10.953   9.409  71.274  1.00  0.00    -0.370 C  
BRANCH  14  15
HETATM   15  C   UNK A   1     -11.447   8.025  70.808  1.00  0.00    -0.263 C  
ATOM     16  H   GLY A   2     -10.142   8.113  69.205  1.00  0.00     0.000 HD 
ATOM     17  N   GLY A   2     -10.834   7.532  69.677  1.00  0.00    -0.231 N  
HETATM   18  O   UNK A   1     -12.332   7.413  71.384  1.00  0.00    -0.329 OA 
BRANCH  17  19
ATOM     19  CA  GLY A   2     -11.132   6.221  69.128  1.00  0.00    -0.390 C  
ATOM     20  C   GLY A   2     -10.667   6.013  67.696  1.00  0.00    -0.296 C  
ATOM     21  O   GLY A   2     -10.572   7.151  66.945  1.00  0.00    -0.305 OA 
ATOM     22  OXT GLY A   2     -10.453   4.914  67.205  1.00  0.00    -0.170 OA 
ENDBRANCH  17  19
ENDBRANCH  14  15
BRANCH  14  23
HETATM   23  C   UNK A   1     -11.926  10.524  70.854  1.00  0.00    -0.377 C  
BRANCH  23  24
HETATM   24  S   UNK A   1     -11.763  11.122  69.142  1.00  0.00    -0.363 SA 
BRANCH  24  25
HETATM   25  S   UNK A   1     -11.500  13.136  69.418  1.00  0.00    -0.231 SA 
BRANCH  25  26
HETATM   26  C   UNK A   1     -12.010  13.818  67.801  1.00  0.00    -0.356 C  
BRANCH  26  27
HETATM   27  C   UNK A   1     -10.993  14.761  67.132  1.00  0.00    -0.320 C  
BRANCH  27  28
HETATM   28  C   UNK A   1     -10.677  14.290  65.681  1.00  0.00    -0.316 C  
ATOM     29  H   GLY A   2     -11.866  12.586  65.903  1.00  0.00     0.000 HD 
ATOM     30  N   GLY A   2     -11.299  13.133  65.255  1.00  0.00    -0.292 N  
HETATM   31  O   UNK A   1     -10.014  14.965  64.896  1.00  0.00    -0.288 OA 
BRANCH  30  32
ATOM     32  CA  GLY A   2     -11.140  12.700  63.872  1.00  0.00    -0.427 C  
ATOM     33  OXT GLY A   2      -9.498  11.561  62.467  1.00  0.00    -0.241 OA 
ATOM     34  C   GLY A   2     -10.047  11.668  63.557  1.00  0.00    -0.425 C  
ATOM     35  O   GLY A   2      -9.875  10.731  64.508  1.00  0.00    -0.255 OA 
ENDBRANCH  30  32
ENDBRANCH  27  28
BRANCH  27  36
HETATM   36  N   UNK A   1     -11.236  16.202  67.366  1.00  0.00    -0.131 N  
HETATM   37  H   UNK A   1     -12.173  16.575  67.215  1.00  0.00     0.000 HD 
HETATM   38  O   UNK A   1      -9.124  16.674  68.118  1.00  0.00    -0.205 OA 
HETATM   39  C   UNK A   1     -10.240  17.055  67.780  1.00  0.00    -0.312 C  
BRANCH  39  40
HETATM   40  C   UNK A   1     -10.629  18.517  67.937  1.00  0.00    -0.385 C  
BRANCH  40  41
HETATM   41  C   UNK A   1      -9.532  19.477  68.435  1.00  0.00    -0.449 C  
BRANCH  41  42
HETATM   42  C   UNK A   1      -8.928  20.457  67.419  1.00  0.00    -0.334 C  
HETATM   43  N   UNK A   1      -9.375  20.176  66.029  1.00  0.00    -0.596 NA 
HETATM   44  C   UNK A   1      -7.414  20.345  67.436  1.00  0.00    -0.322 C  
HETATM   45  O   UNK A   1      -6.626  20.822  68.232  1.00  0.00    -0.289 OA 
HETATM   46  O   UNK A   1      -7.023  19.536  66.426  1.00  0.00    -0.203 OA 
HETATM   47  H2  UNK A   1     -10.393  20.162  65.966  1.00  0.00     0.000 HD 
HETATM   48  H1  UNK A   1      -8.974  20.827  65.354  1.00  0.00     0.000 HD 
ENDBRANCH  41  42
ENDBRANCH  40  41
ENDBRANCH  39  40
ENDBRANCH  27  36
ENDBRANCH  26  27
ENDBRANCH  25  26
ENDBRANCH  24  25
ENDBRANCH  23  24
ENDBRANCH  14  23
ENDBRANCH  11  14
ENDBRANCH   9  10
ENDBRANCH   8   9
ENDBRANCH   4   8
TORSDOF 17
ENDMDL
MODEL       56
REMARK 921   NORMALIZED FREE ENERGY PREDICTED BY IDOCK:   -5.39 KCAL/MOL
REMARK 922        TOTAL FREE ENERGY PREDICTED BY IDOCK:  -13.72 KCAL/MOL
REMARK 923 INTER-LIGAND FREE ENERGY PREDICTED BY IDOCK:  -11.45 KCAL/MOL
REMARK 924 INTRA-LIGAND FREE ENERGY PREDICTED BY IDOCK:   -2.27 KCAL/MOL
REMARK 927      BINDING AFFINITY PREDICTED BY RF-SCORE:    0.00 PKD
ROOT
HETATM    1  N   UNK A   1      -7.857  19.971  65.614  1.00  0.00    -0.481 NA 
HETATM    2  H1  UNK A   1      -6.990  20.188  65.123  1.00  0.00     0.000 HD 
HETATM    3  H2  UNK A   1      -8.662  20.333  65.103  1.00  0.00     0.000 HD 
HETATM    4  C   UNK A   1      -7.874  20.441  67.025  1.00  0.00    -0.319 C  
HETATM    5  O   UNK A   1      -6.530  19.733  68.955  1.00  0.00    -0.290 OA 
HETATM    6  C   UNK A   1      -6.637  19.881  67.748  1.00  0.00    -0.236 C  
HETATM    7  O   UNK A   1      -5.658  19.567  66.862  1.00  0.00    -0.168 OA 
ENDROOT
BRANCH   4   8
HETATM    8  C   UNK A   1      -9.175  20.115  67.762  1.00  0.00    -0.429 C  
BRANCH   8   9
HETATM    9  C   UNK A   1     -10.406  19.968  66.867  1.00  0.00    -0.567 C  
BRANCH   9  10
HETATM   10  C   UNK A   1     -10.608  18.515  66.507  1.00  0.00    -0.334 C  
HETATM   11  N   UNK A   1     -10.655  17.661  67.589  1.00  0.00    -0.375 N  
HETATM   12  O   UNK A   1     -10.682  18.130  65.343  1.00  0.00    -0.620 OA 
HETATM   13  H   UNK A   1     -10.531  18.024  68.534  1.00  0.00     0.000 HD 
BRANCH  11  14
HETATM   14  C   UNK A   1     -10.883  16.226  67.372  1.00  0.00    -0.242 C  
BRANCH  14  15
HETATM   15  C   UNK A   1     -11.322  15.589  68.706  1.00  0.00    -0.334 C  
ATOM     16  H   GLY A   2     -11.762  13.831  67.706  1.00  0.00     0.000 HD 
ATOM     17  N   GLY A   2     -11.732  14.276  68.623  1.00  0.00    -0.326 N  
HETATM   18  O   UNK A   1     -11.326  16.204  69.761  1.00  0.00    -0.331 OA 
BRANCH  17  19
ATOM     19  CA  GLY A   2     -12.124  13.500  69.786  1.00  0.00    -0.318 C  
ATOM     20  C   GLY A   2     -11.986  11.995  69.620  1.00  0.00    -0.293 C  
ATOM     21  O   GLY A   2     -12.076  11.543  68.333  1.00  0.00    -0.556 OA 
ATOM     22  OXT GLY A   2     -11.869  11.217  70.555  1.00  0.00    -0.338 OA 
ENDBRANCH  17  19
ENDBRANCH  14  15
BRANCH  14  23
HETATM   23  C   UNK A   1      -9.616  15.553  66.816  1.00  0.00    -0.235 C  
BRANCH  23  24
HETATM   24  S   UNK A   1      -8.183  15.500  67.937  1.00  0.00    -0.147 SA 
BRANCH  24  25
HETATM   25  S   UNK A   1      -8.211  13.552  68.574  1.00  0.00    -0.054 SA 
BRANCH  25  26
HETATM   26  C   UNK A   1      -8.186  12.629  66.996  1.00  0.00    -0.108 C  
BRANCH  26  27
HETATM   27  C   UNK A   1      -8.934  11.284  67.006  1.00  0.00    -0.154 C  
BRANCH  27  28
HETATM   28  C   UNK A   1      -9.792  11.123  65.716  1.00  0.00    -0.235 C  
ATOM     29  H   GLY A   2     -10.117  13.182  65.591  1.00  0.00     0.000 HD 
ATOM     30  N   GLY A   2     -10.264  12.282  65.134  1.00  0.00    -0.276 N  
HETATM   31  O   UNK A   1      -9.945  10.039  65.155  1.00  0.00    -0.323 OA 
BRANCH  30  32
ATOM     32  CA  GLY A   2     -10.973  12.211  63.863  1.00  0.00    -0.402 C  
ATOM     33  OXT GLY A   2     -13.155  11.538  62.995  1.00  0.00    -0.296 OA 
ATOM     34  C   GLY A   2     -12.500  12.056  63.892  1.00  0.00    -0.436 C  
ATOM     35  O   GLY A   2     -13.110  12.726  64.888  1.00  0.00    -0.833 OA 
ENDBRANCH  30  32
ENDBRANCH  27  28
BRANCH  27  36
HETATM   36  N   UNK A   1      -8.130  10.130  67.465  1.00  0.00    -0.113 N  
HETATM   37  H   UNK A   1      -7.458   9.710  66.822  1.00  0.00     0.000 HD 
HETATM   38  O   UNK A   1      -8.934  10.125  69.610  1.00  0.00    -0.202 OA 
HETATM   39  C   UNK A   1      -8.258   9.605  68.729  1.00  0.00    -0.106 C  
BRANCH  39  40
HETATM   40  C   UNK A   1      -7.396   8.392  69.045  1.00  0.00    -0.088 C  
BRANCH  40  41
HETATM   41  C   UNK A   1      -7.374   7.264  67.995  1.00  0.00    -0.097 C  
BRANCH  41  42
HETATM   42  C   UNK A   1      -8.472   6.194  68.075  1.00  0.00    -0.116 C  
HETATM   43  N   UNK A   1      -7.947   4.826  67.825  1.00  0.00    -0.093 NA 
HETATM   44  C   UNK A   1      -9.532   6.469  67.024  1.00  0.00    -0.138 C  
HETATM   45  O   UNK A   1     -10.441   7.279  67.055  1.00  0.00    -0.278 OA 
HETATM   46  O   UNK A   1      -9.287   5.696  65.941  1.00  0.00    -0.159 OA 
HETATM   47  H2  UNK A   1      -7.175   4.607  68.453  1.00  0.00     0.000 HD 
HETATM   48  H1  UNK A   1      -8.677   4.115  67.878  1.00  0.00     0.000 HD 
ENDBRANCH  41  42
ENDBRANCH  40  41
ENDBRANCH  39  40
ENDBRANCH  27  36
ENDBRANCH  26  27
ENDBRANCH  25  26
ENDBRANCH  24  25
ENDBRANCH  23  24
ENDBRANCH  14  23
ENDBRANCH  11  14
ENDBRANCH   9  10
ENDBRANCH   8   9
ENDBRANCH   4   8
TORSDOF 17
ENDMDL
MODEL       57
REMARK 921   NORMALIZED FREE ENERGY PREDICTED BY IDOCK:   -5.37 KCAL/MOL
REMARK 922        TOTAL FREE ENERGY PREDICTED BY IDOCK:  -13.68 KCAL/MOL
REMARK 923 INTER-LIGAND FREE ENERGY PREDICTED BY IDOCK:  -13.04 KCAL/MOL
REMARK 924 INTRA-LIGAND FREE ENERGY PREDICTED BY IDOCK:   -0.64 KCAL/MOL
REMARK 927      BINDING AFFINITY PREDICTED BY RF-SCORE:    0.00 PKD
ROOT
HETATM    1  N   UNK A   1      -8.064   6.180  65.701  1.00  0.00    -0.121 NA 
HETATM    2  H1  UNK A   1      -7.415   5.883  64.973  1.00  0.00     0.000 HD 
HETATM    3  H2  UNK A   1      -7.558   6.522  66.518  1.00  0.00     0.000 HD 
HETATM    4  C   UNK A   1      -9.041   5.127  66.091  1.00  0.00    -0.144 C  
HETATM    5  O   UNK A   1     -10.860   4.090  64.806  1.00  0.00    -0.233 OA 
HETATM    6  C   UNK A   1      -9.767   4.635  64.827  1.00  0.00    -0.005 C  
HETATM    7  O   UNK A   1      -9.029   4.883  63.716  1.00  0.00    -0.120 OA 
ENDROOT
BRANCH   4   8
HETATM    8  C   UNK A   1     -10.015   5.572  67.185  1.00  0.00    -0.193 C  
BRANCH   8   9
HETATM    9  C   UNK A   1     -10.653   6.945  66.963  1.00  0.00    -0.403 C  
BRANCH   9  10
HETATM   10  C   UNK A   1     -10.085   7.939  67.949  1.00  0.00    -0.191 C  
HETATM   11  N   UNK A   1     -10.960   8.939  68.317  1.00  0.00    -0.466 N  
HETATM   12  O   UNK A   1      -8.927   7.876  68.352  1.00  0.00    -0.134 OA 
HETATM   13  H   UNK A   1     -11.894   8.979  67.909  1.00  0.00     0.000 HD 
BRANCH  11  14
HETATM   14  C   UNK A   1     -10.538   9.947  69.298  1.00  0.00    -0.224 C  
BRANCH  14  15
HETATM   15  C   UNK A   1     -11.587  10.008  70.427  1.00  0.00    -0.302 C  
ATOM     16  H   GLY A   2     -11.483  12.074  70.397  1.00  0.00     0.000 HD 
ATOM     17  N   GLY A   2     -11.948  11.276  70.827  1.00  0.00    -0.327 N  
HETATM   18  O   UNK A   1     -12.054   9.006  70.947  1.00  0.00    -0.280 OA 
BRANCH  17  19
ATOM     19  CA  GLY A   2     -12.963  11.523  71.836  1.00  0.00    -0.348 C  
ATOM     20  C   GLY A   2     -13.303  12.990  72.046  1.00  0.00    -0.492 C  
ATOM     21  O   GLY A   2     -12.302  13.868  71.739  1.00  0.00    -0.255 OA 
ATOM     22  OXT GLY A   2     -14.361  13.380  72.518  1.00  0.00    -0.692 OA 
ENDBRANCH  17  19
ENDBRANCH  14  15
BRANCH  14  23
HETATM   23  C   UNK A   1     -10.356  11.319  68.625  1.00  0.00    -0.201 C  
BRANCH  23  24
HETATM   24  S   UNK A   1     -11.841  12.028  67.844  1.00  0.00    -0.147 SA 
BRANCH  24  25
HETATM   25  S   UNK A   1     -11.564  14.036  68.149  1.00  0.00    -0.354 SA 
BRANCH  25  26
HETATM   26  C   UNK A   1      -9.746  14.196  68.044  1.00  0.00    -0.226 C  
BRANCH  26  27
HETATM   27  C   UNK A   1      -9.231  15.160  66.959  1.00  0.00    -0.223 C  
BRANCH  27  28
HETATM   28  C   UNK A   1      -9.960  14.904  65.606  1.00  0.00    -0.358 C  
ATOM     29  H   GLY A   2      -9.875  12.834  65.871  1.00  0.00     0.000 HD 
ATOM     30  N   GLY A   2     -10.224  13.589  65.281  1.00  0.00    -0.317 N  
HETATM   31  O   UNK A   1     -10.401  15.818  64.910  1.00  0.00    -0.487 OA 
BRANCH  30  32
ATOM     32  CA  GLY A   2     -11.006  13.287  64.088  1.00  0.00    -0.354 C  
ATOM     33  OXT GLY A   2     -13.173  12.334  63.486  1.00  0.00    -0.716 OA 
ATOM     34  C   GLY A   2     -12.509  13.021  64.253  1.00  0.00    -0.315 C  
ATOM     35  O   GLY A   2     -13.108  13.776  65.194  1.00  0.00    -0.762 OA 
ENDBRANCH  30  32
ENDBRANCH  27  28
BRANCH  27  36
HETATM   36  N   UNK A   1      -9.049  16.558  67.407  1.00  0.00    -0.203 N  
HETATM   37  H   UNK A   1      -8.127  16.985  67.328  1.00  0.00     0.000 HD 
HETATM   38  O   UNK A   1     -11.250  16.920  67.932  1.00  0.00    -0.239 OA 
HETATM   39  C   UNK A   1     -10.084  17.300  67.927  1.00  0.00    -0.317 C  
BRANCH  39  40
HETATM   40  C   UNK A   1      -9.737  18.709  68.386  1.00  0.00    -0.405 C  
BRANCH  40  41
HETATM   41  C   UNK A   1      -9.304  19.707  67.295  1.00  0.00    -0.429 C  
BRANCH  41  42
HETATM   42  C   UNK A   1      -7.798  19.905  67.068  1.00  0.00    -0.290 C  
HETATM   43  N   UNK A   1      -7.423  21.342  66.993  1.00  0.00    -0.813 NA 
HETATM   44  C   UNK A   1      -7.388  19.263  65.756  1.00  0.00    -0.235 C  
HETATM   45  O   UNK A   1      -7.179  18.087  65.518  1.00  0.00    -0.532 OA 
HETATM   46  O   UNK A   1      -7.345  20.215  64.796  1.00  0.00    -0.191 OA 
HETATM   47  H2  UNK A   1      -7.741  21.850  67.818  1.00  0.00     0.000 HD 
HETATM   48  H1  UNK A   1      -6.423  21.475  66.843  1.00  0.00     0.000 HD 
ENDBRANCH  41  42
ENDBRANCH  40  41
ENDBRANCH  39  40
ENDBRANCH  27  36
ENDBRANCH  26  27
ENDBRANCH  25  26
ENDBRANCH  24  25
ENDBRANCH  23  24
ENDBRANCH  14  23
ENDBRANCH  11  14
ENDBRANCH   9  10
ENDBRANCH   8   9
ENDBRANCH   4   8
TORSDOF 17
ENDMDL
MODEL       58
REMARK 921   NORMALIZED FREE ENERGY PREDICTED BY IDOCK:   -5.35 KCAL/MOL
REMARK 922        TOTAL FREE ENERGY PREDICTED BY IDOCK:  -13.63 KCAL/MOL
REMARK 923 INTER-LIGAND FREE ENERGY PREDICTED BY IDOCK:  -10.98 KCAL/MOL
REMARK 924 INTRA-LIGAND FREE ENERGY PREDICTED BY IDOCK:   -2.65 KCAL/MOL
REMARK 927      BINDING AFFINITY PREDICTED BY RF-SCORE:    0.00 PKD
ROOT
HETATM    1  N   UNK A   1     -11.587   7.175  69.464  1.00  0.00    -0.518 NA 
HETATM    2  H1  UNK A   1     -11.721   6.833  70.415  1.00  0.00     0.000 HD 
HETATM    3  H2  UNK A   1     -12.430   7.638  69.125  1.00  0.00     0.000 HD 
HETATM    4  C   UNK A   1     -11.146   6.122  68.510  1.00  0.00    -0.262 C  
HETATM    5  O   UNK A   1      -9.053   4.840  68.411  1.00  0.00    -0.108 OA 
HETATM    6  C   UNK A   1      -9.883   5.444  69.071  1.00  0.00    -0.168 C  
HETATM    7  O   UNK A   1      -9.805   5.603  70.417  1.00  0.00    -0.176 OA 
ENDROOT
BRANCH   4   8
HETATM    8  C   UNK A   1     -10.945   6.635  67.083  1.00  0.00    -0.478 C  
BRANCH   8   9
HETATM    9  C   UNK A   1     -10.439   8.075  66.979  1.00  0.00    -0.410 C  
BRANCH   9  10
HETATM   10  C   UNK A   1      -8.959   8.121  67.282  1.00  0.00    -0.137 C  
HETATM   11  N   UNK A   1      -8.649   8.621  68.529  1.00  0.00    -0.134 N  
HETATM   12  O   UNK A   1      -8.110   7.779  66.463  1.00  0.00    -0.106 OA 
HETATM   13  H   UNK A   1      -9.389   8.946  69.150  1.00  0.00     0.000 HD 
BRANCH  11  14
HETATM   14  C   UNK A   1      -7.244   8.683  68.956  1.00  0.00    -0.072 C  
BRANCH  14  15
HETATM   15  C   UNK A   1      -7.178   8.420  70.474  1.00  0.00    -0.042 C  
ATOM     16  H   GLY A   2      -9.109   9.136  70.671  1.00  0.00     0.000 HD 
ATOM     17  N   GLY A   2      -8.324   8.725  71.175  1.00  0.00    -0.162 N  
HETATM   18  O   UNK A   1      -6.176   7.990  71.025  1.00  0.00    -0.034 OA 
BRANCH  17  19
ATOM     19  CA  GLY A   2      -8.460   8.488  72.601  1.00  0.00    -0.099 C  
ATOM     20  C   GLY A   2      -9.781   7.858  73.015  1.00  0.00    -0.283 C  
ATOM     21  O   GLY A   2     -10.832   8.111  72.179  1.00  0.00    -0.258 OA 
ATOM     22  OXT GLY A   2      -9.936   7.225  74.049  1.00  0.00    -0.300 OA 
ENDBRANCH  17  19
ENDBRANCH  14  15
BRANCH  14  23
HETATM   23  C   UNK A   1      -6.626  10.045  68.594  1.00  0.00    -0.049 C  
BRANCH  23  24
HETATM   24  S   UNK A   1      -7.567  11.513  69.117  1.00  0.00     0.070 SA 
BRANCH  24  25
HETATM   25  S   UNK A   1      -7.210  12.817  67.576  1.00  0.00    -0.142 SA 
BRANCH  25  26
HETATM   26  C   UNK A   1      -7.214  14.434  68.429  1.00  0.00    -0.114 C  
BRANCH  26  27
HETATM   27  C   UNK A   1      -8.557  15.187  68.409  1.00  0.00    -0.159 C  
BRANCH  27  28
HETATM   28  C   UNK A   1      -8.323  16.727  68.377  1.00  0.00    -0.222 C  
ATOM     29  H   GLY A   2     -10.341  17.112  68.755  1.00  0.00     0.000 HD 
ATOM     30  N   GLY A   2      -9.417  17.527  68.636  1.00  0.00    -0.281 N  
HETATM   31  O   UNK A   1      -7.204  17.223  68.258  1.00  0.00    -0.195 OA 
BRANCH  30  32
ATOM     32  CA  GLY A   2      -9.243  18.971  68.737  1.00  0.00    -0.343 C  
ATOM     33  OXT GLY A   2      -9.480  20.966  67.348  1.00  0.00    -0.401 OA 
ATOM     34  C   GLY A   2      -9.893  19.857  67.664  1.00  0.00    -0.393 C  
ATOM     35  O   GLY A   2     -11.091  19.421  67.232  1.00  0.00    -0.458 OA 
ENDBRANCH  30  32
ENDBRANCH  27  28
BRANCH  27  36
HETATM   36  N   UNK A   1      -9.577  14.612  67.504  1.00  0.00    -0.204 N  
HETATM   37  H   UNK A   1      -9.369  14.541  66.508  1.00  0.00     0.000 HD 
HETATM   38  O   UNK A   1     -11.080  14.088  69.151  1.00  0.00    -0.253 OA 
HETATM   39  C   UNK A   1     -10.796  14.170  67.961  1.00  0.00    -0.246 C  
BRANCH  39  40
HETATM   40  C   UNK A   1     -11.759  13.644  66.908  1.00  0.00    -0.423 C  
BRANCH  40  41
HETATM   41  C   UNK A   1     -11.298  12.418  66.096  1.00  0.00    -0.398 C  
BRANCH  41  42
HETATM   42  C   UNK A   1     -11.028  12.617  64.598  1.00  0.00    -0.313 C  
HETATM   43  N   UNK A   1     -10.206  13.827  64.327  1.00  0.00    -0.737 NA 
HETATM   44  C   UNK A   1     -12.342  12.790  63.859  1.00  0.00    -0.426 C  
HETATM   45  O   UNK A   1     -13.136  11.935  63.512  1.00  0.00    -0.715 OA 
HETATM   46  O   UNK A   1     -12.573  14.110  63.678  1.00  0.00    -0.831 OA 
HETATM   47  H2  UNK A   1      -9.336  13.808  64.859  1.00  0.00     0.000 HD 
HETATM   48  H1  UNK A   1     -10.027  13.959  63.332  1.00  0.00     0.000 HD 
ENDBRANCH  41  42
ENDBRANCH  40  41
ENDBRANCH  39  40
ENDBRANCH  27  36
ENDBRANCH  26  27
ENDBRANCH  25  26
ENDBRANCH  24  25
ENDBRANCH  23  24
ENDBRANCH  14  23
ENDBRANCH  11  14
ENDBRANCH   9  10
ENDBRANCH   8   9
ENDBRANCH   4   8
TORSDOF 17
ENDMDL
MODEL       59
REMARK 921   NORMALIZED FREE ENERGY PREDICTED BY IDOCK:   -5.33 KCAL/MOL
REMARK 922        TOTAL FREE ENERGY PREDICTED BY IDOCK:  -13.61 KCAL/MOL
REMARK 923 INTER-LIGAND FREE ENERGY PREDICTED BY IDOCK:  -11.42 KCAL/MOL
REMARK 924 INTRA-LIGAND FREE ENERGY PREDICTED BY IDOCK:   -2.19 KCAL/MOL
REMARK 927      BINDING AFFINITY PREDICTED BY RF-SCORE:    0.00 PKD
ROOT
HETATM    1  N   UNK A   1      -9.760  10.886  65.866  1.00  0.00    -0.213 NA 
HETATM    2  H1  UNK A   1      -9.602   9.888  66.003  1.00  0.00     0.000 HD 
HETATM    3  H2  UNK A   1     -10.408  11.248  66.567  1.00  0.00     0.000 HD 
HETATM    4  C   UNK A   1     -10.222  11.233  64.495  1.00  0.00    -0.314 C  
HETATM    5  O   UNK A   1      -9.066  11.057  62.335  1.00  0.00    -0.313 OA 
HETATM    6  C   UNK A   1      -9.223  10.655  63.476  1.00  0.00    -0.262 C  
HETATM    7  O   UNK A   1      -8.527   9.621  64.014  1.00  0.00    -0.157 OA 
ENDROOT
BRANCH   4   8
HETATM    8  C   UNK A   1     -10.460  12.730  64.290  1.00  0.00    -0.423 C  
BRANCH   8   9
HETATM    9  C   UNK A   1     -11.925  13.134  64.114  1.00  0.00    -0.499 C  
BRANCH   9  10
HETATM   10  C   UNK A   1     -12.471  13.661  65.421  1.00  0.00    -0.499 C  
HETATM   11  N   UNK A   1     -11.611  13.533  66.491  1.00  0.00    -0.343 N  
HETATM   12  O   UNK A   1     -13.603  14.125  65.519  1.00  0.00    -0.568 OA 
HETATM   13  H   UNK A   1     -10.702  13.088  66.367  1.00  0.00     0.000 HD 
BRANCH  11  14
HETATM   14  C   UNK A   1     -12.012  14.042  67.809  1.00  0.00    -0.357 C  
BRANCH  14  15
HETATM   15  C   UNK A   1     -11.472  15.477  67.971  1.00  0.00    -0.308 C  
ATOM     16  H   GLY A   2     -10.451  15.281  66.181  1.00  0.00     0.000 HD 
ATOM     17  N   GLY A   2     -10.669  15.922  66.943  1.00  0.00    -0.315 N  
HETATM   18  O   UNK A   1     -11.718  16.167  68.947  1.00  0.00    -0.357 OA 
BRANCH  17  19
ATOM     19  CA  GLY A   2     -10.121  17.266  66.900  1.00  0.00    -0.304 C  
ATOM     20  C   GLY A   2     -10.642  18.127  65.760  1.00  0.00    -0.175 C  
ATOM     21  O   GLY A   2     -11.062  17.437  64.657  1.00  0.00    -1.029 OA 
ATOM     22  OXT GLY A   2     -10.634  19.349  65.774  1.00  0.00    -0.496 OA 
ENDBRANCH  17  19
ENDBRANCH  14  15
BRANCH  14  23
HETATM   23  C   UNK A   1     -11.498  13.118  68.927  1.00  0.00    -0.298 C  
BRANCH  23  24
HETATM   24  S   UNK A   1     -12.041  11.382  68.841  1.00  0.00    -0.096 SA 
BRANCH  24  25
HETATM   25  S   UNK A   1     -12.087  10.852  70.821  1.00  0.00    -0.366 SA 
BRANCH  25  26
HETATM   26  C   UNK A   1     -12.391   9.052  70.732  1.00  0.00    -0.021 C  
BRANCH  26  27
HETATM   27  C   UNK A   1     -11.139   8.165  70.864  1.00  0.00    -0.258 C  
BRANCH  27  28
HETATM   28  C   UNK A   1     -11.411   6.971  71.827  1.00  0.00    -0.267 C  
ATOM     29  H   GLY A   2      -9.507   7.129  72.672  1.00  0.00     0.000 HD 
ATOM     30  N   GLY A   2     -10.406   6.650  72.718  1.00  0.00    -0.194 N  
HETATM   31  O   UNK A   1     -12.505   6.413  71.896  1.00  0.00    -0.337 OA 
BRANCH  30  32
ATOM     32  CA  GLY A   2     -10.640   5.621  73.724  1.00  0.00    -0.273 C  
ATOM     33  OXT GLY A   2     -10.412   3.203  73.987  1.00  0.00    -0.146 OA 
ATOM     34  C   GLY A   2      -9.973   4.252  73.530  1.00  0.00    -0.132 C  
ATOM     35  O   GLY A   2      -8.739   4.304  72.993  1.00  0.00    -0.099 OA 
ENDBRANCH  30  32
ENDBRANCH  27  28
BRANCH  27  36
HETATM   36  N   UNK A   1     -10.434   7.895  69.592  1.00  0.00    -0.224 N  
HETATM   37  H   UNK A   1     -10.933   7.416  68.842  1.00  0.00     0.000 HD 
HETATM   38  O   UNK A   1      -8.493   8.966  70.171  1.00  0.00    -0.123 OA 
HETATM   39  C   UNK A   1      -9.126   8.268  69.386  1.00  0.00    -0.154 C  
BRANCH  39  40
HETATM   40  C   UNK A   1      -8.520   7.886  68.044  1.00  0.00    -0.123 C  
BRANCH  40  41
HETATM   41  C   UNK A   1      -9.499   7.687  66.872  1.00  0.00    -0.222 C  
BRANCH  41  42
HETATM   42  C   UNK A   1     -10.189   6.322  66.743  1.00  0.00    -0.202 C  
HETATM   43  N   UNK A   1     -11.481   6.270  67.479  1.00  0.00    -0.589 NA 
HETATM   44  C   UNK A   1      -9.297   5.240  67.324  1.00  0.00    -0.119 C  
HETATM   45  O   UNK A   1      -8.330   4.700  66.817  1.00  0.00    -0.106 OA 
HETATM   46  O   UNK A   1      -9.693   4.976  68.590  1.00  0.00    -0.139 OA 
HETATM   47  H2  UNK A   1     -12.101   7.024  67.187  1.00  0.00     0.000 HD 
HETATM   48  H1  UNK A   1     -11.939   5.363  67.394  1.00  0.00     0.000 HD 
ENDBRANCH  41  42
ENDBRANCH  40  41
ENDBRANCH  39  40
ENDBRANCH  27  36
ENDBRANCH  26  27
ENDBRANCH  25  26
ENDBRANCH  24  25
ENDBRANCH  23  24
ENDBRANCH  14  23
ENDBRANCH  11  14
ENDBRANCH   9  10
ENDBRANCH   8   9
ENDBRANCH   4   8
TORSDOF 17
ENDMDL
MODEL       60
REMARK 921   NORMALIZED FREE ENERGY PREDICTED BY IDOCK:   -5.33 KCAL/MOL
REMARK 922        TOTAL FREE ENERGY PREDICTED BY IDOCK:  -13.61 KCAL/MOL
REMARK 923 INTER-LIGAND FREE ENERGY PREDICTED BY IDOCK:  -11.54 KCAL/MOL
REMARK 924 INTRA-LIGAND FREE ENERGY PREDICTED BY IDOCK:   -2.07 KCAL/MOL
REMARK 927      BINDING AFFINITY PREDICTED BY RF-SCORE:    0.00 PKD
ROOT
HETATM    1  N   UNK A   1      -6.569  18.357  65.403  1.00  0.00    -0.451 NA 
HETATM    2  H1  UNK A   1      -5.804  19.005  65.215  1.00  0.00     0.000 HD 
HETATM    3  H2  UNK A   1      -6.977  18.019  64.531  1.00  0.00     0.000 HD 
HETATM    4  C   UNK A   1      -7.620  18.919  66.293  1.00  0.00    -0.271 C  
HETATM    5  O   UNK A   1      -7.516  19.581  68.656  1.00  0.00    -0.323 OA 
HETATM    6  C   UNK A   1      -6.954  19.427  67.584  1.00  0.00    -0.222 C  
HETATM    7  O   UNK A   1      -5.638  19.692  67.379  1.00  0.00    -0.169 OA 
ENDROOT
BRANCH   4   8
HETATM    8  C   UNK A   1      -8.767  17.947  66.575  1.00  0.00    -0.278 C  
BRANCH   8   9
HETATM    9  C   UNK A   1     -10.092  18.295  65.895  1.00  0.00    -0.168 C  
BRANCH   9  10
HETATM   10  C   UNK A   1     -10.748  17.037  65.376  1.00  0.00    -0.116 C  
HETATM   11  N   UNK A   1     -10.602  15.939  66.197  1.00  0.00    -0.312 N  
HETATM   12  O   UNK A   1     -11.326  16.996  64.294  1.00  0.00    -1.191 OA 
HETATM   13  H   UNK A   1     -10.063  16.011  67.060  1.00  0.00     0.000 HD 
BRANCH  11  14
HETATM   14  C   UNK A   1     -11.226  14.664  65.821  1.00  0.00    -0.336 C  
BRANCH  14  15
HETATM   15  C   UNK A   1     -11.811  14.007  67.088  1.00  0.00    -0.411 C  
ATOM     16  H   GLY A   2     -11.425  15.740  68.150  1.00  0.00     0.000 HD 
ATOM     17  N   GLY A   2     -11.828  14.805  68.210  1.00  0.00    -0.310 N  
HETATM   18  O   UNK A   1     -12.214  12.854  67.106  1.00  0.00    -0.368 OA 
BRANCH  17  19
ATOM     19  CA  GLY A   2     -12.395  14.372  69.475  1.00  0.00    -0.222 C  
ATOM     20  C   GLY A   2     -12.348  15.415  70.580  1.00  0.00    -0.403 C  
ATOM     21  O   GLY A   2     -11.345  16.336  70.468  1.00  0.00    -0.378 OA 
ATOM     22  OXT GLY A   2     -13.098  15.415  71.545  1.00  0.00    -0.399 OA 
ENDBRANCH  17  19
ENDBRANCH  14  15
BRANCH  14  23
HETATM   23  C   UNK A   1     -10.207  13.742  65.129  1.00  0.00    -0.345 C  
BRANCH  23  24
HETATM   24  S   UNK A   1     -10.891  12.541  63.945  1.00  0.00    -0.450 SA 
BRANCH  24  25
HETATM   25  S   UNK A   1      -9.879  10.829  64.442  1.00  0.00    -0.341 SA 
BRANCH  25  26
HETATM   26  C   UNK A   1     -10.205  10.695  66.236  1.00  0.00    -0.245 C  
BRANCH  26  27
HETATM   27  C   UNK A   1      -9.550   9.490  66.936  1.00  0.00    -0.165 C  
BRANCH  27  28
HETATM   28  C   UNK A   1      -9.942   9.452  68.444  1.00  0.00    -0.170 C  
ATOM     29  H   GLY A   2      -9.163   7.527  68.669  1.00  0.00     0.000 HD 
ATOM     30  N   GLY A   2      -9.585   8.321  69.150  1.00  0.00    -0.159 N  
HETATM   31  O   UNK A   1     -10.428  10.421  69.025  1.00  0.00    -0.193 OA 
BRANCH  30  32
ATOM     32  CA  GLY A   2      -9.818   8.269  70.588  1.00  0.00    -0.182 C  
ATOM     33  OXT GLY A   2      -8.543   8.084  72.664  1.00  0.00    -0.144 OA 
ATOM     34  C   GLY A   2      -8.629   8.527  71.525  1.00  0.00    -0.181 C  
ATOM     35  O   GLY A   2      -7.764   9.461  71.085  1.00  0.00    -0.318 OA 
ENDBRANCH  30  32
ENDBRANCH  27  28
BRANCH  27  36
HETATM   36  N   UNK A   1      -9.592   8.227  66.167  1.00  0.00    -0.399 N  
HETATM   37  H   UNK A   1     -10.498   7.813  65.947  1.00  0.00     0.000 HD 
HETATM   38  O   UNK A   1      -7.330   8.083  65.834  1.00  0.00    -0.073 OA 
HETATM   39  C   UNK A   1      -8.450   7.592  65.738  1.00  0.00    -0.144 C  
BRANCH  39  40
HETATM   40  C   UNK A   1      -8.648   6.280  64.995  1.00  0.00     0.010 C  
BRANCH  40  41
HETATM   41  C   UNK A   1      -8.659   4.996  65.846  1.00  0.00    -0.124 C  
BRANCH  41  42
HETATM   42  C   UNK A   1     -10.023   4.431  66.266  1.00  0.00    -0.235 C  
HETATM   43  N   UNK A   1     -11.063   4.630  65.221  1.00  0.00    -0.943 NA 
HETATM   44  C   UNK A   1     -10.505   5.136  67.520  1.00  0.00    -0.080 C  
HETATM   45  O   UNK A   1     -10.169   4.946  68.675  1.00  0.00    -0.135 OA 
HETATM   46  O   UNK A   1     -11.365   6.119  67.169  1.00  0.00    -0.197 OA 
HETATM   47  H2  UNK A   1     -10.764   4.242  64.327  1.00  0.00     0.000 HD 
HETATM   48  H1  UNK A   1     -11.970   4.255  65.500  1.00  0.00     0.000 HD 
ENDBRANCH  41  42
ENDBRANCH  40  41
ENDBRANCH  39  40
ENDBRANCH  27  36
ENDBRANCH  26  27
ENDBRANCH  25  26
ENDBRANCH  24  25
ENDBRANCH  23  24
ENDBRANCH  14  23
ENDBRANCH  11  14
ENDBRANCH   9  10
ENDBRANCH   8   9
ENDBRANCH   4   8
TORSDOF 17
ENDMDL
MODEL       61
REMARK 921   NORMALIZED FREE ENERGY PREDICTED BY IDOCK:   -5.33 KCAL/MOL
REMARK 922        TOTAL FREE ENERGY PREDICTED BY IDOCK:  -13.60 KCAL/MOL
REMARK 923 INTER-LIGAND FREE ENERGY PREDICTED BY IDOCK:  -11.28 KCAL/MOL
REMARK 924 INTRA-LIGAND FREE ENERGY PREDICTED BY IDOCK:   -2.32 KCAL/MOL
REMARK 927      BINDING AFFINITY PREDICTED BY RF-SCORE:    0.00 PKD
ROOT
HETATM    1  N   UNK A   1     -10.913  15.306  71.544  1.00  0.00    -0.497 NA 
HETATM    2  H1  UNK A   1     -10.504  16.072  72.078  1.00  0.00     0.000 HD 
HETATM    3  H2  UNK A   1     -10.359  15.110  70.711  1.00  0.00     0.000 HD 
HETATM    4  C   UNK A   1     -12.341  15.525  71.187  1.00  0.00    -0.411 C  
HETATM    5  O   UNK A   1     -14.333  15.678  72.616  1.00  0.00    -0.487 OA 
HETATM    6  C   UNK A   1     -13.130  15.830  72.473  1.00  0.00    -0.474 C  
HETATM    7  O   UNK A   1     -12.309  16.300  73.446  1.00  0.00    -0.488 OA 
ENDROOT
BRANCH   4   8
HETATM    8  C   UNK A   1     -12.955  14.375  70.387  1.00  0.00    -0.208 C  
BRANCH   8   9
HETATM    9  C   UNK A   1     -12.335  13.001  70.650  1.00  0.00    -0.391 C  
BRANCH   9  10
HETATM   10  C   UNK A   1     -11.519  12.570  69.453  1.00  0.00    -0.263 C  
HETATM   11  N   UNK A   1     -12.015  11.465  68.794  1.00  0.00    -0.332 N  
HETATM   12  O   UNK A   1     -10.480  13.138  69.129  1.00  0.00    -0.072 OA 
HETATM   13  H   UNK A   1     -12.851  10.995  69.139  1.00  0.00     0.000 HD 
BRANCH  11  14
HETATM   14  C   UNK A   1     -11.330  10.970  67.593  1.00  0.00    -0.281 C  
BRANCH  14  15
HETATM   15  C   UNK A   1     -10.189  10.028  68.027  1.00  0.00    -0.181 C  
ATOM     16  H   GLY A   2     -11.588   8.696  68.769  1.00  0.00     0.000 HD 
ATOM     17  N   GLY A   2     -10.591   8.851  68.619  1.00  0.00    -0.186 N  
HETATM   18  O   UNK A   1      -9.010  10.309  67.878  1.00  0.00    -0.130 OA 
BRANCH  17  19
ATOM     19  CA  GLY A   2      -9.657   7.821  69.037  1.00  0.00    -0.155 C  
ATOM     20  C   GLY A   2      -9.932   7.237  70.414  1.00  0.00    -0.191 C  
ATOM     21  O   GLY A   2     -10.589   8.069  71.276  1.00  0.00    -0.206 OA 
ATOM     22  OXT GLY A   2      -9.547   6.134  70.772  1.00  0.00    -0.167 OA 
ENDBRANCH  17  19
ENDBRANCH  14  15
BRANCH  14  23
HETATM   23  C   UNK A   1     -10.801  12.141  66.747  1.00  0.00    -0.248 C  
BRANCH  23  24
HETATM   24  S   UNK A   1     -12.001  12.915  65.617  1.00  0.00    -0.459 SA 
BRANCH  24  25
HETATM   25  S   UNK A   1     -11.061  14.673  65.137  1.00  0.00    -0.401 SA 
BRANCH  25  26
HETATM   26  C   UNK A   1      -9.451  14.494  65.986  1.00  0.00    -0.229 C  
BRANCH  26  27
HETATM   27  C   UNK A   1      -9.184  15.508  67.113  1.00  0.00    -0.214 C  
BRANCH  27  28
HETATM   28  C   UNK A   1      -7.758  15.307  67.706  1.00  0.00    -0.149 C  
ATOM     29  H   GLY A   2      -8.493  15.316  69.661  1.00  0.00     0.000 HD 
ATOM     30  N   GLY A   2      -7.666  15.189  69.078  1.00  0.00    -0.162 N  
HETATM   31  O   UNK A   1      -6.767  15.131  66.999  1.00  0.00    -0.235 OA 
BRANCH  30  32
ATOM     32  CA  GLY A   2      -6.377  14.884  69.688  1.00  0.00    -0.142 C  
ATOM     33  OXT GLY A   2      -5.327  13.118  71.009  1.00  0.00    -0.155 OA 
ATOM     34  C   GLY A   2      -6.102  13.435  70.115  1.00  0.00    -0.112 C  
ATOM     35  O   GLY A   2      -6.617  12.504  69.290  1.00  0.00    -0.102 OA 
ENDBRANCH  30  32
ENDBRANCH  27  28
BRANCH  27  36
HETATM   36  N   UNK A   1      -9.639  16.887  66.828  1.00  0.00    -0.251 N  
HETATM   37  H   UNK A   1      -9.361  17.327  65.951  1.00  0.00     0.000 HD 
HETATM   38  O   UNK A   1     -10.921  17.103  68.715  1.00  0.00    -0.258 OA 
HETATM   39  C   UNK A   1     -10.425  17.595  67.707  1.00  0.00    -0.378 C  
BRANCH  39  40
HETATM   40  C   UNK A   1     -10.780  19.017  67.298  1.00  0.00    -0.556 C  
BRANCH  40  41
HETATM   41  C   UNK A   1      -9.985  20.151  67.973  1.00  0.00    -0.519 C  
BRANCH  41  42
HETATM   42  C   UNK A   1      -8.611  20.505  67.387  1.00  0.00    -0.271 C  
HETATM   43  N   UNK A   1      -8.479  20.088  65.965  1.00  0.00    -0.520 NA 
HETATM   44  C   UNK A   1      -7.522  19.792  68.168  1.00  0.00    -0.308 C  
HETATM   45  O   UNK A   1      -7.042  20.091  69.246  1.00  0.00    -0.280 OA 
HETATM   46  O   UNK A   1      -7.172  18.666  67.506  1.00  0.00    -0.210 OA 
HETATM   47  H2  UNK A   1      -9.231  20.475  65.396  1.00  0.00     0.000 HD 
HETATM   48  H1  UNK A   1      -7.565  20.323  65.576  1.00  0.00     0.000 HD 
ENDBRANCH  41  42
ENDBRANCH  40  41
ENDBRANCH  39  40
ENDBRANCH  27  36
ENDBRANCH  26  27
ENDBRANCH  25  26
ENDBRANCH  24  25
ENDBRANCH  23  24
ENDBRANCH  14  23
ENDBRANCH  11  14
ENDBRANCH   9  10
ENDBRANCH   8   9
ENDBRANCH   4   8
TORSDOF 17
ENDMDL
MODEL       62
REMARK 921   NORMALIZED FREE ENERGY PREDICTED BY IDOCK:   -5.32 KCAL/MOL
REMARK 922        TOTAL FREE ENERGY PREDICTED BY IDOCK:  -13.58 KCAL/MOL
REMARK 923 INTER-LIGAND FREE ENERGY PREDICTED BY IDOCK:  -12.33 KCAL/MOL
REMARK 924 INTRA-LIGAND FREE ENERGY PREDICTED BY IDOCK:   -1.25 KCAL/MOL
REMARK 927      BINDING AFFINITY PREDICTED BY RF-SCORE:    0.00 PKD
ROOT
HETATM    1  N   UNK A   1     -10.543  15.388  71.002  1.00  0.00    -0.371 NA 
HETATM    2  H1  UNK A   1     -10.117  16.035  71.665  1.00  0.00     0.000 HD 
HETATM    3  H2  UNK A   1      -9.988  15.329  70.148  1.00  0.00     0.000 HD 
HETATM    4  C   UNK A   1     -11.962  15.706  70.688  1.00  0.00    -0.402 C  
HETATM    5  O   UNK A   1     -13.958  15.655  72.118  1.00  0.00    -0.499 OA 
HETATM    6  C   UNK A   1     -12.751  15.797  72.006  1.00  0.00    -0.449 C  
HETATM    7  O   UNK A   1     -11.924  16.063  73.049  1.00  0.00    -0.465 OA 
ENDROOT
BRANCH   4   8
HETATM    8  C   UNK A   1     -12.601  14.734  69.694  1.00  0.00    -0.097 C  
BRANCH   8   9
HETATM    9  C   UNK A   1     -12.331  13.255  69.972  1.00  0.00    -0.269 C  
BRANCH   9  10
HETATM   10  C   UNK A   1     -11.478  12.673  68.869  1.00  0.00    -0.306 C  
HETATM   11  N   UNK A   1     -10.250  13.281  68.718  1.00  0.00    -0.406 N  
HETATM   12  O   UNK A   1     -11.872  11.763  68.145  1.00  0.00    -0.451 OA 
HETATM   13  H   UNK A   1      -9.993  14.071  69.309  1.00  0.00     0.000 HD 
BRANCH  11  14
HETATM   14  C   UNK A   1      -9.313  12.782  67.702  1.00  0.00    -0.191 C  
BRANCH  14  15
HETATM   15  C   UNK A   1      -9.753  13.312  66.322  1.00  0.00    -0.268 C  
ATOM     16  H   GLY A   2     -10.091  11.368  65.698  1.00  0.00     0.000 HD 
ATOM     17  N   GLY A   2     -10.151  12.348  65.422  1.00  0.00    -0.274 N  
HETATM   18  O   UNK A   1      -9.733  14.499  66.036  1.00  0.00    -0.298 OA 
BRANCH  17  19
ATOM     19  CA  GLY A   2     -10.651  12.668  64.097  1.00  0.00    -0.407 C  
ATOM     20  C   GLY A   2     -12.102  13.121  64.059  1.00  0.00    -0.446 C  
ATOM     21  O   GLY A   2     -12.883  12.651  65.077  1.00  0.00    -0.765 OA 
ATOM     22  OXT GLY A   2     -12.578  13.799  63.161  1.00  0.00    -0.793 OA 
ENDBRANCH  17  19
ENDBRANCH  14  15
BRANCH  14  23
HETATM   23  C   UNK A   1      -9.257  11.245  67.723  1.00  0.00    -0.156 C  
BRANCH  23  24
HETATM   24  S   UNK A   1      -7.714  10.511  68.352  1.00  0.00    -0.109 SA 
BRANCH  24  25
HETATM   25  S   UNK A   1      -8.060   8.507  68.094  1.00  0.00    -0.120 SA 
BRANCH  25  26
HETATM   26  C   UNK A   1      -9.538   8.233  69.133  1.00  0.00    -0.160 C  
BRANCH  26  27
HETATM   27  C   UNK A   1      -9.601   6.868  69.843  1.00  0.00    -0.156 C  
BRANCH  27  28
HETATM   28  C   UNK A   1     -10.823   6.806  70.808  1.00  0.00    -0.249 C  
ATOM     29  H   GLY A   2     -11.539   8.648  70.130  1.00  0.00     0.000 HD 
ATOM     30  N   GLY A   2     -11.727   7.848  70.734  1.00  0.00    -0.260 N  
HETATM   31  O   UNK A   1     -11.058   5.828  71.515  1.00  0.00    -0.265 OA 
BRANCH  30  32
ATOM     32  CA  GLY A   2     -12.950   7.794  71.524  1.00  0.00    -0.325 C  
ATOM     33  OXT GLY A   2     -14.309   9.256  72.933  1.00  0.00    -0.461 OA 
ATOM     34  C   GLY A   2     -13.602   9.120  71.941  1.00  0.00    -0.432 C  
ATOM     35  O   GLY A   2     -13.521  10.096  71.017  1.00  0.00    -0.351 OA 
ENDBRANCH  30  32
ENDBRANCH  27  28
BRANCH  27  36
HETATM   36  N   UNK A   1      -9.334   5.703  68.972  1.00  0.00    -0.121 N  
HETATM   37  H   UNK A   1      -8.556   5.084  69.200  1.00  0.00     0.000 HD 
HETATM   38  O   UNK A   1     -11.133   6.028  67.591  1.00  0.00    -0.297 OA 
HETATM   39  C   UNK A   1     -10.100   5.426  67.864  1.00  0.00    -0.168 C  
BRANCH  39  40
HETATM   40  C   UNK A   1      -9.679   4.219  67.039  1.00  0.00    -0.237 C  
BRANCH  40  41
HETATM   41  C   UNK A   1      -8.902   4.503  65.740  1.00  0.00    -0.124 C  
BRANCH  41  42
HETATM   42  C   UNK A   1      -9.703   4.583  64.433  1.00  0.00     0.015 C  
HETATM   43  N   UNK A   1     -11.167   4.444  64.658  1.00  0.00    -0.877 NA 
HETATM   44  C   UNK A   1      -9.282   3.460  63.503  1.00  0.00    -0.098 C  
HETATM   45  O   UNK A   1      -8.296   3.393  62.792  1.00  0.00    -0.076 OA 
HETATM   46  O   UNK A   1     -10.162   2.440  63.621  1.00  0.00    -0.145 OA 
HETATM   47  H2  UNK A   1     -11.501   5.127  65.337  1.00  0.00     0.000 HD 
HETATM   48  H1  UNK A   1     -11.699   4.497  63.790  1.00  0.00     0.000 HD 
ENDBRANCH  41  42
ENDBRANCH  40  41
ENDBRANCH  39  40
ENDBRANCH  27  36
ENDBRANCH  26  27
ENDBRANCH  25  26
ENDBRANCH  24  25
ENDBRANCH  23  24
ENDBRANCH  14  23
ENDBRANCH  11  14
ENDBRANCH   9  10
ENDBRANCH   8   9
ENDBRANCH   4   8
TORSDOF 17
ENDMDL
MODEL       63
REMARK 921   NORMALIZED FREE ENERGY PREDICTED BY IDOCK:   -5.31 KCAL/MOL
REMARK 922        TOTAL FREE ENERGY PREDICTED BY IDOCK:  -13.56 KCAL/MOL
REMARK 923 INTER-LIGAND FREE ENERGY PREDICTED BY IDOCK:  -11.24 KCAL/MOL
REMARK 924 INTRA-LIGAND FREE ENERGY PREDICTED BY IDOCK:   -2.32 KCAL/MOL
REMARK 927      BINDING AFFINITY PREDICTED BY RF-SCORE:    0.00 PKD
ROOT
HETATM    1  N   UNK A   1     -11.388   4.365  65.169  1.00  0.00    -1.082 NA 
HETATM    2  H1  UNK A   1     -11.407   3.575  64.524  1.00  0.00     0.000 HD 
HETATM    3  H2  UNK A   1     -12.020   5.102  64.855  1.00  0.00     0.000 HD 
HETATM    4  C   UNK A   1     -10.023   4.907  65.405  1.00  0.00    -0.024 C  
HETATM    5  O   UNK A   1      -8.073   3.887  66.497  1.00  0.00    -0.096 OA 
HETATM    6  C   UNK A   1      -9.107   3.758  65.861  1.00  0.00    -0.150 C  
HETATM    7  O   UNK A   1      -9.598   2.558  65.460  1.00  0.00     0.003 OA 
ENDROOT
BRANCH   4   8
HETATM    8  C   UNK A   1      -9.995   6.091  66.374  1.00  0.00    -0.145 C  
BRANCH   8   9
HETATM    9  C   UNK A   1     -10.961   5.985  67.554  1.00  0.00    -0.335 C  
BRANCH   9  10
HETATM   10  C   UNK A   1     -10.185   5.950  68.850  1.00  0.00    -0.198 C  
HETATM   11  N   UNK A   1      -9.808   7.190  69.322  1.00  0.00    -0.159 N  
HETATM   12  O   UNK A   1      -9.884   4.898  69.407  1.00  0.00    -0.176 OA 
HETATM   13  H   UNK A   1     -10.034   8.030  68.791  1.00  0.00     0.000 HD 
BRANCH  11  14
HETATM   14  C   UNK A   1      -9.079   7.291  70.593  1.00  0.00    -0.157 C  
BRANCH  14  15
HETATM   15  C   UNK A   1     -10.047   7.806  71.678  1.00  0.00    -0.185 C  
ATOM     16  H   GLY A   2     -11.633   7.520  70.381  1.00  0.00     0.000 HD 
ATOM     17  N   GLY A   2     -11.378   7.809  71.325  1.00  0.00    -0.259 N  
HETATM   18  O   UNK A   1      -9.664   8.203  72.767  1.00  0.00    -0.249 OA 
BRANCH  17  19
ATOM     19  CA  GLY A   2     -12.434   8.205  72.240  1.00  0.00    -0.301 C  
ATOM     20  C   GLY A   2     -13.034   9.574  71.960  1.00  0.00    -0.426 C  
ATOM     21  O   GLY A   2     -12.202  10.454  71.326  1.00  0.00    -0.356 OA 
ATOM     22  OXT GLY A   2     -14.150   9.913  72.324  1.00  0.00    -0.122 OA 
ENDBRANCH  17  19
ENDBRANCH  14  15
BRANCH  14  23
HETATM   23  C   UNK A   1      -7.857   8.214  70.446  1.00  0.00    -0.090 C  
BRANCH  23  24
HETATM   24  S   UNK A   1      -7.235   8.452  68.751  1.00  0.00    -0.080 SA 
BRANCH  24  25
HETATM   25  S   UNK A   1      -7.196  10.495  68.596  1.00  0.00    -0.093 SA 
BRANCH  25  26
HETATM   26  C   UNK A   1      -8.900  10.874  68.051  1.00  0.00    -0.135 C  
BRANCH  26  27
HETATM   27  C   UNK A   1      -9.045  12.120  67.158  1.00  0.00    -0.189 C  
BRANCH  27  28
HETATM   28  C   UNK A   1      -9.907  11.797  65.901  1.00  0.00    -0.238 C  
ATOM     29  H   GLY A   2     -10.242  13.824  65.524  1.00  0.00     0.000 HD 
ATOM     30  N   GLY A   2     -10.386  12.874  65.183  1.00  0.00    -0.300 N  
HETATM   31  O   UNK A   1     -10.057  10.651  65.480  1.00  0.00    -0.255 OA 
BRANCH  30  32
ATOM     32  CA  GLY A   2     -11.100  12.643  63.933  1.00  0.00    -0.427 C  
ATOM     33  OXT GLY A   2     -13.224  11.718  63.159  1.00  0.00    -0.538 OA 
ATOM     34  C   GLY A   2     -12.607  12.359  64.001  1.00  0.00    -0.412 C  
ATOM     35  O   GLY A   2     -13.263  13.049  64.953  1.00  0.00    -0.735 OA 
ENDBRANCH  30  32
ENDBRANCH  27  28
BRANCH  27  36
HETATM   36  N   UNK A   1      -9.310  13.379  67.888  1.00  0.00    -0.208 N  
HETATM   37  H   UNK A   1      -8.634  14.140  67.820  1.00  0.00     0.000 HD 
HETATM   38  O   UNK A   1     -11.365  12.757  68.685  1.00  0.00    -0.252 OA 
HETATM   39  C   UNK A   1     -10.437  13.557  68.655  1.00  0.00    -0.232 C  
BRANCH  39  40
HETATM   40  C   UNK A   1     -10.553  14.889  69.382  1.00  0.00    -0.255 C  
BRANCH  40  41
HETATM   41  C   UNK A   1     -11.851  15.137  70.174  1.00  0.00    -0.351 C  
BRANCH  41  42
HETATM   42  C   UNK A   1     -11.976  14.483  71.558  1.00  0.00    -0.291 C  
HETATM   43  N   UNK A   1     -12.942  13.352  71.563  1.00  0.00    -0.359 NA 
HETATM   44  C   UNK A   1     -12.474  15.504  72.564  1.00  0.00    -0.409 C  
HETATM   45  O   UNK A   1     -11.846  16.380  73.131  1.00  0.00    -0.472 OA 
HETATM   46  O   UNK A   1     -13.810  15.358  72.713  1.00  0.00    -0.504 OA 
HETATM   47  H2  UNK A   1     -12.705  12.662  70.850  1.00  0.00     0.000 HD 
HETATM   48  H1  UNK A   1     -13.026  12.918  72.482  1.00  0.00     0.000 HD 
ENDBRANCH  41  42
ENDBRANCH  40  41
ENDBRANCH  39  40
ENDBRANCH  27  36
ENDBRANCH  26  27
ENDBRANCH  25  26
ENDBRANCH  24  25
ENDBRANCH  23  24
ENDBRANCH  14  23
ENDBRANCH  11  14
ENDBRANCH   9  10
ENDBRANCH   8   9
ENDBRANCH   4   8
TORSDOF 17
ENDMDL
MODEL       64
REMARK 921   NORMALIZED FREE ENERGY PREDICTED BY IDOCK:   -5.30 KCAL/MOL
REMARK 922        TOTAL FREE ENERGY PREDICTED BY IDOCK:  -13.53 KCAL/MOL
REMARK 923 INTER-LIGAND FREE ENERGY PREDICTED BY IDOCK:  -10.81 KCAL/MOL
REMARK 924 INTRA-LIGAND FREE ENERGY PREDICTED BY IDOCK:   -2.72 KCAL/MOL
REMARK 927      BINDING AFFINITY PREDICTED BY RF-SCORE:    0.00 PKD
ROOT
HETATM    1  N   UNK A   1     -11.750  13.288  70.437  1.00  0.00    -0.543 NA 
HETATM    2  H1  UNK A   1     -12.431  13.990  70.727  1.00  0.00     0.000 HD 
HETATM    3  H2  UNK A   1     -11.283  13.574  69.576  1.00  0.00     0.000 HD 
HETATM    4  C   UNK A   1     -12.326  11.924  70.295  1.00  0.00    -0.207 C  
HETATM    5  O   UNK A   1     -13.260  10.408  71.987  1.00  0.00    -0.456 OA 
HETATM    6  C   UNK A   1     -13.030  11.546  71.610  1.00  0.00    -0.394 C  
HETATM    7  O   UNK A   1     -13.372  12.655  72.313  1.00  0.00    -0.533 OA 
ENDROOT
BRANCH   4   8
HETATM    8  C   UNK A   1     -11.304  10.872  69.860  1.00  0.00    -0.381 C  
BRANCH   8   9
HETATM    9  C   UNK A   1     -11.415  10.428  68.400  1.00  0.00    -0.227 C  
BRANCH   9  10
HETATM   10  C   UNK A   1     -10.508   9.245  68.154  1.00  0.00    -0.215 C  
HETATM   11  N   UNK A   1      -9.338   9.263  68.882  1.00  0.00    -0.149 N  
HETATM   12  O   UNK A   1     -10.781   8.367  67.340  1.00  0.00    -0.269 OA 
HETATM   13  H   UNK A   1      -9.132  10.046  69.503  1.00  0.00     0.000 HD 
BRANCH  11  14
HETATM   14  C   UNK A   1      -8.388   8.149  68.758  1.00  0.00    -0.126 C  
BRANCH  14  15
HETATM   15  C   UNK A   1      -8.379   7.358  70.082  1.00  0.00    -0.136 C  
ATOM     16  H   GLY A   2     -10.312   6.723  69.701  1.00  0.00     0.000 HD 
ATOM     17  N   GLY A   2      -9.530   6.650  70.351  1.00  0.00    -0.166 N  
HETATM   18  O   UNK A   1      -7.430   7.370  70.850  1.00  0.00    -0.072 OA 
BRANCH  17  19
ATOM     19  CA  GLY A   2      -9.676   5.803  71.522  1.00  0.00    -0.159 C  
ATOM     20  C   GLY A   2     -10.782   6.226  72.476  1.00  0.00    -0.226 C  
ATOM     21  O   GLY A   2     -11.092   7.558  72.452  1.00  0.00    -0.260 OA 
ATOM     22  OXT GLY A   2     -11.325   5.467  73.265  1.00  0.00    -0.265 OA 
ENDBRANCH  17  19
ENDBRANCH  14  15
BRANCH  14  23
HETATM   23  C   UNK A   1      -6.984   8.668  68.404  1.00  0.00    -0.066 C  
BRANCH  23  24
HETATM   24  S   UNK A   1      -6.328   8.153  66.785  1.00  0.00    -0.056 SA 
BRANCH  24  25
HETATM   25  S   UNK A   1      -7.953   8.415  65.564  1.00  0.00    -0.122 SA 
BRANCH  25  26
HETATM   26  C   UNK A   1      -7.863  10.200  65.178  1.00  0.00    -0.140 C  
BRANCH  26  27
HETATM   27  C   UNK A   1      -8.734  11.111  66.063  1.00  0.00    -0.183 C  
BRANCH  27  28
HETATM   28  C   UNK A   1      -7.848  12.121  66.850  1.00  0.00    -0.069 C  
ATOM     29  H   GLY A   2      -9.525  13.145  67.561  1.00  0.00     0.000 HD 
ATOM     30  N   GLY A   2      -8.508  13.073  67.602  1.00  0.00    -0.173 N  
HETATM   31  O   UNK A   1      -6.625  12.016  66.916  1.00  0.00    -0.134 OA 
BRANCH  30  32
ATOM     32  CA  GLY A   2      -7.742  13.974  68.453  1.00  0.00    -0.138 C  
ATOM     33  OXT GLY A   2      -7.839  16.271  69.278  1.00  0.00    -0.238 OA 
ATOM     34  C   GLY A   2      -8.432  15.243  68.972  1.00  0.00    -0.221 C  
ATOM     35  O   GLY A   2      -9.734  15.085  69.277  1.00  0.00    -0.218 OA 
ENDBRANCH  30  32
ENDBRANCH  27  28
BRANCH  27  36
HETATM   36  N   UNK A   1      -9.966  11.612  65.413  1.00  0.00    -0.242 N  
HETATM   37  H   UNK A   1     -10.766  11.857  65.996  1.00  0.00     0.000 HD 
HETATM   38  O   UNK A   1      -9.118  11.620  63.285  1.00  0.00    -0.114 OA 
HETATM   39  C   UNK A   1     -10.067  11.757  64.050  1.00  0.00    -0.327 C  
BRANCH  39  40
HETATM   40  C   UNK A   1     -11.409  12.242  63.523  1.00  0.00    -0.549 C  
BRANCH  40  41
HETATM   41  C   UNK A   1     -12.505  12.523  64.569  1.00  0.00    -0.539 C  
BRANCH  41  42
HETATM   42  C   UNK A   1     -12.727  13.981  64.995  1.00  0.00    -0.328 C  
HETATM   43  N   UNK A   1     -12.314  14.947  63.941  1.00  0.00    -1.064 NA 
HETATM   44  C   UNK A   1     -11.901  14.285  66.231  1.00  0.00    -0.406 C  
HETATM   45  O   UNK A   1     -12.140  14.002  67.391  1.00  0.00    -0.402 OA 
HETATM   46  O   UNK A   1     -10.753  14.892  65.854  1.00  0.00    -0.300 OA 
HETATM   47  H2  UNK A   1     -12.780  14.747  63.056  1.00  0.00     0.000 HD 
HETATM   48  H1  UNK A   1     -12.461  15.915  64.224  1.00  0.00     0.000 HD 
ENDBRANCH  41  42
ENDBRANCH  40  41
ENDBRANCH  39  40
ENDBRANCH  27  36
ENDBRANCH  26  27
ENDBRANCH  25  26
ENDBRANCH  24  25
ENDBRANCH  23  24
ENDBRANCH  14  23
ENDBRANCH  11  14
ENDBRANCH   9  10
ENDBRANCH   8   9
ENDBRANCH   4   8
TORSDOF 17
ENDMDL
MODEL       65
REMARK 921   NORMALIZED FREE ENERGY PREDICTED BY IDOCK:   -5.29 KCAL/MOL
REMARK 922        TOTAL FREE ENERGY PREDICTED BY IDOCK:  -13.51 KCAL/MOL
REMARK 923 INTER-LIGAND FREE ENERGY PREDICTED BY IDOCK:  -11.53 KCAL/MOL
REMARK 924 INTRA-LIGAND FREE ENERGY PREDICTED BY IDOCK:   -1.98 KCAL/MOL
REMARK 927      BINDING AFFINITY PREDICTED BY RF-SCORE:    0.00 PKD
ROOT
HETATM    1  N   UNK A   1      -8.910   7.683  71.715  1.00  0.00    -0.114 NA 
HETATM    2  H1  UNK A   1      -8.923   8.291  72.533  1.00  0.00     0.000 HD 
HETATM    3  H2  UNK A   1      -8.521   8.172  70.908  1.00  0.00     0.000 HD 
HETATM    4  C   UNK A   1     -10.238   7.098  71.386  1.00  0.00    -0.192 C  
HETATM    5  O   UNK A   1     -11.625   5.498  72.630  1.00  0.00    -0.300 OA 
HETATM    6  C   UNK A   1     -10.787   6.386  72.634  1.00  0.00    -0.240 C  
HETATM    7  O   UNK A   1     -10.217   6.878  73.763  1.00  0.00    -0.296 OA 
ENDROOT
BRANCH   4   8
HETATM    8  C   UNK A   1     -10.217   6.186  70.158  1.00  0.00    -0.254 C  
BRANCH   8   9
HETATM    9  C   UNK A   1     -11.238   6.536  69.074  1.00  0.00    -0.354 C  
BRANCH   9  10
HETATM   10  C   UNK A   1     -10.660   7.574  68.142  1.00  0.00    -0.145 C  
HETATM   11  N   UNK A   1     -10.988   8.874  68.463  1.00  0.00    -0.454 N  
HETATM   12  O   UNK A   1      -9.990   7.273  67.158  1.00  0.00    -0.178 OA 
HETATM   13  H   UNK A   1     -11.596   9.068  69.258  1.00  0.00     0.000 HD 
BRANCH  11  14
HETATM   14  C   UNK A   1     -10.456   9.978  67.653  1.00  0.00    -0.246 C  
BRANCH  14  15
HETATM   15  C   UNK A   1      -9.050  10.339  68.172  1.00  0.00    -0.136 C  
ATOM     16  H   GLY A   2      -8.557  11.063  66.297  1.00  0.00     0.000 HD 
ATOM     17  N   GLY A   2      -8.219  10.937  67.250  1.00  0.00    -0.121 N  
HETATM   18  O   UNK A   1      -8.685  10.096  69.312  1.00  0.00    -0.156 OA 
BRANCH  17  19
ATOM     19  CA  GLY A   2      -6.881  11.397  67.579  1.00  0.00    -0.086 C  
ATOM     20  C   GLY A   2      -6.806  12.835  68.066  1.00  0.00    -0.100 C  
ATOM     21  O   GLY A   2      -7.806  13.652  67.617  1.00  0.00    -0.145 OA 
ATOM     22  OXT GLY A   2      -5.895  13.272  68.753  1.00  0.00    -0.070 OA 
ENDBRANCH  17  19
ENDBRANCH  14  15
BRANCH  14  23
HETATM   23  C   UNK A   1     -11.402  11.191  67.700  1.00  0.00    -0.284 C  
BRANCH  23  24
HETATM   24  S   UNK A   1     -11.360  12.293  66.251  1.00  0.00    -0.360 SA 
BRANCH  24  25
HETATM   25  S   UNK A   1     -11.962  14.079  67.057  1.00  0.00    -0.422 SA 
BRANCH  25  26
HETATM   26  C   UNK A   1     -10.770  15.255  66.323  1.00  0.00    -0.315 C  
BRANCH  26  27
HETATM   27  C   UNK A   1     -10.302  16.387  67.256  1.00  0.00    -0.287 C  
BRANCH  27  28
HETATM   28  C   UNK A   1      -9.983  17.675  66.439  1.00  0.00    -0.334 C  
ATOM     29  H   GLY A   2      -8.444  18.207  67.746  1.00  0.00     0.000 HD 
ATOM     30  N   GLY A   2      -8.925  18.444  66.879  1.00  0.00    -0.272 N  
HETATM   31  O   UNK A   1     -10.550  17.944  65.381  1.00  0.00    -0.656 OA 
BRANCH  30  32
ATOM     32  CA  GLY A   2      -8.501  19.598  66.095  1.00  0.00    -0.334 C  
ATOM     33  OXT GLY A   2      -6.439  20.716  65.413  1.00  0.00    -0.249 OA 
ATOM     34  C   GLY A   2      -7.035  19.671  65.647  1.00  0.00    -0.302 C  
ATOM     35  O   GLY A   2      -6.493  18.483  65.316  1.00  0.00    -0.380 OA 
ENDBRANCH  30  32
ENDBRANCH  27  28
BRANCH  27  36
HETATM   36  N   UNK A   1     -11.080  16.522  68.507  1.00  0.00    -0.354 N  
HETATM   37  H   UNK A   1     -12.021  16.911  68.463  1.00  0.00     0.000 HD 
HETATM   38  O   UNK A   1      -9.515  15.538  69.860  1.00  0.00    -0.256 OA 
HETATM   39  C   UNK A   1     -10.575  16.140  69.728  1.00  0.00    -0.312 C  
BRANCH  39  40
HETATM   40  C   UNK A   1     -11.474  16.378  70.932  1.00  0.00    -0.213 C  
BRANCH  40  41
HETATM   41  C   UNK A   1     -11.427  15.322  72.053  1.00  0.00    -0.500 C  
BRANCH  41  42
HETATM   42  C   UNK A   1     -12.659  15.189  72.959  1.00  0.00    -0.438 C  
HETATM   43  N   UNK A   1     -12.301  14.782  74.344  1.00  0.00    -0.566 NA 
HETATM   44  C   UNK A   1     -13.591  14.127  72.404  1.00  0.00    -0.532 C  
HETATM   45  O   UNK A   1     -14.385  14.219  71.485  1.00  0.00    -0.378 OA 
HETATM   46  O   UNK A   1     -13.368  12.964  73.056  1.00  0.00    -0.202 OA 
HETATM   47  H2  UNK A   1     -11.614  15.418  74.748  1.00  0.00     0.000 HD 
HETATM   48  H1  UNK A   1     -13.120  14.694  74.946  1.00  0.00     0.000 HD 
ENDBRANCH  41  42
ENDBRANCH  40  41
ENDBRANCH  39  40
ENDBRANCH  27  36
ENDBRANCH  26  27
ENDBRANCH  25  26
ENDBRANCH  24  25
ENDBRANCH  23  24
ENDBRANCH  14  23
ENDBRANCH  11  14
ENDBRANCH   9  10
ENDBRANCH   8   9
ENDBRANCH   4   8
TORSDOF 17
ENDMDL
MODEL       66
REMARK 921   NORMALIZED FREE ENERGY PREDICTED BY IDOCK:   -5.27 KCAL/MOL
REMARK 922        TOTAL FREE ENERGY PREDICTED BY IDOCK:  -13.48 KCAL/MOL
REMARK 923 INTER-LIGAND FREE ENERGY PREDICTED BY IDOCK:  -11.65 KCAL/MOL
REMARK 924 INTRA-LIGAND FREE ENERGY PREDICTED BY IDOCK:   -1.83 KCAL/MOL
REMARK 927      BINDING AFFINITY PREDICTED BY RF-SCORE:    0.00 PKD
ROOT
HETATM    1  N   UNK A   1     -13.114  14.099  70.405  1.00  0.00    -0.335 NA 
HETATM    2  H1  UNK A   1     -13.640  13.279  70.708  1.00  0.00     0.000 HD 
HETATM    3  H2  UNK A   1     -12.653  13.922  69.512  1.00  0.00     0.000 HD 
HETATM    4  C   UNK A   1     -12.137  14.587  71.415  1.00  0.00    -0.354 C  
HETATM    5  O   UNK A   1     -12.502  15.566  73.638  1.00  0.00    -0.464 OA 
HETATM    6  C   UNK A   1     -12.877  14.825  72.743  1.00  0.00    -0.434 C  
HETATM    7  O   UNK A   1     -14.021  14.096  72.799  1.00  0.00    -0.638 OA 
ENDROOT
BRANCH   4   8
HETATM    8  C   UNK A   1     -11.349  15.817  70.960  1.00  0.00    -0.437 C  
BRANCH   8   9
HETATM    9  C   UNK A   1     -10.140  15.518  70.072  1.00  0.00    -0.241 C  
BRANCH   9  10
HETATM   10  C   UNK A   1     -10.448  15.896  68.642  1.00  0.00    -0.240 C  
HETATM   11  N   UNK A   1      -9.364  15.836  67.792  1.00  0.00    -0.206 N  
HETATM   12  O   UNK A   1     -11.563  16.264  68.286  1.00  0.00    -0.301 OA 
HETATM   13  H   UNK A   1      -8.445  15.579  68.150  1.00  0.00     0.000 HD 
BRANCH  11  14
HETATM   14  C   UNK A   1      -9.542  16.146  66.367  1.00  0.00    -0.287 C  
BRANCH  14  15
HETATM   15  C   UNK A   1      -9.424  17.671  66.174  1.00  0.00    -0.158 C  
ATOM     16  H   GLY A   2      -7.478  17.596  66.875  1.00  0.00     0.000 HD 
ATOM     17  N   GLY A   2      -8.198  18.211  66.498  1.00  0.00    -0.262 N  
HETATM   18  O   UNK A   1     -10.353  18.360  65.782  1.00  0.00    -0.588 OA 
BRANCH  17  19
ATOM     19  CA  GLY A   2      -7.889  19.619  66.324  1.00  0.00    -0.321 C  
ATOM     20  C   GLY A   2      -7.441  20.330  67.591  1.00  0.00    -0.309 C  
ATOM     21  O   GLY A   2      -7.906  19.788  68.756  1.00  0.00    -0.316 OA 
ATOM     22  OXT GLY A   2      -6.771  21.352  67.595  1.00  0.00    -0.503 OA 
ENDBRANCH  17  19
ENDBRANCH  14  15
BRANCH  14  23
HETATM   23  C   UNK A   1     -10.896  15.619  65.861  1.00  0.00    -0.293 C  
BRANCH  23  24
HETATM   24  S   UNK A   1     -10.834  14.124  64.823  1.00  0.00    -0.397 SA 
BRANCH  24  25
HETATM   25  S   UNK A   1     -12.028  12.828  65.870  1.00  0.00    -0.431 SA 
BRANCH  25  26
HETATM   26  C   UNK A   1     -11.043  11.289  65.845  1.00  0.00    -0.101 C  
BRANCH  26  27
HETATM   27  C   UNK A   1     -10.168  11.045  67.089  1.00  0.00    -0.206 C  
BRANCH  27  28
HETATM   28  C   UNK A   1     -10.952  11.395  68.388  1.00  0.00    -0.215 C  
ATOM     29  H   GLY A   2     -11.788   9.484  68.482  1.00  0.00     0.000 HD 
ATOM     30  N   GLY A   2     -11.700  10.383  68.955  1.00  0.00    -0.143 N  
HETATM   31  O   UNK A   1     -10.824  12.473  68.967  1.00  0.00    -0.211 OA 
BRANCH  30  32
ATOM     32  CA  GLY A   2     -12.364  10.609  70.233  1.00  0.00    -0.325 C  
ATOM     33  OXT GLY A   2     -12.819   9.423  72.318  1.00  0.00    -0.392 OA 
ATOM     34  C   GLY A   2     -12.051   9.653  71.392  1.00  0.00    -0.388 C  
ATOM     35  O   GLY A   2     -10.772   9.236  71.441  1.00  0.00    -0.317 OA 
ENDBRANCH  30  32
ENDBRANCH  27  28
BRANCH  27  36
HETATM   36  N   UNK A   1      -9.381   9.792  67.058  1.00  0.00    -0.145 N  
HETATM   37  H   UNK A   1      -9.874   8.901  67.005  1.00  0.00     0.000 HD 
HETATM   38  O   UNK A   1      -7.328  10.809  67.024  1.00  0.00    -0.099 OA 
HETATM   39  C   UNK A   1      -8.007   9.790  67.099  1.00  0.00    -0.102 C  
BRANCH  39  40
HETATM   40  C   UNK A   1      -7.336   8.424  67.103  1.00  0.00    -0.085 C  
BRANCH  40  41
HETATM   41  C   UNK A   1      -8.026   7.315  67.920  1.00  0.00    -0.119 C  
BRANCH  41  42
HETATM   42  C   UNK A   1      -8.909   6.315  67.159  1.00  0.00    -0.109 C  
HETATM   43  N   UNK A   1      -9.066   6.677  65.725  1.00  0.00    -0.360 NA 
HETATM   44  C   UNK A   1     -10.298   6.289  67.771  1.00  0.00    -0.195 C  
HETATM   45  O   UNK A   1     -10.672   5.718  68.780  1.00  0.00    -0.254 OA 
HETATM   46  O   UNK A   1     -11.112   7.089  67.047  1.00  0.00    -0.373 OA 
HETATM   47  H2  UNK A   1      -8.159   6.786  65.272  1.00  0.00     0.000 HD 
HETATM   48  H1  UNK A   1      -9.653   6.013  65.220  1.00  0.00     0.000 HD 
ENDBRANCH  41  42
ENDBRANCH  40  41
ENDBRANCH  39  40
ENDBRANCH  27  36
ENDBRANCH  26  27
ENDBRANCH  25  26
ENDBRANCH  24  25
ENDBRANCH  23  24
ENDBRANCH  14  23
ENDBRANCH  11  14
ENDBRANCH   9  10
ENDBRANCH   8   9
ENDBRANCH   4   8
TORSDOF 17
ENDMDL
MODEL       67
REMARK 921   NORMALIZED FREE ENERGY PREDICTED BY IDOCK:   -5.26 KCAL/MOL
REMARK 922        TOTAL FREE ENERGY PREDICTED BY IDOCK:  -13.46 KCAL/MOL
REMARK 923 INTER-LIGAND FREE ENERGY PREDICTED BY IDOCK:  -11.23 KCAL/MOL
REMARK 924 INTRA-LIGAND FREE ENERGY PREDICTED BY IDOCK:   -2.23 KCAL/MOL
REMARK 927      BINDING AFFINITY PREDICTED BY RF-SCORE:    0.00 PKD
ROOT
HETATM    1  N   UNK A   1     -11.085  14.863  70.461  1.00  0.00    -0.462 NA 
HETATM    2  H1  UNK A   1     -10.971  15.865  70.308  1.00  0.00     0.000 HD 
HETATM    3  H2  UNK A   1     -10.849  14.340  69.618  1.00  0.00     0.000 HD 
HETATM    4  C   UNK A   1     -12.437  14.486  70.953  1.00  0.00    -0.345 C  
HETATM    5  O   UNK A   1     -13.559  15.001  73.077  1.00  0.00    -0.452 OA 
HETATM    6  C   UNK A   1     -12.752  15.309  72.215  1.00  0.00    -0.351 C  
HETATM    7  O   UNK A   1     -12.008  16.444  72.251  1.00  0.00    -0.524 OA 
ENDROOT
BRANCH   4   8
HETATM    8  C   UNK A   1     -12.607  12.983  71.183  1.00  0.00    -0.388 C  
BRANCH   8   9
HETATM    9  C   UNK A   1     -11.934  12.089  70.140  1.00  0.00    -0.401 C  
BRANCH   9  10
HETATM   10  C   UNK A   1     -12.171  10.636  70.481  1.00  0.00    -0.358 C  
HETATM   11  N   UNK A   1     -11.102   9.807  70.214  1.00  0.00    -0.271 N  
HETATM   12  O   UNK A   1     -13.245  10.231  70.918  1.00  0.00    -0.395 OA 
HETATM   13  H   UNK A   1     -10.252  10.184  69.796  1.00  0.00     0.000 HD 
BRANCH  11  14
HETATM   14  C   UNK A   1     -11.197   8.376  70.535  1.00  0.00    -0.238 C  
BRANCH  14  15
HETATM   15  C   UNK A   1     -10.679   8.157  71.971  1.00  0.00    -0.278 C  
ATOM     16  H   GLY A   2      -8.735   8.183  71.260  1.00  0.00     0.000 HD 
ATOM     17  N   GLY A   2      -9.308   8.113  72.101  1.00  0.00    -0.182 N  
HETATM   18  O   UNK A   1     -11.426   8.011  72.926  1.00  0.00    -0.411 OA 
BRANCH  17  19
ATOM     19  CA  GLY A   2      -8.644   7.971  73.385  1.00  0.00    -0.246 C  
ATOM     20  C   GLY A   2      -7.294   7.275  73.327  1.00  0.00    -0.072 C  
ATOM     21  O   GLY A   2      -7.133   6.407  72.284  1.00  0.00    -0.079 OA 
ATOM     22  OXT GLY A   2      -6.423   7.411  74.174  1.00  0.00    -0.076 OA 
ENDBRANCH  17  19
ENDBRANCH  14  15
BRANCH  14  23
HETATM   23  C   UNK A   1     -10.405   7.537  69.517  1.00  0.00    -0.216 C  
BRANCH  23  24
HETATM   24  S   UNK A   1      -9.174   8.440  68.524  1.00  0.00    -0.134 SA 
BRANCH  24  25
HETATM   25  S   UNK A   1     -10.274   8.996  66.886  1.00  0.00    -0.261 SA 
BRANCH  25  26
HETATM   26  C   UNK A   1     -10.454  10.798  67.134  1.00  0.00    -0.237 C  
BRANCH  26  27
HETATM   27  C   UNK A   1      -9.481  11.675  66.326  1.00  0.00    -0.218 C  
BRANCH  27  28
HETATM   28  C   UNK A   1     -10.219  12.369  65.143  1.00  0.00    -0.281 C  
ATOM     29  H   GLY A   2     -11.205  13.681  66.436  1.00  0.00     0.000 HD 
ATOM     30  N   GLY A   2     -11.040  13.433  65.461  1.00  0.00    -0.281 N  
HETATM   31  O   UNK A   1      -9.999  12.083  63.967  1.00  0.00    -0.311 OA 
BRANCH  30  32
ATOM     32  CA  GLY A   2     -11.669  14.199  64.392  1.00  0.00    -0.392 C  
ATOM     33  OXT GLY A   2     -12.317  16.502  63.898  1.00  0.00    -0.540 OA 
ATOM     34  C   GLY A   2     -11.516  15.726  64.407  1.00  0.00    -0.263 C  
ATOM     35  O   GLY A   2     -10.317  16.162  64.839  1.00  0.00    -0.563 OA 
ENDBRANCH  30  32
ENDBRANCH  27  28
BRANCH  27  36
HETATM   36  N   UNK A   1      -8.549  12.483  67.144  1.00  0.00    -0.195 N  
HETATM   37  H   UNK A   1      -8.926  13.224  67.734  1.00  0.00     0.000 HD 
HETATM   38  O   UNK A   1      -6.663  11.316  66.567  1.00  0.00    -0.137 OA 
HETATM   39  C   UNK A   1      -7.191  12.267  67.134  1.00  0.00    -0.100 C  
BRANCH  39  40
HETATM   40  C   UNK A   1      -6.354  13.203  67.993  1.00  0.00    -0.127 C  
BRANCH  40  41
HETATM   41  C   UNK A   1      -6.613  14.713  67.828  1.00  0.00    -0.189 C  
BRANCH  41  42
HETATM   42  C   UNK A   1      -6.982  15.514  69.085  1.00  0.00    -0.158 C  
HETATM   43  N   UNK A   1      -8.173  14.958  69.780  1.00  0.00    -0.426 NA 
HETATM   44  C   UNK A   1      -7.312  16.945  68.702  1.00  0.00    -0.222 C  
HETATM   45  O   UNK A   1      -6.547  17.859  68.451  1.00  0.00    -0.193 OA 
HETATM   46  O   UNK A   1      -8.654  17.075  68.600  1.00  0.00    -0.254 OA 
HETATM   47  H2  UNK A   1      -8.045  13.971  69.998  1.00  0.00     0.000 HD 
HETATM   48  H1  UNK A   1      -8.419  15.490  70.615  1.00  0.00     0.000 HD 
ENDBRANCH  41  42
ENDBRANCH  40  41
ENDBRANCH  39  40
ENDBRANCH  27  36
ENDBRANCH  26  27
ENDBRANCH  25  26
ENDBRANCH  24  25
ENDBRANCH  23  24
ENDBRANCH  14  23
ENDBRANCH  11  14
ENDBRANCH   9  10
ENDBRANCH   8   9
ENDBRANCH   4   8
TORSDOF 17
ENDMDL
MODEL       68
REMARK 921   NORMALIZED FREE ENERGY PREDICTED BY IDOCK:   -5.26 KCAL/MOL
REMARK 922        TOTAL FREE ENERGY PREDICTED BY IDOCK:  -13.45 KCAL/MOL
REMARK 923 INTER-LIGAND FREE ENERGY PREDICTED BY IDOCK:  -11.20 KCAL/MOL
REMARK 924 INTRA-LIGAND FREE ENERGY PREDICTED BY IDOCK:   -2.25 KCAL/MOL
REMARK 927      BINDING AFFINITY PREDICTED BY RF-SCORE:    0.00 PKD
ROOT
HETATM    1  N   UNK A   1      -9.691  17.253  65.819  1.00  0.00    -0.544 NA 
HETATM    2  H1  UNK A   1     -10.382  17.515  65.116  1.00  0.00     0.000 HD 
HETATM    3  H2  UNK A   1      -9.533  16.245  65.811  1.00  0.00     0.000 HD 
HETATM    4  C   UNK A   1     -10.029  17.723  67.189  1.00  0.00    -0.322 C  
HETATM    5  O   UNK A   1     -10.183  20.000  68.099  1.00  0.00    -0.422 OA 
HETATM    6  C   UNK A   1     -10.271  19.242  67.146  1.00  0.00    -0.402 C  
HETATM    7  O   UNK A   1     -10.603  19.644  65.892  1.00  0.00    -0.502 OA 
ENDROOT
BRANCH   4   8
HETATM    8  C   UNK A   1      -8.992  17.330  68.244  1.00  0.00    -0.262 C  
BRANCH   8   9
HETATM    9  C   UNK A   1      -9.281  16.019  68.977  1.00  0.00    -0.244 C  
BRANCH   9  10
HETATM   10  C   UNK A   1      -8.698  14.860  68.203  1.00  0.00    -0.164 C  
HETATM   11  N   UNK A   1      -9.462  13.712  68.235  1.00  0.00    -0.213 N  
HETATM   12  O   UNK A   1      -7.614  14.930  67.631  1.00  0.00    -0.147 OA 
HETATM   13  H   UNK A   1     -10.328  13.687  68.773  1.00  0.00     0.000 HD 
BRANCH  11  14
HETATM   14  C   UNK A   1      -9.021  12.525  67.491  1.00  0.00    -0.185 C  
BRANCH  14  15
HETATM   15  C   UNK A   1      -9.969  12.312  66.294  1.00  0.00    -0.232 C  
ATOM     16  H   GLY A   2     -11.478  13.271  67.335  1.00  0.00     0.000 HD 
ATOM     17  N   GLY A   2     -11.237  12.829  66.448  1.00  0.00    -0.286 N  
HETATM   18  O   UNK A   1      -9.633  11.710  65.286  1.00  0.00    -0.232 OA 
BRANCH  17  19
ATOM     19  CA  GLY A   2     -12.243  12.771  65.402  1.00  0.00    -0.478 C  
ATOM     20  C   GLY A   2     -12.185  13.916  64.404  1.00  0.00    -0.413 C  
ATOM     21  O   GLY A   2     -11.646  15.078  64.883  1.00  0.00    -0.386 OA 
ATOM     22  OXT GLY A   2     -12.640  13.853  63.272  1.00  0.00    -0.824 OA 
ENDBRANCH  17  19
ENDBRANCH  14  15
BRANCH  14  23
HETATM   23  C   UNK A   1      -8.985  11.290  68.407  1.00  0.00    -0.167 C  
BRANCH  23  24
HETATM   24  S   UNK A   1      -8.059   9.855  67.777  1.00  0.00    -0.109 SA 
BRANCH  24  25
HETATM   25  S   UNK A   1      -9.563   8.517  67.387  1.00  0.00    -0.170 SA 
BRANCH  25  26
HETATM   26  C   UNK A   1      -8.770   6.918  67.782  1.00  0.00    -0.120 C  
BRANCH  26  27
HETATM   27  C   UNK A   1      -9.737   5.756  68.074  1.00  0.00    -0.124 C  
BRANCH  27  28
HETATM   28  C   UNK A   1      -9.541   4.607  67.041  1.00  0.00    -0.180 C  
ATOM     29  H   GLY A   2      -9.467   5.957  65.448  1.00  0.00     0.000 HD 
ATOM     30  N   GLY A   2      -9.377   4.978  65.721  1.00  0.00    -0.158 N  
HETATM   31  O   UNK A   1      -9.409   3.431  67.377  1.00  0.00    -0.183 OA 
BRANCH  30  32
ATOM     32  CA  GLY A   2      -9.074   3.961  64.722  1.00  0.00    -0.141 C  
ATOM     33  OXT GLY A   2     -10.165   2.090  63.594  1.00  0.00    -0.140 OA 
ATOM     34  C   GLY A   2     -10.245   3.219  64.064  1.00  0.00    -0.195 C  
ATOM     35  O   GLY A   2     -11.333   3.980  63.841  1.00  0.00    -0.159 OA 
ENDBRANCH  30  32
ENDBRANCH  27  28
BRANCH  27  36
HETATM   36  N   UNK A   1      -9.868   5.402  69.504  1.00  0.00    -0.177 N  
HETATM   37  H   UNK A   1      -9.148   4.825  69.937  1.00  0.00     0.000 HD 
HETATM   38  O   UNK A   1     -11.767   6.629  69.874  1.00  0.00    -0.361 OA 
HETATM   39  C   UNK A   1     -10.930   5.824  70.269  1.00  0.00    -0.276 C  
BRANCH  39  40
HETATM   40  C   UNK A   1     -10.953   5.346  71.713  1.00  0.00    -0.198 C  
BRANCH  40  41
HETATM   41  C   UNK A   1      -9.984   6.040  72.689  1.00  0.00    -0.192 C  
BRANCH  41  42
HETATM   42  C   UNK A   1     -10.356   7.445  73.183  1.00  0.00    -0.334 C  
HETATM   43  N   UNK A   1     -11.717   7.856  72.745  1.00  0.00    -0.580 NA 
HETATM   44  C   UNK A   1      -9.377   8.461  72.624  1.00  0.00    -0.264 C  
HETATM   45  O   UNK A   1      -8.251   8.721  73.006  1.00  0.00    -0.418 OA 
HETATM   46  O   UNK A   1      -9.921   9.038  71.528  1.00  0.00    -0.295 OA 
HETATM   47  H2  UNK A   1     -12.416   7.170  73.026  1.00  0.00     0.000 HD 
HETATM   48  H1  UNK A   1     -11.964   8.790  73.074  1.00  0.00     0.000 HD 
ENDBRANCH  41  42
ENDBRANCH  40  41
ENDBRANCH  39  40
ENDBRANCH  27  36
ENDBRANCH  26  27
ENDBRANCH  25  26
ENDBRANCH  24  25
ENDBRANCH  23  24
ENDBRANCH  14  23
ENDBRANCH  11  14
ENDBRANCH   9  10
ENDBRANCH   8   9
ENDBRANCH   4   8
TORSDOF 17
ENDMDL
MODEL       69
REMARK 921   NORMALIZED FREE ENERGY PREDICTED BY IDOCK:   -5.25 KCAL/MOL
REMARK 922        TOTAL FREE ENERGY PREDICTED BY IDOCK:  -13.45 KCAL/MOL
REMARK 923 INTER-LIGAND FREE ENERGY PREDICTED BY IDOCK:  -11.33 KCAL/MOL
REMARK 924 INTRA-LIGAND FREE ENERGY PREDICTED BY IDOCK:   -2.12 KCAL/MOL
REMARK 927      BINDING AFFINITY PREDICTED BY RF-SCORE:    0.00 PKD
ROOT
HETATM    1  N   UNK A   1     -13.409  12.024  63.943  1.00  0.00    -0.564 NA 
HETATM    2  H1  UNK A   1     -14.054  12.521  64.557  1.00  0.00     0.000 HD 
HETATM    3  H2  UNK A   1     -13.702  11.055  63.821  1.00  0.00     0.000 HD 
HETATM    4  C   UNK A   1     -11.991  12.095  64.386  1.00  0.00    -0.361 C  
HETATM    5  O   UNK A   1     -10.465  14.013  64.539  1.00  0.00    -0.424 OA 
HETATM    6  C   UNK A   1     -11.603  13.572  64.568  1.00  0.00    -0.381 C  
HETATM    7  O   UNK A   1     -12.703  14.341  64.772  1.00  0.00    -0.646 OA 
ENDROOT
BRANCH   4   8
HETATM    8  C   UNK A   1     -11.025  11.349  63.463  1.00  0.00    -0.406 C  
BRANCH   8   9
HETATM    9  C   UNK A   1      -9.551  11.725  63.630  1.00  0.00    -0.210 C  
BRANCH   9  10
HETATM   10  C   UNK A   1      -8.882  10.762  64.584  1.00  0.00    -0.143 C  
HETATM   11  N   UNK A   1      -9.248  10.922  65.904  1.00  0.00    -0.184 N  
HETATM   12  O   UNK A   1      -8.052   9.939  64.210  1.00  0.00    -0.136 OA 
HETATM   13  H   UNK A   1      -9.899  11.660  66.170  1.00  0.00     0.000 HD 
BRANCH  11  14
HETATM   14  C   UNK A   1      -8.694  10.022  66.924  1.00  0.00    -0.128 C  
BRANCH  14  15
HETATM   15  C   UNK A   1      -9.734   8.926  67.234  1.00  0.00    -0.181 C  
ATOM     16  H   GLY A   2      -8.199   7.618  67.696  1.00  0.00     0.000 HD 
ATOM     17  N   GLY A   2      -9.212   7.723  67.657  1.00  0.00    -0.136 N  
HETATM   18  O   UNK A   1     -10.935   9.101  67.098  1.00  0.00    -0.127 OA 
BRANCH  17  19
ATOM     19  CA  GLY A   2     -10.044   6.599  68.048  1.00  0.00    -0.154 C  
ATOM     20  C   GLY A   2     -10.277   6.473  69.545  1.00  0.00    -0.186 C  
ATOM     21  O   GLY A   2      -9.295   7.007  70.331  1.00  0.00    -0.159 OA 
ATOM     22  OXT GLY A   2     -11.228   5.885  70.037  1.00  0.00    -0.364 OA 
ENDBRANCH  17  19
ENDBRANCH  14  15
BRANCH  14  23
HETATM   23  C   UNK A   1      -8.308  10.807  68.190  1.00  0.00    -0.120 C  
BRANCH  23  24
HETATM   24  S   UNK A   1      -6.590  11.404  68.266  1.00  0.00    -0.060 SA 
BRANCH  24  25
HETATM   25  S   UNK A   1      -6.812  13.394  67.827  1.00  0.00    -0.170 SA 
BRANCH  25  26
HETATM   26  C   UNK A   1      -8.630  13.580  67.782  1.00  0.00    -0.183 C  
BRANCH  26  27
HETATM   27  C   UNK A   1      -9.189  14.789  68.555  1.00  0.00    -0.194 C  
BRANCH  27  28
HETATM   28  C   UNK A   1      -9.491  15.969  67.585  1.00  0.00    -0.216 C  
ATOM     29  H   GLY A   2     -10.512  17.022  69.073  1.00  0.00     0.000 HD 
ATOM     30  N   GLY A   2     -10.165  17.052  68.114  1.00  0.00    -0.304 N  
HETATM   31  O   UNK A   1      -9.050  16.011  66.437  1.00  0.00    -0.260 OA 
BRANCH  30  32
ATOM     32  CA  GLY A   2     -10.377  18.237  67.292  1.00  0.00    -0.390 C  
ATOM     33  OXT GLY A   2     -10.207  20.667  67.470  1.00  0.00    -0.311 OA 
ATOM     34  C   GLY A   2      -9.762  19.563  67.760  1.00  0.00    -0.354 C  
ATOM     35  O   GLY A   2      -8.556  19.442  68.347  1.00  0.00    -0.339 OA 
ENDBRANCH  30  32
ENDBRANCH  27  28
BRANCH  27  36
HETATM   36  N   UNK A   1     -10.193  14.453  69.589  1.00  0.00    -0.428 N  
HETATM   37  H   UNK A   1      -9.948  14.571  70.572  1.00  0.00     0.000 HD 
HETATM   38  O   UNK A   1     -11.876  13.944  68.120  1.00  0.00    -0.339 OA 
HETATM   39  C   UNK A   1     -11.446  13.986  69.268  1.00  0.00    -0.295 C  
BRANCH  39  40
HETATM   40  C   UNK A   1     -12.356  13.642  70.438  1.00  0.00    -0.415 C  
BRANCH  40  41
HETATM   41  C   UNK A   1     -12.317  12.187  70.942  1.00  0.00    -0.370 C  
BRANCH  41  42
HETATM   42  C   UNK A   1     -11.611  11.146  70.062  1.00  0.00    -0.338 C  
HETATM   43  N   UNK A   1     -12.441  10.733  68.899  1.00  0.00    -0.731 NA 
HETATM   44  C   UNK A   1     -11.322   9.898  70.875  1.00  0.00    -0.370 C  
HETATM   45  O   UNK A   1     -10.423   9.704  71.673  1.00  0.00    -0.147 OA 
HETATM   46  O   UNK A   1     -12.292   8.986  70.640  1.00  0.00    -0.106 OA 
HETATM   47  H2  UNK A   1     -12.735  11.541  68.351  1.00  0.00     0.000 HD 
HETATM   48  H1  UNK A   1     -11.972  10.041  68.314  1.00  0.00     0.000 HD 
ENDBRANCH  41  42
ENDBRANCH  40  41
ENDBRANCH  39  40
ENDBRANCH  27  36
ENDBRANCH  26  27
ENDBRANCH  25  26
ENDBRANCH  24  25
ENDBRANCH  23  24
ENDBRANCH  14  23
ENDBRANCH  11  14
ENDBRANCH   9  10
ENDBRANCH   8   9
ENDBRANCH   4   8
TORSDOF 17
ENDMDL
MODEL       70
REMARK 921   NORMALIZED FREE ENERGY PREDICTED BY IDOCK:   -5.25 KCAL/MOL
REMARK 922        TOTAL FREE ENERGY PREDICTED BY IDOCK:  -13.45 KCAL/MOL
REMARK 923 INTER-LIGAND FREE ENERGY PREDICTED BY IDOCK:  -11.61 KCAL/MOL
REMARK 924 INTRA-LIGAND FREE ENERGY PREDICTED BY IDOCK:   -1.84 KCAL/MOL
REMARK 927      BINDING AFFINITY PREDICTED BY RF-SCORE:    0.00 PKD
ROOT
HETATM    1  N   UNK A   1     -11.517   4.335  64.880  1.00  0.00    -1.013 NA 
HETATM    2  H1  UNK A   1     -12.305   4.217  64.244  1.00  0.00     0.000 HD 
HETATM    3  H2  UNK A   1     -11.513   5.274  65.280  1.00  0.00     0.000 HD 
HETATM    4  C   UNK A   1     -10.201   4.019  64.262  1.00  0.00    -0.182 C  
HETATM    5  O   UNK A   1      -9.300   1.888  63.440  1.00  0.00    -0.092 OA 
HETATM    6  C   UNK A   1     -10.263   2.603  63.664  1.00  0.00    -0.168 C  
HETATM    7  O   UNK A   1     -11.546   2.240  63.410  1.00  0.00    -0.221 OA 
ENDROOT
BRANCH   4   8
HETATM    8  C   UNK A   1      -9.019   4.196  65.218  1.00  0.00    -0.134 C  
BRANCH   8   9
HETATM    9  C   UNK A   1      -8.291   5.537  65.105  1.00  0.00    -0.146 C  
BRANCH   9  10
HETATM   10  C   UNK A   1      -8.151   6.159  66.475  1.00  0.00    -0.110 C  
HETATM   11  N   UNK A   1      -9.336   6.597  67.026  1.00  0.00    -0.136 N  
HETATM   12  O   UNK A   1      -7.062   6.297  67.024  1.00  0.00    -0.069 OA 
HETATM   13  H   UNK A   1     -10.207   6.511  66.503  1.00  0.00     0.000 HD 
BRANCH  11  14
HETATM   14  C   UNK A   1      -9.336   7.189  68.371  1.00  0.00    -0.135 C  
BRANCH  14  15
HETATM   15  C   UNK A   1     -10.313   6.394  69.260  1.00  0.00    -0.207 C  
ATOM     16  H   GLY A   2     -10.801   8.138  70.261  1.00  0.00     0.000 HD 
ATOM     17  N   GLY A   2     -11.003   7.141  70.190  1.00  0.00    -0.260 N  
HETATM   18  O   UNK A   1     -10.455   5.184  69.166  1.00  0.00    -0.198 OA 
BRANCH  17  19
ATOM     19  CA  GLY A   2     -12.005   6.569  71.071  1.00  0.00    -0.297 C  
ATOM     20  C   GLY A   2     -13.139   7.513  71.439  1.00  0.00    -0.325 C  
ATOM     21  O   GLY A   2     -12.822   8.842  71.403  1.00  0.00    -0.321 OA 
ATOM     22  OXT GLY A   2     -14.242   7.138  71.809  1.00  0.00    -0.406 OA 
ENDBRANCH  17  19
ENDBRANCH  14  15
BRANCH  14  23
HETATM   23  C   UNK A   1      -9.716   8.678  68.309  1.00  0.00    -0.155 C  
BRANCH  23  24
HETATM   24  S   UNK A   1      -8.440   9.801  67.658  1.00  0.00    -0.121 SA 
BRANCH  24  25
HETATM   25  S   UNK A   1      -9.067  11.618  68.372  1.00  0.00    -0.157 SA 
BRANCH  25  26
HETATM   26  C   UNK A   1     -10.829  11.300  68.742  1.00  0.00    -0.208 C  
BRANCH  26  27
HETATM   27  C   UNK A   1     -11.748  12.534  68.680  1.00  0.00    -0.325 C  
BRANCH  27  28
HETATM   28  C   UNK A   1     -12.281  12.893  70.100  1.00  0.00    -0.266 C  
ATOM     29  H   GLY A   2     -12.619  14.879  69.547  1.00  0.00     0.000 HD 
ATOM     30  N   GLY A   2     -12.723  14.187  70.289  1.00  0.00    -0.298 N  
HETATM   31  O   UNK A   1     -12.427  12.050  70.983  1.00  0.00    -0.368 OA 
BRANCH  30  32
ATOM     32  CA  GLY A   2     -13.340  14.557  71.556  1.00  0.00    -0.362 C  
ATOM     33  OXT GLY A   2     -12.707  15.505  73.716  1.00  0.00    -0.506 OA 
ATOM     34  C   GLY A   2     -12.560  15.482  72.500  1.00  0.00    -0.403 C  
ATOM     35  O   GLY A   2     -11.839  16.434  71.878  1.00  0.00    -0.497 OA 
ENDBRANCH  30  32
ENDBRANCH  27  28
BRANCH  27  36
HETATM   36  N   UNK A   1     -11.259  13.629  67.815  1.00  0.00    -0.274 N  
HETATM   37  H   UNK A   1     -10.597  14.303  68.198  1.00  0.00     0.000 HD 
HETATM   38  O   UNK A   1     -12.350  12.934  65.923  1.00  0.00    -0.493 OA 
HETATM   39  C   UNK A   1     -11.668  13.769  66.509  1.00  0.00    -0.385 C  
BRANCH  39  40
HETATM   40  C   UNK A   1     -11.114  14.968  65.755  1.00  0.00    -0.346 C  
BRANCH  40  41
HETATM   41  C   UNK A   1      -9.708  15.453  66.159  1.00  0.00    -0.347 C  
BRANCH  41  42
HETATM   42  C   UNK A   1      -9.490  16.966  66.298  1.00  0.00    -0.271 C  
HETATM   43  N   UNK A   1      -8.124  17.381  65.880  1.00  0.00    -0.554 NA 
HETATM   44  C   UNK A   1      -9.660  17.377  67.749  1.00  0.00    -0.264 C  
HETATM   45  O   UNK A   1     -10.691  17.558  68.372  1.00  0.00    -0.356 OA 
HETATM   46  O   UNK A   1      -8.440  17.458  68.329  1.00  0.00    -0.233 OA 
HETATM   47  H2  UNK A   1      -7.918  17.065  64.932  1.00  0.00     0.000 HD 
HETATM   48  H1  UNK A   1      -7.978  18.386  65.972  1.00  0.00     0.000 HD 
ENDBRANCH  41  42
ENDBRANCH  40  41
ENDBRANCH  39  40
ENDBRANCH  27  36
ENDBRANCH  26  27
ENDBRANCH  25  26
ENDBRANCH  24  25
ENDBRANCH  23  24
ENDBRANCH  14  23
ENDBRANCH  11  14
ENDBRANCH   9  10
ENDBRANCH   8   9
ENDBRANCH   4   8
TORSDOF 17
ENDMDL
MODEL       71
REMARK 921   NORMALIZED FREE ENERGY PREDICTED BY IDOCK:   -5.25 KCAL/MOL
REMARK 922        TOTAL FREE ENERGY PREDICTED BY IDOCK:  -13.44 KCAL/MOL
REMARK 923 INTER-LIGAND FREE ENERGY PREDICTED BY IDOCK:  -11.87 KCAL/MOL
REMARK 924 INTRA-LIGAND FREE ENERGY PREDICTED BY IDOCK:   -1.57 KCAL/MOL
REMARK 927      BINDING AFFINITY PREDICTED BY RF-SCORE:    0.00 PKD
ROOT
HETATM    1  N   UNK A   1      -8.180  17.482  65.974  1.00  0.00    -0.530 NA 
HETATM    2  H1  UNK A   1      -7.609  18.320  65.870  1.00  0.00     0.000 HD 
HETATM    3  H2  UNK A   1      -7.949  16.797  65.254  1.00  0.00     0.000 HD 
HETATM    4  C   UNK A   1      -9.642  17.756  65.989  1.00  0.00    -0.093 C  
HETATM    5  O   UNK A   1     -11.017  18.971  67.622  1.00  0.00    -0.407 OA 
HETATM    6  C   UNK A   1      -9.937  18.803  67.077  1.00  0.00    -0.341 C  
HETATM    7  O   UNK A   1      -8.829  19.533  67.361  1.00  0.00    -0.293 OA 
ENDROOT
BRANCH   4   8
HETATM    8  C   UNK A   1     -10.499  16.498  66.145  1.00  0.00    -0.301 C  
BRANCH   8   9
HETATM    9  C   UNK A   1     -11.000  15.891  64.833  1.00  0.00    -0.427 C  
BRANCH   9  10
HETATM   10  C   UNK A   1     -11.436  14.463  65.064  1.00  0.00    -0.372 C  
HETATM   11  N   UNK A   1     -10.671  13.775  65.982  1.00  0.00    -0.281 N  
HETATM   12  O   UNK A   1     -12.369  13.954  64.450  1.00  0.00    -0.557 OA 
HETATM   13  H   UNK A   1      -9.870  14.226  66.422  1.00  0.00     0.000 HD 
BRANCH  11  14
HETATM   14  C   UNK A   1     -11.016  12.388  66.320  1.00  0.00    -0.286 C  
BRANCH  14  15
HETATM   15  C   UNK A   1     -11.665  12.367  67.719  1.00  0.00    -0.350 C  
ATOM     16  H   GLY A   2     -11.055  14.322  68.017  1.00  0.00     0.000 HD 
ATOM     17  N   GLY A   2     -11.571  13.544  68.428  1.00  0.00    -0.319 N  
HETATM   18  O   UNK A   1     -12.208  11.374  68.179  1.00  0.00    -0.602 OA 
BRANCH  17  19
ATOM     19  CA  GLY A   2     -12.174  13.724  69.737  1.00  0.00    -0.310 C  
ATOM     20  C   GLY A   2     -12.270  15.170  70.197  1.00  0.00    -0.352 C  
ATOM     21  O   GLY A   2     -11.335  16.012  69.664  1.00  0.00    -0.308 OA 
ATOM     22  OXT GLY A   2     -13.072  15.565  71.031  1.00  0.00    -0.477 OA 
ENDBRANCH  17  19
ENDBRANCH  14  15
BRANCH  14  23
HETATM   23  C   UNK A   1      -9.769  11.488  66.265  1.00  0.00    -0.215 C  
BRANCH  23  24
HETATM   24  S   UNK A   1     -10.003   9.845  65.516  1.00  0.00    -0.226 SA 
BRANCH  24  25
HETATM   25  S   UNK A   1      -8.172   8.974  65.822  1.00  0.00    -0.126 SA 
BRANCH  25  26
HETATM   26  C   UNK A   1      -8.546   7.732  67.110  1.00  0.00    -0.128 C  
BRANCH  26  27
HETATM   27  C   UNK A   1      -9.776   6.848  66.836  1.00  0.00    -0.171 C  
BRANCH  27  28
HETATM   28  C   UNK A   1      -9.339   5.437  66.342  1.00  0.00    -0.150 C  
ATOM     29  H   GLY A   2     -11.260   5.012  65.638  1.00  0.00     0.000 HD 
ATOM     30  N   GLY A   2     -10.298   4.679  65.700  1.00  0.00    -0.258 N  
HETATM   31  O   UNK A   1      -8.174   5.049  66.396  1.00  0.00    -0.107 OA 
BRANCH  30  32
ATOM     32  CA  GLY A   2      -9.925   3.399  65.110  1.00  0.00     0.027 C  
ATOM     33  OXT GLY A   2     -10.674   1.885  63.346  1.00  0.00    -0.170 OA 
ATOM     34  C   GLY A   2     -10.510   3.034  63.739  1.00  0.00    -0.198 C  
ATOM     35  O   GLY A   2     -10.640   4.074  62.894  1.00  0.00    -0.194 OA 
ENDBRANCH  30  32
ENDBRANCH  27  28
BRANCH  27  36
HETATM   36  N   UNK A   1     -10.843   6.936  67.858  1.00  0.00    -0.406 N  
HETATM   37  H   UNK A   1     -11.702   7.438  67.632  1.00  0.00     0.000 HD 
HETATM   38  O   UNK A   1      -9.784   5.629  69.413  1.00  0.00    -0.141 OA 
HETATM   39  C   UNK A   1     -10.715   6.364  69.102  1.00  0.00    -0.284 C  
BRANCH  39  40
HETATM   40  C   UNK A   1     -11.876   6.575  70.062  1.00  0.00    -0.284 C  
BRANCH  40  41
HETATM   41  C   UNK A   1     -11.536   6.612  71.564  1.00  0.00    -0.357 C  
BRANCH  41  42
HETATM   42  C   UNK A   1     -11.759   7.934  72.312  1.00  0.00    -0.355 C  
HETATM   43  N   UNK A   1     -13.201   8.218  72.539  1.00  0.00    -0.584 NA 
HETATM   44  C   UNK A   1     -11.196   9.085  71.499  1.00  0.00    -0.348 C  
HETATM   45  O   UNK A   1     -10.037   9.443  71.392  1.00  0.00    -0.301 OA 
HETATM   46  O   UNK A   1     -12.201   9.664  70.804  1.00  0.00    -0.284 OA 
HETATM   47  H2  UNK A   1     -13.659   7.443  73.018  1.00  0.00     0.000 HD 
HETATM   48  H1  UNK A   1     -13.350   9.097  73.036  1.00  0.00     0.000 HD 
ENDBRANCH  41  42
ENDBRANCH  40  41
ENDBRANCH  39  40
ENDBRANCH  27  36
ENDBRANCH  26  27
ENDBRANCH  25  26
ENDBRANCH  24  25
ENDBRANCH  23  24
ENDBRANCH  14  23
ENDBRANCH  11  14
ENDBRANCH   9  10
ENDBRANCH   8   9
ENDBRANCH   4   8
TORSDOF 17
ENDMDL
MODEL       72
REMARK 921   NORMALIZED FREE ENERGY PREDICTED BY IDOCK:   -5.24 KCAL/MOL
REMARK 922        TOTAL FREE ENERGY PREDICTED BY IDOCK:  -13.42 KCAL/MOL
REMARK 923 INTER-LIGAND FREE ENERGY PREDICTED BY IDOCK:  -11.45 KCAL/MOL
REMARK 924 INTRA-LIGAND FREE ENERGY PREDICTED BY IDOCK:   -1.97 KCAL/MOL
REMARK 927      BINDING AFFINITY PREDICTED BY RF-SCORE:    0.00 PKD
ROOT
HETATM    1  N   UNK A   1     -12.616  10.428  69.815  1.00  0.00    -0.560 NA 
HETATM    2  H1  UNK A   1     -13.612  10.211  69.846  1.00  0.00     0.000 HD 
HETATM    3  H2  UNK A   1     -12.331  10.680  68.869  1.00  0.00     0.000 HD 
HETATM    4  C   UNK A   1     -11.753   9.343  70.354  1.00  0.00    -0.144 C  
HETATM    5  O   UNK A   1     -11.552   8.453  72.635  1.00  0.00    -0.385 OA 
HETATM    6  C   UNK A   1     -12.230   8.990  71.774  1.00  0.00    -0.364 C  
HETATM    7  O   UNK A   1     -13.525   9.355  71.955  1.00  0.00    -0.382 OA 
ENDROOT
BRANCH   4   8
HETATM    8  C   UNK A   1     -10.259   9.670  70.308  1.00  0.00    -0.333 C  
BRANCH   8   9
HETATM    9  C   UNK A   1      -9.669   9.803  68.902  1.00  0.00    -0.172 C  
BRANCH   9  10
HETATM   10  C   UNK A   1      -8.161   9.843  68.981  1.00  0.00    -0.111 C  
HETATM   11  N   UNK A   1      -7.664  10.671  69.965  1.00  0.00    -0.318 N  
HETATM   12  O   UNK A   1      -7.446   9.220  68.202  1.00  0.00    -0.082 OA 
HETATM   13  H   UNK A   1      -8.300  11.213  70.550  1.00  0.00     0.000 HD 
BRANCH  11  14
HETATM   14  C   UNK A   1      -6.212  10.769  70.167  1.00  0.00    -0.136 C  
BRANCH  14  15
HETATM   15  C   UNK A   1      -5.867  10.202  71.559  1.00  0.00     0.137 C  
ATOM     16  H   GLY A   2      -6.770   8.414  71.041  1.00  0.00     0.000 HD 
ATOM     17  N   GLY A   2      -6.255   8.898  71.775  1.00  0.00    -0.072 N  
HETATM   18  O   UNK A   1      -5.307  10.864  72.419  1.00  0.00    -0.307 OA 
BRANCH  17  19
ATOM     19  CA  GLY A   2      -5.961   8.184  73.005  1.00  0.00    -0.066 C  
ATOM     20  C   GLY A   2      -7.146   7.448  73.609  1.00  0.00    -0.084 C  
ATOM     21  O   GLY A   2      -8.372   7.970  73.303  1.00  0.00    -0.172 OA 
ATOM     22  OXT GLY A   2      -7.039   6.498  74.370  1.00  0.00    -0.091 OA 
ENDBRANCH  17  19
ENDBRANCH  14  15
BRANCH  14  23
HETATM   23  C   UNK A   1      -5.740  12.225  70.019  1.00  0.00    -0.141 C  
BRANCH  23  24
HETATM   24  S   UNK A   1      -5.372  12.778  68.324  1.00  0.00    -0.075 SA 
BRANCH  24  25
HETATM   25  S   UNK A   1      -7.112  13.724  67.797  1.00  0.00    -0.178 SA 
BRANCH  25  26
HETATM   26  C   UNK A   1      -7.037  15.255  68.793  1.00  0.00    -0.117 C  
BRANCH  26  27
HETATM   27  C   UNK A   1      -8.113  16.307  68.467  1.00  0.00    -0.193 C  
BRANCH  27  28
HETATM   28  C   UNK A   1      -7.632  17.730  68.878  1.00  0.00    -0.223 C  
ATOM     29  H   GLY A   2      -5.889  16.967  69.742  1.00  0.00     0.000 HD 
ATOM     30  N   GLY A   2      -6.401  17.815  69.499  1.00  0.00    -0.242 N  
HETATM   31  O   UNK A   1      -8.240  18.751  68.562  1.00  0.00    -0.328 OA 
BRANCH  30  32
ATOM     32  CA  GLY A   2      -5.840  19.125  69.805  1.00  0.00    -0.250 C  
ATOM     33  OXT GLY A   2      -5.649  20.662  71.694  1.00  0.00    -0.578 OA 
ATOM     34  C   GLY A   2      -5.656  19.509  71.280  1.00  0.00    -0.249 C  
ATOM     35  O   GLY A   2      -5.285  18.491  72.079  1.00  0.00    -0.731 OA 
ENDBRANCH  30  32
ENDBRANCH  27  28
BRANCH  27  36
HETATM   36  N   UNK A   1      -8.766  16.139  67.150  1.00  0.00    -0.185 N  
HETATM   37  H   UNK A   1      -8.183  16.033  66.320  1.00  0.00     0.000 HD 
HETATM   38  O   UNK A   1     -10.909  16.100  67.958  1.00  0.00    -0.312 OA 
HETATM   39  C   UNK A   1     -10.134  16.120  67.008  1.00  0.00    -0.270 C  
BRANCH  39  40
HETATM   40  C   UNK A   1     -10.661  15.983  65.588  1.00  0.00    -0.341 C  
BRANCH  40  41
HETATM   41  C   UNK A   1     -10.356  14.660  64.859  1.00  0.00    -0.382 C  
BRANCH  41  42
HETATM   42  C   UNK A   1     -11.545  13.856  64.315  1.00  0.00    -0.355 C  
HETATM   43  N   UNK A   1     -12.520  14.711  63.587  1.00  0.00    -1.064 NA 
HETATM   44  C   UNK A   1     -12.290  13.201  65.463  1.00  0.00    -0.474 C  
HETATM   45  O   UNK A   1     -12.001  12.191  66.078  1.00  0.00    -0.578 OA 
HETATM   46  O   UNK A   1     -13.354  13.969  65.790  1.00  0.00    -0.543 OA 
HETATM   47  H2  UNK A   1     -12.063  15.240  62.844  1.00  0.00     0.000 HD 
HETATM   48  H1  UNK A   1     -13.310  14.177  63.225  1.00  0.00     0.000 HD 
ENDBRANCH  41  42
ENDBRANCH  40  41
ENDBRANCH  39  40
ENDBRANCH  27  36
ENDBRANCH  26  27
ENDBRANCH  25  26
ENDBRANCH  24  25
ENDBRANCH  23  24
ENDBRANCH  14  23
ENDBRANCH  11  14
ENDBRANCH   9  10
ENDBRANCH   8   9
ENDBRANCH   4   8
TORSDOF 17
ENDMDL
MODEL       73
REMARK 921   NORMALIZED FREE ENERGY PREDICTED BY IDOCK:   -5.22 KCAL/MOL
REMARK 922        TOTAL FREE ENERGY PREDICTED BY IDOCK:  -13.39 KCAL/MOL
REMARK 923 INTER-LIGAND FREE ENERGY PREDICTED BY IDOCK:  -12.28 KCAL/MOL
REMARK 924 INTRA-LIGAND FREE ENERGY PREDICTED BY IDOCK:   -1.11 KCAL/MOL
REMARK 927      BINDING AFFINITY PREDICTED BY RF-SCORE:    0.00 PKD
ROOT
HETATM    1  N   UNK A   1     -11.196   9.863  71.171  1.00  0.00    -0.362 NA 
HETATM    2  H1  UNK A   1     -11.504  10.764  70.806  1.00  0.00     0.000 HD 
HETATM    3  H2  UNK A   1     -10.418   9.498  70.621  1.00  0.00     0.000 HD 
HETATM    4  C   UNK A   1     -12.288   8.857  71.270  1.00  0.00    -0.291 C  
HETATM    5  O   UNK A   1     -14.292   8.818  72.690  1.00  0.00    -0.585 OA 
HETATM    6  C   UNK A   1     -13.441   9.457  72.093  1.00  0.00    -0.471 C  
HETATM    7  O   UNK A   1     -13.395  10.814  72.073  1.00  0.00    -0.447 OA 
ENDROOT
BRANCH   4   8
HETATM    8  C   UNK A   1     -11.825   7.505  71.818  1.00  0.00    -0.327 C  
BRANCH   8   9
HETATM    9  C   UNK A   1     -11.759   6.378  70.786  1.00  0.00    -0.378 C  
BRANCH   9  10
HETATM   10  C   UNK A   1     -10.883   6.795  69.628  1.00  0.00    -0.271 C  
HETATM   11  N   UNK A   1     -11.487   6.692  68.392  1.00  0.00    -0.545 N  
HETATM   12  O   UNK A   1      -9.719   7.154  69.780  1.00  0.00    -0.165 OA 
HETATM   13  H   UNK A   1     -12.438   6.333  68.314  1.00  0.00     0.000 HD 
BRANCH  11  14
HETATM   14  C   UNK A   1     -10.752   7.103  67.189  1.00  0.00    -0.352 C  
BRANCH  14  15
HETATM   15  C   UNK A   1      -9.958   5.892  66.658  1.00  0.00    -0.174 C  
ATOM     16  H   GLY A   2      -8.205   6.974  66.846  1.00  0.00     0.000 HD 
ATOM     17  N   GLY A   2      -8.593   6.067  66.590  1.00  0.00    -0.111 N  
HETATM   18  O   UNK A   1     -10.497   4.855  66.302  1.00  0.00    -0.287 OA 
BRANCH  17  19
ATOM     19  CA  GLY A   2      -7.685   5.015  66.169  1.00  0.00    -0.091 C  
ATOM     20  C   GLY A   2      -7.199   5.134  64.734  1.00  0.00    -0.062 C  
ATOM     21  O   GLY A   2      -8.043   5.798  63.888  1.00  0.00    -0.121 OA 
ATOM     22  OXT GLY A   2      -6.167   4.625  64.322  1.00  0.00    -0.025 OA 
ENDBRANCH  17  19
ENDBRANCH  14  15
BRANCH  14  23
HETATM   23  C   UNK A   1      -9.825   8.291  67.497  1.00  0.00    -0.177 C  
BRANCH  23  24
HETATM   24  S   UNK A   1      -9.746   9.593  66.227  1.00  0.00    -0.259 SA 
BRANCH  24  25
HETATM   25  S   UNK A   1     -11.122  10.946  66.918  1.00  0.00    -0.073 SA 
BRANCH  25  26
HETATM   26  C   UNK A   1     -10.093  12.053  67.945  1.00  0.00    -0.195 C  
BRANCH  26  27
HETATM   27  C   UNK A   1     -10.624  13.491  68.100  1.00  0.00    -0.245 C  
BRANCH  27  28
HETATM   28  C   UNK A   1     -11.642  13.577  69.275  1.00  0.00    -0.316 C  
ATOM     29  H   GLY A   2     -11.651  15.665  69.207  1.00  0.00     0.000 HD 
ATOM     30  N   GLY A   2     -12.063  14.839  69.641  1.00  0.00    -0.311 N  
HETATM   31  O   UNK A   1     -12.156  12.579  69.779  1.00  0.00    -0.287 OA 
BRANCH  30  32
ATOM     32  CA  GLY A   2     -13.102  14.984  70.654  1.00  0.00    -0.319 C  
ATOM     33  OXT GLY A   2     -13.484  14.441  73.004  1.00  0.00    -0.615 OA 
ATOM     34  C   GLY A   2     -12.709  14.802  72.127  1.00  0.00    -0.326 C  
ATOM     35  O   GLY A   2     -11.488  15.274  72.441  1.00  0.00    -0.454 OA 
ENDBRANCH  30  32
ENDBRANCH  27  28
BRANCH  27  36
HETATM   36  N   UNK A   1      -9.595  14.547  67.982  1.00  0.00    -0.212 N  
HETATM   37  H   UNK A   1      -9.149  14.899  68.829  1.00  0.00     0.000 HD 
HETATM   38  O   UNK A   1      -9.595  14.617  65.692  1.00  0.00    -0.298 OA 
HETATM   39  C   UNK A   1      -9.219  15.071  66.767  1.00  0.00    -0.257 C  
BRANCH  39  40
HETATM   40  C   UNK A   1      -8.180  16.182  66.806  1.00  0.00    -0.304 C  
BRANCH  40  41
HETATM   41  C   UNK A   1      -8.703  17.626  66.684  1.00  0.00    -0.286 C  
BRANCH  41  42
HETATM   42  C   UNK A   1     -10.221  17.826  66.564  1.00  0.00    -0.358 C  
HETATM   43  N   UNK A   1     -10.725  17.519  65.199  1.00  0.00    -0.595 NA 
HETATM   44  C   UNK A   1     -10.572  19.273  66.859  1.00  0.00    -0.459 C  
HETATM   45  O   UNK A   1     -10.673  19.824  67.940  1.00  0.00    -0.391 OA 
HETATM   46  O   UNK A   1     -10.701  19.940  65.690  1.00  0.00    -0.478 OA 
HETATM   47  H2  UNK A   1     -10.453  16.580  64.909  1.00  0.00     0.000 HD 
HETATM   48  H1  UNK A   1     -11.733  17.652  65.119  1.00  0.00     0.000 HD 
ENDBRANCH  41  42
ENDBRANCH  40  41
ENDBRANCH  39  40
ENDBRANCH  27  36
ENDBRANCH  26  27
ENDBRANCH  25  26
ENDBRANCH  24  25
ENDBRANCH  23  24
ENDBRANCH  14  23
ENDBRANCH  11  14
ENDBRANCH   9  10
ENDBRANCH   8   9
ENDBRANCH   4   8
TORSDOF 17
ENDMDL
MODEL       74
REMARK 921   NORMALIZED FREE ENERGY PREDICTED BY IDOCK:   -5.22 KCAL/MOL
REMARK 922        TOTAL FREE ENERGY PREDICTED BY IDOCK:  -13.38 KCAL/MOL
REMARK 923 INTER-LIGAND FREE ENERGY PREDICTED BY IDOCK:  -11.00 KCAL/MOL
REMARK 924 INTRA-LIGAND FREE ENERGY PREDICTED BY IDOCK:   -2.38 KCAL/MOL
REMARK 927      BINDING AFFINITY PREDICTED BY RF-SCORE:    0.00 PKD
ROOT
HETATM    1  N   UNK A   1      -9.097   5.515  65.177  1.00  0.00    -0.347 NA 
HETATM    2  H1  UNK A   1      -8.848   5.215  64.235  1.00  0.00     0.000 HD 
HETATM    3  H2  UNK A   1      -8.795   6.476  65.341  1.00  0.00     0.000 HD 
HETATM    4  C   UNK A   1      -8.585   4.613  66.243  1.00  0.00    -0.113 C  
HETATM    5  O   UNK A   1      -9.158   2.283  66.767  1.00  0.00    -0.130 OA 
HETATM    6  C   UNK A   1      -9.054   3.179  65.944  1.00  0.00    -0.150 C  
HETATM    7  O   UNK A   1      -9.342   3.028  64.626  1.00  0.00    -0.139 OA 
ENDROOT
BRANCH   4   8
HETATM    8  C   UNK A   1      -8.959   5.064  67.657  1.00  0.00    -0.115 C  
BRANCH   8   9
HETATM    9  C   UNK A   1     -10.364   5.651  67.798  1.00  0.00    -0.260 C  
BRANCH   9  10
HETATM   10  C   UNK A   1     -10.284   7.157  67.887  1.00  0.00    -0.187 C  
HETATM   11  N   UNK A   1      -9.864   7.633  69.112  1.00  0.00    -0.168 N  
HETATM   12  O   UNK A   1     -10.607   7.888  66.956  1.00  0.00    -0.337 OA 
HETATM   13  H   UNK A   1      -9.662   6.985  69.872  1.00  0.00     0.000 HD 
BRANCH  11  14
HETATM   14  C   UNK A   1      -9.710   9.080  69.313  1.00  0.00    -0.168 C  
BRANCH  14  15
HETATM   15  C   UNK A   1      -8.218   9.443  69.171  1.00  0.00    -0.112 C  
ATOM     16  H   GLY A   2      -8.708  11.450  69.290  1.00  0.00     0.000 HD 
ATOM     17  N   GLY A   2      -7.934  10.790  69.214  1.00  0.00    -0.135 N  
HETATM   18  O   UNK A   1      -7.347   8.601  69.013  1.00  0.00    -0.074 OA 
BRANCH  17  19
ATOM     19  CA  GLY A   2      -6.579  11.311  69.154  1.00  0.00    -0.088 C  
ATOM     20  C   GLY A   2      -6.468  12.814  69.355  1.00  0.00    -0.096 C  
ATOM     21  O   GLY A   2      -7.578  13.530  69.003  1.00  0.00    -0.049 OA 
ATOM     22  OXT GLY A   2      -5.452  13.374  69.737  1.00  0.00    -0.088 OA 
ENDBRANCH  17  19
ENDBRANCH  14  15
BRANCH  14  23
HETATM   23  C   UNK A   1     -10.263   9.500  70.686  1.00  0.00    -0.297 C  
BRANCH  23  24
HETATM   24  S   UNK A   1     -11.720   8.580  71.275  1.00  0.00    -0.292 SA 
BRANCH  24  25
HETATM   25  S   UNK A   1     -13.174  10.024  71.248  1.00  0.00    -0.346 SA 
BRANCH  25  26
HETATM   26  C   UNK A   1     -12.198  11.559  71.421  1.00  0.00     0.019 C  
BRANCH  26  27
HETATM   27  C   UNK A   1     -12.470  12.637  70.356  1.00  0.00    -0.143 C  
BRANCH  27  28
HETATM   28  C   UNK A   1     -13.066  13.919  71.011  1.00  0.00    -0.243 C  
ATOM     29  H   GLY A   2     -13.014  13.055  72.913  1.00  0.00     0.000 HD 
ATOM     30  N   GLY A   2     -13.213  13.904  72.384  1.00  0.00    -0.465 N  
HETATM   31  O   UNK A   1     -13.282  14.948  70.374  1.00  0.00    -0.248 OA 
BRANCH  30  32
ATOM     32  CA  GLY A   2     -13.655  15.110  73.072  1.00  0.00    -0.386 C  
ATOM     33  OXT GLY A   2     -12.736  16.880  74.482  1.00  0.00    -0.562 OA 
ATOM     34  C   GLY A   2     -12.589  16.111  73.540  1.00  0.00    -0.569 C  
ATOM     35  O   GLY A   2     -11.542  16.241  72.704  1.00  0.00    -0.416 OA 
ENDBRANCH  30  32
ENDBRANCH  27  28
BRANCH  27  36
HETATM   36  N   UNK A   1     -11.400  12.796  69.347  1.00  0.00    -0.410 N  
HETATM   37  H   UNK A   1     -10.603  13.396  69.563  1.00  0.00     0.000 HD 
HETATM   38  O   UNK A   1     -12.285  11.320  67.836  1.00  0.00    -0.570 OA 
HETATM   39  C   UNK A   1     -11.443  12.162  68.127  1.00  0.00    -0.317 C  
BRANCH  39  40
HETATM   40  C   UNK A   1     -10.293  12.455  67.175  1.00  0.00    -0.232 C  
BRANCH  40  41
HETATM   41  C   UNK A   1     -10.550  12.198  65.678  1.00  0.00    -0.297 C  
BRANCH  41  42
HETATM   42  C   UNK A   1     -10.866  13.411  64.792  1.00  0.00    -0.375 C  
HETATM   43  N   UNK A   1     -10.869  14.686  65.558  1.00  0.00    -0.325 NA 
HETATM   44  C   UNK A   1     -12.245  13.252  64.179  1.00  0.00    -0.401 C  
HETATM   45  O   UNK A   1     -12.577  12.577  63.221  1.00  0.00    -0.667 OA 
HETATM   46  O   UNK A   1     -13.138  13.948  64.919  1.00  0.00    -0.704 OA 
HETATM   47  H2  UNK A   1      -9.990  14.816  66.059  1.00  0.00     0.000 HD 
HETATM   48  H1  UNK A   1     -11.079  15.492  64.969  1.00  0.00     0.000 HD 
ENDBRANCH  41  42
ENDBRANCH  40  41
ENDBRANCH  39  40
ENDBRANCH  27  36
ENDBRANCH  26  27
ENDBRANCH  25  26
ENDBRANCH  24  25
ENDBRANCH  23  24
ENDBRANCH  14  23
ENDBRANCH  11  14
ENDBRANCH   9  10
ENDBRANCH   8   9
ENDBRANCH   4   8
TORSDOF 17
ENDMDL
MODEL       75
REMARK 921   NORMALIZED FREE ENERGY PREDICTED BY IDOCK:   -5.22 KCAL/MOL
REMARK 922        TOTAL FREE ENERGY PREDICTED BY IDOCK:  -13.38 KCAL/MOL
REMARK 923 INTER-LIGAND FREE ENERGY PREDICTED BY IDOCK:  -11.00 KCAL/MOL
REMARK 924 INTRA-LIGAND FREE ENERGY PREDICTED BY IDOCK:   -2.38 KCAL/MOL
REMARK 927      BINDING AFFINITY PREDICTED BY RF-SCORE:    0.00 PKD
ROOT
HETATM    1  N   UNK A   1     -11.081  16.921  64.450  1.00  0.00    -1.200 NA 
HETATM    2  H1  UNK A   1     -11.204  17.863  64.821  1.00  0.00     0.000 HD 
HETATM    3  H2  UNK A   1     -11.960  16.560  64.080  1.00  0.00     0.000 HD 
HETATM    4  C   UNK A   1     -10.492  15.968  65.430  1.00  0.00    -0.392 C  
HETATM    5  O   UNK A   1      -8.264  15.922  66.463  1.00  0.00    -0.270 OA 
HETATM    6  C   UNK A   1      -9.178  16.562  65.969  1.00  0.00    -0.260 C  
HETATM    7  O   UNK A   1      -9.161  17.911  65.825  1.00  0.00    -0.498 OA 
ENDROOT
BRANCH   4   8
HETATM    8  C   UNK A   1     -10.306  14.555  64.873  1.00  0.00    -0.401 C  
BRANCH   8   9
HETATM    9  C   UNK A   1     -11.570  13.918  64.293  1.00  0.00    -0.377 C  
BRANCH   9  10
HETATM   10  C   UNK A   1     -11.913  12.665  65.065  1.00  0.00    -0.419 C  
HETATM   11  N   UNK A   1     -11.148  12.466  66.195  1.00  0.00    -0.289 N  
HETATM   12  O   UNK A   1     -12.774  11.876  64.688  1.00  0.00    -0.329 OA 
HETATM   13  H   UNK A   1     -10.405  13.122  66.434  1.00  0.00     0.000 HD 
BRANCH  11  14
HETATM   14  C   UNK A   1     -11.409  11.301  67.052  1.00  0.00    -0.187 C  
BRANCH  14  15
HETATM   15  C   UNK A   1     -11.885  11.799  68.432  1.00  0.00    -0.282 C  
ATOM     16  H   GLY A   2     -10.972  13.621  68.074  1.00  0.00     0.000 HD 
ATOM     17  N   GLY A   2     -11.541  13.097  68.739  1.00  0.00    -0.286 N  
HETATM   18  O   UNK A   1     -12.505  11.091  69.209  1.00  0.00    -0.400 OA 
BRANCH  17  19
ATOM     19  CA  GLY A   2     -11.953  13.750  69.969  1.00  0.00    -0.338 C  
ATOM     20  C   GLY A   2     -12.209  15.243  69.839  1.00  0.00    -0.323 C  
ATOM     21  O   GLY A   2     -11.516  15.865  68.839  1.00  0.00    -0.348 OA 
ATOM     22  OXT GLY A   2     -12.923  15.878  70.600  1.00  0.00    -0.467 OA 
ENDBRANCH  17  19
ENDBRANCH  14  15
BRANCH  14  23
HETATM   23  C   UNK A   1     -10.152  10.423  67.173  1.00  0.00    -0.208 C  
BRANCH  23  24
HETATM   24  S   UNK A   1     -10.439   8.628  67.283  1.00  0.00    -0.250 SA 
BRANCH  24  25
HETATM   25  S   UNK A   1      -8.565   7.923  67.721  1.00  0.00    -0.128 SA 
BRANCH  25  26
HETATM   26  C   UNK A   1      -7.749   9.403  68.419  1.00  0.00    -0.086 C  
BRANCH  26  27
HETATM   27  C   UNK A   1      -7.078   9.200  69.791  1.00  0.00    -0.061 C  
BRANCH  27  28
HETATM   28  C   UNK A   1      -6.296  10.479  70.213  1.00  0.00    -0.137 C  
ATOM     29  H   GLY A   2      -6.116  11.109  68.230  1.00  0.00     0.000 HD 
ATOM     30  N   GLY A   2      -5.939  11.351  69.204  1.00  0.00    -0.047 N  
HETATM   31  O   UNK A   1      -6.106  10.779  71.391  1.00  0.00    -0.326 OA 
BRANCH  30  32
ATOM     32  CA  GLY A   2      -5.308  12.621  69.542  1.00  0.00    -0.079 C  
ATOM     33  OXT GLY A   2      -5.223  14.922  68.725  1.00  0.00    -0.084 OA 
ATOM     34  C   GLY A   2      -5.876  13.903  68.916  1.00  0.00    -0.083 C  
ATOM     35  O   GLY A   2      -7.216  13.910  68.780  1.00  0.00    -0.100 OA 
ENDBRANCH  30  32
ENDBRANCH  27  28
BRANCH  27  36
HETATM   36  N   UNK A   1      -7.924   8.527  70.801  1.00  0.00    -0.096 N  
HETATM   37  H   UNK A   1      -8.787   8.979  71.103  1.00  0.00     0.000 HD 
HETATM   38  O   UNK A   1      -6.644   6.633  70.950  1.00  0.00    -0.050 OA 
HETATM   39  C   UNK A   1      -7.584   7.312  71.348  1.00  0.00    -0.083 C  
BRANCH  39  40
HETATM   40  C   UNK A   1      -8.528   6.763  72.407  1.00  0.00    -0.121 C  
BRANCH  40  41
HETATM   41  C   UNK A   1      -9.531   7.756  73.024  1.00  0.00    -0.311 C  
BRANCH  41  42
HETATM   42  C   UNK A   1     -11.027   7.477  72.819  1.00  0.00    -0.359 C  
HETATM   43  N   UNK A   1     -11.380   6.058  73.094  1.00  0.00    -0.477 NA 
HETATM   44  C   UNK A   1     -11.410   7.766  71.379  1.00  0.00    -0.251 C  
HETATM   45  O   UNK A   1     -11.628   8.842  70.853  1.00  0.00    -0.280 OA 
HETATM   46  O   UNK A   1     -11.413   6.605  70.685  1.00  0.00    -0.317 OA 
HETATM   47  H2  UNK A   1     -11.078   5.777  74.026  1.00  0.00     0.000 HD 
HETATM   48  H1  UNK A   1     -12.374   5.873  72.957  1.00  0.00     0.000 HD 
ENDBRANCH  41  42
ENDBRANCH  40  41
ENDBRANCH  39  40
ENDBRANCH  27  36
ENDBRANCH  26  27
ENDBRANCH  25  26
ENDBRANCH  24  25
ENDBRANCH  23  24
ENDBRANCH  14  23
ENDBRANCH  11  14
ENDBRANCH   9  10
ENDBRANCH   8   9
ENDBRANCH   4   8
TORSDOF 17
ENDMDL
MODEL       76
REMARK 921   NORMALIZED FREE ENERGY PREDICTED BY IDOCK:   -5.21 KCAL/MOL
REMARK 922        TOTAL FREE ENERGY PREDICTED BY IDOCK:  -13.36 KCAL/MOL
REMARK 923 INTER-LIGAND FREE ENERGY PREDICTED BY IDOCK:  -12.28 KCAL/MOL
REMARK 924 INTRA-LIGAND FREE ENERGY PREDICTED BY IDOCK:   -1.08 KCAL/MOL
REMARK 927      BINDING AFFINITY PREDICTED BY RF-SCORE:    0.00 PKD
ROOT
HETATM    1  N   UNK A   1     -11.395   4.104  65.114  1.00  0.00    -0.853 NA 
HETATM    2  H1  UNK A   1     -11.430   3.597  64.229  1.00  0.00     0.000 HD 
HETATM    3  H2  UNK A   1     -12.068   4.871  65.117  1.00  0.00     0.000 HD 
HETATM    4  C   UNK A   1     -10.035   4.594  65.465  1.00  0.00    -0.183 C  
HETATM    5  O   UNK A   1      -7.990   3.353  66.022  1.00  0.00    -0.090 OA 
HETATM    6  C   UNK A   1      -9.057   3.407  65.432  1.00  0.00    -0.147 C  
HETATM    7  O   UNK A   1      -9.535   2.406  64.649  1.00  0.00    -0.142 OA 
ENDROOT
BRANCH   4   8
HETATM    8  C   UNK A   1      -9.983   5.354  66.792  1.00  0.00    -0.217 C  
BRANCH   8   9
HETATM    9  C   UNK A   1     -11.118   6.356  67.009  1.00  0.00    -0.405 C  
BRANCH   9  10
HETATM   10  C   UNK A   1     -10.583   7.597  67.685  1.00  0.00    -0.224 C  
HETATM   11  N   UNK A   1      -9.795   7.349  68.789  1.00  0.00    -0.160 N  
HETATM   12  O   UNK A   1     -10.867   8.728  67.302  1.00  0.00    -0.214 OA 
HETATM   13  H   UNK A   1      -9.637   6.391  69.101  1.00  0.00     0.000 HD 
BRANCH  11  14
HETATM   14  C   UNK A   1      -9.186   8.472  69.513  1.00  0.00    -0.150 C  
BRANCH  14  15
HETATM   15  C   UNK A   1      -9.977   8.708  70.816  1.00  0.00    -0.197 C  
ATOM     16  H   GLY A   2     -11.566   7.641  70.030  1.00  0.00     0.000 HD 
ATOM     17  N   GLY A   2     -11.229   8.135  70.856  1.00  0.00    -0.263 N  
HETATM   18  O   UNK A   1      -9.538   9.372  71.742  1.00  0.00    -0.239 OA 
BRANCH  17  19
ATOM     19  CA  GLY A   2     -12.089   8.205  72.023  1.00  0.00    -0.340 C  
ATOM     20  C   GLY A   2     -13.391   8.959  71.807  1.00  0.00    -0.386 C  
ATOM     21  O   GLY A   2     -13.355   9.910  70.827  1.00  0.00    -0.313 OA 
ATOM     22  OXT GLY A   2     -14.392   8.794  72.489  1.00  0.00    -0.562 OA 
ENDBRANCH  17  19
ENDBRANCH  14  15
BRANCH  14  23
HETATM   23  C   UNK A   1      -9.161   9.735  68.634  1.00  0.00    -0.137 C  
BRANCH  23  24
HETATM   24  S   UNK A   1      -7.519  10.457  68.320  1.00  0.00    -0.092 SA 
BRANCH  24  25
HETATM   25  S   UNK A   1      -7.995  12.164  67.289  1.00  0.00    -0.174 SA 
BRANCH  25  26
HETATM   26  C   UNK A   1      -8.747  13.204  68.590  1.00  0.00     0.045 C  
BRANCH  26  27
HETATM   27  C   UNK A   1     -10.276  13.369  68.501  1.00  0.00    -0.223 C  
BRANCH  27  28
HETATM   28  C   UNK A   1     -10.759  14.524  69.428  1.00  0.00    -0.195 C  
ATOM     29  H   GLY A   2     -12.734  13.847  69.358  1.00  0.00     0.000 HD 
ATOM     30  N   GLY A   2     -12.096  14.528  69.771  1.00  0.00    -0.320 N  
HETATM   31  O   UNK A   1      -9.983  15.327  69.942  1.00  0.00    -0.244 OA 
BRANCH  30  32
ATOM     32  CA  GLY A   2     -12.590  15.511  70.727  1.00  0.00    -0.452 C  
ATOM     33  OXT GLY A   2     -14.065  15.626  72.670  1.00  0.00    -0.564 OA 
ATOM     34  C   GLY A   2     -13.230  15.002  72.026  1.00  0.00    -0.364 C  
ATOM     35  O   GLY A   2     -12.652  13.899  72.537  1.00  0.00    -0.191 OA 
ENDBRANCH  30  32
ENDBRANCH  27  28
BRANCH  27  36
HETATM   36  N   UNK A   1     -10.829  13.288  67.131  1.00  0.00    -0.256 N  
HETATM   37  H   UNK A   1     -10.456  13.908  66.411  1.00  0.00     0.000 HD 
HETATM   38  O   UNK A   1     -12.240  11.533  67.553  1.00  0.00    -0.463 OA 
HETATM   39  C   UNK A   1     -11.829  12.406  66.795  1.00  0.00    -0.315 C  
BRANCH  39  40
HETATM   40  C   UNK A   1     -12.327  12.467  65.359  1.00  0.00    -0.426 C  
BRANCH  40  41
HETATM   41  C   UNK A   1     -12.442  13.866  64.723  1.00  0.00    -0.386 C  
BRANCH  41  42
HETATM   42  C   UNK A   1     -11.180  14.464  64.085  1.00  0.00     0.070 C  
HETATM   43  N   UNK A   1      -9.963  13.659  64.375  1.00  0.00    -0.738 NA 
HETATM   44  C   UNK A   1     -10.939  15.858  64.634  1.00  0.00    -0.305 C  
HETATM   45  O   UNK A   1     -11.485  16.901  64.323  1.00  0.00    -1.142 OA 
HETATM   46  O   UNK A   1     -10.028  15.786  65.630  1.00  0.00    -0.325 OA 
HETATM   47  H2  UNK A   1     -10.091  12.686  64.098  1.00  0.00     0.000 HD 
HETATM   48  H1  UNK A   1      -9.125  14.056  63.951  1.00  0.00     0.000 HD 
ENDBRANCH  41  42
ENDBRANCH  40  41
ENDBRANCH  39  40
ENDBRANCH  27  36
ENDBRANCH  26  27
ENDBRANCH  25  26
ENDBRANCH  24  25
ENDBRANCH  23  24
ENDBRANCH  14  23
ENDBRANCH  11  14
ENDBRANCH   9  10
ENDBRANCH   8   9
ENDBRANCH   4   8
TORSDOF 17
ENDMDL
MODEL       77
REMARK 921   NORMALIZED FREE ENERGY PREDICTED BY IDOCK:   -5.21 KCAL/MOL
REMARK 922        TOTAL FREE ENERGY PREDICTED BY IDOCK:  -13.35 KCAL/MOL
REMARK 923 INTER-LIGAND FREE ENERGY PREDICTED BY IDOCK:  -10.43 KCAL/MOL
REMARK 924 INTRA-LIGAND FREE ENERGY PREDICTED BY IDOCK:   -2.92 KCAL/MOL
REMARK 927      BINDING AFFINITY PREDICTED BY RF-SCORE:    0.00 PKD
ROOT
HETATM    1  N   UNK A   1     -12.480  14.080  63.309  1.00  0.00    -1.112 NA 
HETATM    2  H1  UNK A   1     -13.146  14.833  63.138  1.00  0.00     0.000 HD 
HETATM    3  H2  UNK A   1     -12.938  13.171  63.237  1.00  0.00     0.000 HD 
HETATM    4  C   UNK A   1     -11.759  14.205  64.604  1.00  0.00    -0.417 C  
HETATM    5  O   UNK A   1     -10.144  15.890  65.371  1.00  0.00    -0.390 OA 
HETATM    6  C   UNK A   1     -11.100  15.593  64.671  1.00  0.00    -0.373 C  
HETATM    7  O   UNK A   1     -11.724  16.467  63.841  1.00  0.00    -1.148 OA 
ENDROOT
BRANCH   4   8
HETATM    8  C   UNK A   1     -10.760  13.074  64.859  1.00  0.00    -0.349 C  
BRANCH   8   9
HETATM    9  C   UNK A   1     -11.365  11.797  65.446  1.00  0.00    -0.284 C  
BRANCH   9  10
HETATM   10  C   UNK A   1     -11.227  11.810  66.951  1.00  0.00    -0.327 C  
HETATM   11  N   UNK A   1     -10.213  11.011  67.436  1.00  0.00    -0.189 N  
HETATM   12  O   UNK A   1     -11.986  12.449  67.674  1.00  0.00    -0.454 OA 
HETATM   13  H   UNK A   1      -9.648  10.455  66.796  1.00  0.00     0.000 HD 
BRANCH  11  14
HETATM   14  C   UNK A   1      -9.955  10.965  68.882  1.00  0.00    -0.196 C  
BRANCH  14  15
HETATM   15  C   UNK A   1      -8.439  10.792  69.107  1.00  0.00    -0.097 C  
ATOM     16  H   GLY A   2      -8.830   9.355  70.544  1.00  0.00     0.000 HD 
ATOM     17  N   GLY A   2      -8.089   9.842  70.041  1.00  0.00    -0.178 N  
HETATM   18  O   UNK A   1      -7.605  11.461  68.518  1.00  0.00    -0.113 OA 
BRANCH  17  19
ATOM     19  CA  GLY A   2      -6.708   9.504  70.340  1.00  0.00    -0.093 C  
ATOM     20  C   GLY A   2      -6.497   8.834  71.688  1.00  0.00    -0.075 C  
ATOM     21  O   GLY A   2      -7.433   9.133  72.638  1.00  0.00    -0.206 OA 
ATOM     22  OXT GLY A   2      -5.534   8.129  71.952  1.00  0.00    -0.035 OA 
ENDBRANCH  17  19
ENDBRANCH  14  15
BRANCH  14  23
HETATM   23  C   UNK A   1     -10.755   9.829  69.542  1.00  0.00    -0.233 C  
BRANCH  23  24
HETATM   24  S   UNK A   1     -12.142  10.343  70.604  1.00  0.00    -0.376 SA 
BRANCH  24  25
HETATM   25  S   UNK A   1     -12.393   8.698  71.801  1.00  0.00    -0.370 SA 
BRANCH  25  26
HETATM   26  C   UNK A   1     -10.704   8.430  72.448  1.00  0.00    -0.335 C  
BRANCH  26  27
HETATM   27  C   UNK A   1     -10.094   7.048  72.148  1.00  0.00    -0.181 C  
BRANCH  27  28
HETATM   28  C   UNK A   1     -10.389   6.054  73.310  1.00  0.00    -0.223 C  
ATOM     29  H   GLY A   2     -11.045   4.584  71.978  1.00  0.00     0.000 HD 
ATOM     30  N   GLY A   2     -10.841   4.799  72.954  1.00  0.00    -0.229 N  
HETATM   31  O   UNK A   1     -10.119   6.308  74.482  1.00  0.00    -0.313 OA 
BRANCH  30  32
ATOM     32  CA  GLY A   2     -11.024   3.783  73.983  1.00  0.00    -0.146 C  
ATOM     33  OXT GLY A   2     -11.777   1.468  74.186  1.00  0.00    -0.100 OA 
ATOM     34  C   GLY A   2     -11.181   2.321  73.540  1.00  0.00    -0.209 C  
ATOM     35  O   GLY A   2     -10.428   1.977  72.479  1.00  0.00    -0.154 OA 
ENDBRANCH  30  32
ENDBRANCH  27  28
BRANCH  27  36
HETATM   36  N   UNK A   1     -10.277   6.579  70.756  1.00  0.00    -0.185 N  
HETATM   37  H   UNK A   1     -11.212   6.596  70.349  1.00  0.00     0.000 HD 
HETATM   38  O   UNK A   1      -8.056   6.192  70.349  1.00  0.00    -0.108 OA 
HETATM   39  C   UNK A   1      -9.228   6.120  69.995  1.00  0.00    -0.151 C  
BRANCH  39  40
HETATM   40  C   UNK A   1      -9.575   5.631  68.597  1.00  0.00    -0.163 C  
BRANCH  40  41
HETATM   41  C   UNK A   1      -8.710   6.166  67.439  1.00  0.00    -0.104 C  
BRANCH  41  42
HETATM   42  C   UNK A   1      -8.739   7.677  67.168  1.00  0.00    -0.125 C  
HETATM   43  N   UNK A   1      -9.874   8.072  66.292  1.00  0.00    -0.450 NA 
HETATM   44  C   UNK A   1      -7.461   8.096  66.466  1.00  0.00    -0.088 C  
HETATM   45  O   UNK A   1      -6.359   8.292  66.947  1.00  0.00    -0.054 OA 
HETATM   46  O   UNK A   1      -7.693   8.164  65.135  1.00  0.00    -0.094 OA 
HETATM   47  H2  UNK A   1     -10.763   7.750  66.673  1.00  0.00     0.000 HD 
HETATM   48  H1  UNK A   1      -9.893   9.076  66.112  1.00  0.00     0.000 HD 
ENDBRANCH  41  42
ENDBRANCH  40  41
ENDBRANCH  39  40
ENDBRANCH  27  36
ENDBRANCH  26  27
ENDBRANCH  25  26
ENDBRANCH  24  25
ENDBRANCH  23  24
ENDBRANCH  14  23
ENDBRANCH  11  14
ENDBRANCH   9  10
ENDBRANCH   8   9
ENDBRANCH   4   8
TORSDOF 17
ENDMDL
MODEL       78
REMARK 921   NORMALIZED FREE ENERGY PREDICTED BY IDOCK:   -5.20 KCAL/MOL
REMARK 922        TOTAL FREE ENERGY PREDICTED BY IDOCK:  -13.35 KCAL/MOL
REMARK 923 INTER-LIGAND FREE ENERGY PREDICTED BY IDOCK:  -10.11 KCAL/MOL
REMARK 924 INTRA-LIGAND FREE ENERGY PREDICTED BY IDOCK:   -3.23 KCAL/MOL
REMARK 927      BINDING AFFINITY PREDICTED BY RF-SCORE:    0.00 PKD
ROOT
HETATM    1  N   UNK A   1     -13.246  11.407  71.967  1.00  0.00    -0.527 NA 
HETATM    2  H1  UNK A   1     -14.239  11.403  72.202  1.00  0.00     0.000 HD 
HETATM    3  H2  UNK A   1     -12.974  12.305  71.565  1.00  0.00     0.000 HD 
HETATM    4  C   UNK A   1     -12.842  10.287  71.075  1.00  0.00    -0.397 C  
HETATM    5  O   UNK A   1     -12.800   7.865  71.481  1.00  0.00    -0.320 OA 
HETATM    6  C   UNK A   1     -13.285   8.960  71.716  1.00  0.00    -0.378 C  
HETATM    7  O   UNK A   1     -14.304   9.161  72.590  1.00  0.00    -0.561 OA 
ENDROOT
BRANCH   4   8
HETATM    8  C   UNK A   1     -11.353  10.293  70.722  1.00  0.00    -0.421 C  
BRANCH   8   9
HETATM    9  C   UNK A   1     -11.039  10.086  69.240  1.00  0.00    -0.248 C  
BRANCH   9  10
HETATM   10  C   UNK A   1     -10.296   8.784  69.051  1.00  0.00    -0.213 C  
HETATM   11  N   UNK A   1      -8.925   8.891  69.149  1.00  0.00    -0.139 N  
HETATM   12  O   UNK A   1     -10.871   7.731  68.790  1.00  0.00    -0.114 OA 
HETATM   13  H   UNK A   1      -8.492   9.800  69.310  1.00  0.00     0.000 HD 
BRANCH  11  14
HETATM   14  C   UNK A   1      -8.092   7.688  69.020  1.00  0.00    -0.126 C  
BRANCH  14  15
HETATM   15  C   UNK A   1      -7.702   7.203  70.431  1.00  0.00    -0.095 C  
ATOM     16  H   GLY A   2      -5.806   7.988  70.163  1.00  0.00     0.000 HD 
ATOM     17  N   GLY A   2      -6.418   7.510  70.825  1.00  0.00    -0.039 N  
HETATM   18  O   UNK A   1      -8.466   6.573  71.146  1.00  0.00    -0.125 OA 
BRANCH  17  19
ATOM     19  CA  GLY A   2      -5.899   7.183  72.141  1.00  0.00    -0.037 C  
ATOM     20  C   GLY A   2      -6.056   8.286  73.176  1.00  0.00    -0.082 C  
ATOM     21  O   GLY A   2      -6.109   9.554  72.669  1.00  0.00    -0.298 OA 
ATOM     22  OXT GLY A   2      -6.068   8.088  74.382  1.00  0.00    -0.088 OA 
ENDBRANCH  17  19
ENDBRANCH  14  15
BRANCH  14  23
HETATM   23  C   UNK A   1      -6.848   7.977  68.161  1.00  0.00    -0.069 C  
BRANCH  23  24
HETATM   24  S   UNK A   1      -6.766   7.115  66.560  1.00  0.00    -0.058 SA 
BRANCH  24  25
HETATM   25  S   UNK A   1      -8.711   7.218  65.921  1.00  0.00    -0.095 SA 
BRANCH  25  26
HETATM   26  C   UNK A   1      -8.730   8.791  64.991  1.00  0.00    -0.148 C  
BRANCH  26  27
HETATM   27  C   UNK A   1      -9.135  10.034  65.805  1.00  0.00    -0.163 C  
BRANCH  27  28
HETATM   28  C   UNK A   1      -7.878  10.860  66.208  1.00  0.00    -0.158 C  
ATOM     29  H   GLY A   2      -8.960  11.943  67.629  1.00  0.00     0.000 HD 
ATOM     30  N   GLY A   2      -8.037  11.774  67.230  1.00  0.00    -0.156 N  
HETATM   31  O   UNK A   1      -6.762  10.637  65.741  1.00  0.00    -0.127 OA 
BRANCH  30  32
ATOM     32  CA  GLY A   2      -6.875  12.497  67.735  1.00  0.00    -0.120 C  
ATOM     33  OXT GLY A   2      -5.891  13.160  69.869  1.00  0.00    -0.113 OA 
ATOM     34  C   GLY A   2      -6.499  12.323  69.213  1.00  0.00    -0.109 C  
ATOM     35  O   GLY A   2      -6.696  11.082  69.696  1.00  0.00    -0.112 OA 
ENDBRANCH  30  32
ENDBRANCH  27  28
BRANCH  27  36
HETATM   36  N   UNK A   1     -10.316  10.758  65.285  1.00  0.00    -0.277 N  
HETATM   37  H   UNK A   1     -11.150  10.826  65.868  1.00  0.00     0.000 HD 
HETATM   38  O   UNK A   1      -9.332  11.430  63.328  1.00  0.00    -0.280 OA 
HETATM   39  C   UNK A   1     -10.327  11.341  64.039  1.00  0.00    -0.371 C  
BRANCH  39  40
HETATM   40  C   UNK A   1     -11.626  12.014  63.623  1.00  0.00    -0.578 C  
BRANCH  40  41
HETATM   41  C   UNK A   1     -12.528  12.542  64.755  1.00  0.00    -0.532 C  
BRANCH  41  42
HETATM   42  C   UNK A   1     -12.512  14.052  65.032  1.00  0.00    -0.425 C  
HETATM   43  N   UNK A   1     -12.269  14.850  63.801  1.00  0.00    -1.026 NA 
HETATM   44  C   UNK A   1     -11.399  14.382  66.009  1.00  0.00    -0.335 C  
HETATM   45  O   UNK A   1     -11.387  14.249  67.220  1.00  0.00    -0.305 OA 
HETATM   46  O   UNK A   1     -10.319  14.810  65.317  1.00  0.00    -0.350 OA 
HETATM   47  H2  UNK A   1     -12.943  14.617  63.072  1.00  0.00     0.000 HD 
HETATM   48  H1  UNK A   1     -12.259  15.854  63.985  1.00  0.00     0.000 HD 
ENDBRANCH  41  42
ENDBRANCH  40  41
ENDBRANCH  39  40
ENDBRANCH  27  36
ENDBRANCH  26  27
ENDBRANCH  25  26
ENDBRANCH  24  25
ENDBRANCH  23  24
ENDBRANCH  14  23
ENDBRANCH  11  14
ENDBRANCH   9  10
ENDBRANCH   8   9
ENDBRANCH   4   8
TORSDOF 17
ENDMDL
MODEL       79
REMARK 921   NORMALIZED FREE ENERGY PREDICTED BY IDOCK:   -5.20 KCAL/MOL
REMARK 922        TOTAL FREE ENERGY PREDICTED BY IDOCK:  -13.33 KCAL/MOL
REMARK 923 INTER-LIGAND FREE ENERGY PREDICTED BY IDOCK:  -11.96 KCAL/MOL
REMARK 924 INTRA-LIGAND FREE ENERGY PREDICTED BY IDOCK:   -1.37 KCAL/MOL
REMARK 927      BINDING AFFINITY PREDICTED BY RF-SCORE:    0.00 PKD
ROOT
HETATM    1  N   UNK A   1     -12.318  12.328  71.103  1.00  0.00    -0.308 NA 
HETATM    2  H1  UNK A   1     -12.377  11.969  72.056  1.00  0.00     0.000 HD 
HETATM    3  H2  UNK A   1     -11.473  11.989  70.641  1.00  0.00     0.000 HD 
HETATM    4  C   UNK A   1     -12.404  13.811  71.021  1.00  0.00    -0.372 C  
HETATM    5  O   UNK A   1     -14.262  15.329  71.545  1.00  0.00    -0.494 OA 
HETATM    6  C   UNK A   1     -13.682  14.273  71.741  1.00  0.00    -0.412 C  
HETATM    7  O   UNK A   1     -14.094  13.344  72.641  1.00  0.00    -0.767 OA 
ENDROOT
BRANCH   4   8
HETATM    8  C   UNK A   1     -12.315  14.350  69.591  1.00  0.00    -0.300 C  
BRANCH   8   9
HETATM    9  C   UNK A   1     -11.840  13.338  68.547  1.00  0.00    -0.384 C  
BRANCH   9  10
HETATM   10  C   UNK A   1     -12.012  13.913  67.161  1.00  0.00    -0.420 C  
HETATM   11  N   UNK A   1     -10.831  14.137  66.486  1.00  0.00    -0.295 N  
HETATM   12  O   UNK A   1     -13.115  14.192  66.698  1.00  0.00     0.283 OA 
HETATM   13  H   UNK A   1      -9.938  13.942  66.937  1.00  0.00     0.000 HD 
BRANCH  11  14
HETATM   14  C   UNK A   1     -10.867  14.661  65.114  1.00  0.00    -0.401 C  
BRANCH  14  15
HETATM   15  C   UNK A   1     -10.825  16.202  65.172  1.00  0.00    -0.361 C  
ATOM     16  H   GLY A   2     -10.376  16.101  67.190  1.00  0.00     0.000 HD 
ATOM     17  N   GLY A   2     -10.514  16.736  66.403  1.00  0.00    -0.300 N  
HETATM   18  O   UNK A   1     -11.070  16.904  64.204  1.00  0.00    -1.032 OA 
BRANCH  17  19
ATOM     19  CA  GLY A   2     -10.374  18.164  66.629  1.00  0.00    -0.376 C  
ATOM     20  C   GLY A   2      -8.964  18.700  66.439  1.00  0.00    -0.279 C  
ATOM     21  O   GLY A   2      -7.964  17.792  66.648  1.00  0.00    -0.224 OA 
ATOM     22  OXT GLY A   2      -8.711  19.868  66.184  1.00  0.00    -0.363 OA 
ENDBRANCH  17  19
ENDBRANCH  14  15
BRANCH  14  23
HETATM   23  C   UNK A   1     -12.118  14.160  64.374  1.00  0.00    -0.463 C  
BRANCH  23  24
HETATM   24  S   UNK A   1     -11.935  12.592  63.467  1.00  0.00    -0.546 SA 
BRANCH  24  25
HETATM   25  S   UNK A   1     -10.223  11.821  64.292  1.00  0.00    -0.326 SA 
BRANCH  25  26
HETATM   26  C   UNK A   1     -10.875  10.848  65.695  1.00  0.00    -0.042 C  
BRANCH  26  27
HETATM   27  C   UNK A   1      -9.903   9.808  66.284  1.00  0.00    -0.250 C  
BRANCH  27  28
HETATM   28  C   UNK A   1      -8.524  10.461  66.596  1.00  0.00    -0.126 C  
ATOM     29  H   GLY A   2      -9.414  12.300  67.029  1.00  0.00     0.000 HD 
ATOM     30  N   GLY A   2      -8.539  11.777  67.014  1.00  0.00    -0.167 N  
HETATM   31  O   UNK A   1      -7.475   9.820  66.599  1.00  0.00    -0.093 OA 
BRANCH  30  32
ATOM     32  CA  GLY A   2      -7.296  12.412  67.433  1.00  0.00    -0.149 C  
ATOM     33  OXT GLY A   2      -6.286  14.634  67.508  1.00  0.00    -0.308 OA 
ATOM     34  C   GLY A   2      -7.286  13.936  67.618  1.00  0.00    -0.174 C  
ATOM     35  O   GLY A   2      -8.425  14.443  68.126  1.00  0.00    -0.145 OA 
ENDBRANCH  30  32
ENDBRANCH  27  28
BRANCH  27  36
HETATM   36  N   UNK A   1     -10.499   8.905  67.293  1.00  0.00    -0.282 N  
HETATM   37  H   UNK A   1     -11.177   9.283  67.954  1.00  0.00     0.000 HD 
HETATM   38  O   UNK A   1      -9.472   7.002  66.536  1.00  0.00    -0.167 OA 
HETATM   39  C   UNK A   1     -10.167   7.573  67.369  1.00  0.00    -0.249 C  
BRANCH  39  40
HETATM   40  C   UNK A   1     -10.828   6.778  68.486  1.00  0.00    -0.280 C  
BRANCH  40  41
HETATM   41  C   UNK A   1     -10.770   7.388  69.899  1.00  0.00    -0.254 C  
BRANCH  41  42
HETATM   42  C   UNK A   1     -11.472   8.735  70.123  1.00  0.00    -0.020 C  
HETATM   43  N   UNK A   1     -10.507   9.853  70.300  1.00  0.00    -0.279 NA 
HETATM   44  C   UNK A   1     -12.319   8.669  71.380  1.00  0.00    -0.304 C  
HETATM   45  O   UNK A   1     -13.420   8.171  71.529  1.00  0.00    -0.328 OA 
HETATM   46  O   UNK A   1     -11.624   9.210  72.407  1.00  0.00    -0.204 OA 
HETATM   47  H2  UNK A   1      -9.855   9.903  69.517  1.00  0.00     0.000 HD 
HETATM   48  H1  UNK A   1     -10.973  10.748  70.448  1.00  0.00     0.000 HD 
ENDBRANCH  41  42
ENDBRANCH  40  41
ENDBRANCH  39  40
ENDBRANCH  27  36
ENDBRANCH  26  27
ENDBRANCH  25  26
ENDBRANCH  24  25
ENDBRANCH  23  24
ENDBRANCH  14  23
ENDBRANCH  11  14
ENDBRANCH   9  10
ENDBRANCH   8   9
ENDBRANCH   4   8
TORSDOF 17
ENDMDL
MODEL       80
REMARK 921   NORMALIZED FREE ENERGY PREDICTED BY IDOCK:   -5.19 KCAL/MOL
REMARK 922        TOTAL FREE ENERGY PREDICTED BY IDOCK:  -13.32 KCAL/MOL
REMARK 923 INTER-LIGAND FREE ENERGY PREDICTED BY IDOCK:  -11.17 KCAL/MOL
REMARK 924 INTRA-LIGAND FREE ENERGY PREDICTED BY IDOCK:   -2.15 KCAL/MOL
REMARK 927      BINDING AFFINITY PREDICTED BY RF-SCORE:    0.00 PKD
ROOT
HETATM    1  N   UNK A   1     -11.469  14.216  70.549  1.00  0.00    -0.506 NA 
HETATM    2  H1  UNK A   1     -11.367  15.192  70.271  1.00  0.00     0.000 HD 
HETATM    3  H2  UNK A   1     -11.204  13.594  69.784  1.00  0.00     0.000 HD 
HETATM    4  C   UNK A   1     -12.827  13.880  71.055  1.00  0.00    -0.324 C  
HETATM    5  O   UNK A   1     -14.008  14.640  73.070  1.00  0.00    -0.471 OA 
HETATM    6  C   UNK A   1     -13.185  14.851  72.193  1.00  0.00    -0.361 C  
HETATM    7  O   UNK A   1     -12.460  15.994  72.101  1.00  0.00    -0.451 OA 
ENDROOT
BRANCH   4   8
HETATM    8  C   UNK A   1     -12.979  12.415  71.471  1.00  0.00    -0.385 C  
BRANCH   8   9
HETATM    9  C   UNK A   1     -12.312  11.404  70.536  1.00  0.00    -0.439 C  
BRANCH   9  10
HETATM   10  C   UNK A   1     -12.564  10.001  71.035  1.00  0.00    -0.367 C  
HETATM   11  N   UNK A   1     -11.643   9.069  70.605  1.00  0.00    -0.358 N  
HETATM   12  O   UNK A   1     -13.535   9.716  71.730  1.00  0.00    -0.391 OA 
HETATM   13  H   UNK A   1     -10.886   9.347  69.980  1.00  0.00     0.000 HD 
BRANCH  11  14
HETATM   14  C   UNK A   1     -11.759   7.675  71.051  1.00  0.00    -0.286 C  
BRANCH  14  15
HETATM   15  C   UNK A   1     -10.867   7.477  72.293  1.00  0.00    -0.258 C  
ATOM     16  H   GLY A   2     -11.584   5.546  72.486  1.00  0.00     0.000 HD 
ATOM     17  N   GLY A   2     -10.935   6.230  72.874  1.00  0.00    -0.253 N  
HETATM   18  O   UNK A   1     -10.163   8.366  72.746  1.00  0.00    -0.292 OA 
BRANCH  17  19
ATOM     19  CA  GLY A   2     -10.122   5.849  74.015  1.00  0.00    -0.249 C  
ATOM     20  C   GLY A   2      -8.833   5.126  73.661  1.00  0.00    -0.115 C  
ATOM     21  O   GLY A   2      -8.856   4.443  72.478  1.00  0.00    -0.111 OA 
ATOM     22  OXT GLY A   2      -7.855   5.085  74.393  1.00  0.00    -0.095 OA 
ENDBRANCH  17  19
ENDBRANCH  14  15
BRANCH  14  23
HETATM   23  C   UNK A   1     -11.369   6.708  69.919  1.00  0.00    -0.364 C  
BRANCH  23  24
HETATM   24  S   UNK A   1      -9.890   7.158  68.959  1.00  0.00    -0.159 SA 
BRANCH  24  25
HETATM   25  S   UNK A   1     -10.698   7.656  67.141  1.00  0.00    -0.192 SA 
BRANCH  25  26
HETATM   26  C   UNK A   1     -10.349   9.447  67.041  1.00  0.00    -0.252 C  
BRANCH  26  27
HETATM   27  C   UNK A   1      -9.363   9.866  65.935  1.00  0.00    -0.192 C  
BRANCH  27  28
HETATM   28  C   UNK A   1     -10.023  10.900  64.974  1.00  0.00    -0.298 C  
ATOM     29  H   GLY A   2     -10.194  12.314  66.502  1.00  0.00     0.000 HD 
ATOM     30  N   GLY A   2     -10.326  12.137  65.506  1.00  0.00    -0.255 N  
HETATM   31  O   UNK A   1     -10.159  10.691  63.770  1.00  0.00    -0.330 OA 
BRANCH  30  32
ATOM     32  CA  GLY A   2     -10.838  13.188  64.635  1.00  0.00    -0.366 C  
ATOM     33  OXT GLY A   2     -12.637  13.543  63.022  1.00  0.00    -0.716 OA 
ATOM     34  C   GLY A   2     -12.257  13.035  64.070  1.00  0.00    -0.417 C  
ATOM     35  O   GLY A   2     -13.137  12.472  64.919  1.00  0.00    -0.833 OA 
ENDBRANCH  30  32
ENDBRANCH  27  28
BRANCH  27  36
HETATM   36  N   UNK A   1      -7.981  10.119  66.398  1.00  0.00    -0.117 N  
HETATM   37  H   UNK A   1      -7.824  10.346  67.380  1.00  0.00     0.000 HD 
HETATM   38  O   UNK A   1      -6.976   9.660  64.391  1.00  0.00    -0.107 OA 
HETATM   39  C   UNK A   1      -6.901  10.058  65.549  1.00  0.00    -0.120 C  
BRANCH  39  40
HETATM   40  C   UNK A   1      -5.547  10.385  66.159  1.00  0.00    -0.074 C  
BRANCH  40  41
HETATM   41  C   UNK A   1      -5.549  10.960  67.588  1.00  0.00    -0.043 C  
BRANCH  41  42
HETATM   42  C   UNK A   1      -5.495   9.966  68.757  1.00  0.00    -0.035 C  
HETATM   43  N   UNK A   1      -5.943   8.604  68.361  1.00  0.00    -0.041 NA 
HETATM   44  C   UNK A   1      -6.411  10.436  69.872  1.00  0.00    -0.095 C  
HETATM   45  O   UNK A   1      -6.208  11.296  70.709  1.00  0.00    -0.352 OA 
HETATM   46  O   UNK A   1      -7.591   9.783  69.774  1.00  0.00    -0.102 OA 
HETATM   47  H2  UNK A   1      -5.414   8.260  67.561  1.00  0.00     0.000 HD 
HETATM   48  H1  UNK A   1      -5.907   7.944  69.138  1.00  0.00     0.000 HD 
ENDBRANCH  41  42
ENDBRANCH  40  41
ENDBRANCH  39  40
ENDBRANCH  27  36
ENDBRANCH  26  27
ENDBRANCH  25  26
ENDBRANCH  24  25
ENDBRANCH  23  24
ENDBRANCH  14  23
ENDBRANCH  11  14
ENDBRANCH   9  10
ENDBRANCH   8   9
ENDBRANCH   4   8
TORSDOF 17
ENDMDL
MODEL       81
REMARK 921   NORMALIZED FREE ENERGY PREDICTED BY IDOCK:   -5.18 KCAL/MOL
REMARK 922        TOTAL FREE ENERGY PREDICTED BY IDOCK:  -13.30 KCAL/MOL
REMARK 923 INTER-LIGAND FREE ENERGY PREDICTED BY IDOCK:  -11.78 KCAL/MOL
REMARK 924 INTRA-LIGAND FREE ENERGY PREDICTED BY IDOCK:   -1.52 KCAL/MOL
REMARK 927      BINDING AFFINITY PREDICTED BY RF-SCORE:    0.00 PKD
ROOT
HETATM    1  N   UNK A   1     -11.524   4.693  65.124  1.00  0.00    -1.107 NA 
HETATM    2  H1  UNK A   1     -11.836   4.921  64.180  1.00  0.00     0.000 HD 
HETATM    3  H2  UNK A   1     -11.699   5.472  65.759  1.00  0.00     0.000 HD 
HETATM    4  C   UNK A   1     -10.101   4.266  65.192  1.00  0.00    -0.207 C  
HETATM    5  O   UNK A   1      -8.990   2.275  64.277  1.00  0.00    -0.098 OA 
HETATM    6  C   UNK A   1      -9.886   3.103  64.209  1.00  0.00    -0.158 C  
HETATM    7  O   UNK A   1     -10.831   3.110  63.235  1.00  0.00    -0.226 OA 
ENDROOT
BRANCH   4   8
HETATM    8  C   UNK A   1      -9.633   3.924  66.609  1.00  0.00    -0.215 C  
BRANCH   8   9
HETATM    9  C   UNK A   1      -8.200   4.347  66.936  1.00  0.00    -0.102 C  
BRANCH   9  10
HETATM   10  C   UNK A   1      -8.217   5.550  67.850  1.00  0.00    -0.100 C  
HETATM   11  N   UNK A   1      -9.285   5.588  68.721  1.00  0.00    -0.120 N  
HETATM   12  O   UNK A   1      -7.369   6.436  67.786  1.00  0.00    -0.084 OA 
HETATM   13  H   UNK A   1      -9.994   4.857  68.696  1.00  0.00     0.000 HD 
BRANCH  11  14
HETATM   14  C   UNK A   1      -9.395   6.690  69.687  1.00  0.00    -0.143 C  
BRANCH  14  15
HETATM   15  C   UNK A   1      -9.365   6.104  71.112  1.00  0.00    -0.164 C  
ATOM     16  H   GLY A   2     -11.162   5.148  70.743  1.00  0.00     0.000 HD 
ATOM     17  N   GLY A   2     -10.423   5.281  71.432  1.00  0.00    -0.220 N  
HETATM   18  O   UNK A   1      -8.480   6.362  71.913  1.00  0.00    -0.123 OA 
BRANCH  17  19
ATOM     19  CA  GLY A   2     -10.529   4.596  72.708  1.00  0.00    -0.201 C  
ATOM     20  C   GLY A   2     -10.054   3.152  72.694  1.00  0.00    -0.157 C  
ATOM     21  O   GLY A   2     -10.136   2.526  71.482  1.00  0.00    -0.120 OA 
ATOM     22  OXT GLY A   2      -9.685   2.550  73.691  1.00  0.00    -0.089 OA 
ENDBRANCH  17  19
ENDBRANCH  14  15
BRANCH  14  23
HETATM   23  C   UNK A   1     -10.677   7.504  69.440  1.00  0.00    -0.193 C  
BRANCH  23  24
HETATM   24  S   UNK A   1     -10.724   9.166  70.182  1.00  0.00    -0.242 SA 
BRANCH  24  25
HETATM   25  S   UNK A   1     -11.064  10.353  68.546  1.00  0.00    -0.252 SA 
BRANCH  25  26
HETATM   26  C   UNK A   1      -9.703  11.568  68.660  1.00  0.00    -0.165 C  
BRANCH  26  27
HETATM   27  C   UNK A   1     -10.096  13.027  68.364  1.00  0.00    -0.225 C  
BRANCH  27  28
HETATM   28  C   UNK A   1     -10.510  13.192  66.871  1.00  0.00    -0.256 C  
ATOM     29  H   GLY A   2     -12.112  14.432  67.380  1.00  0.00     0.000 HD 
ATOM     30  N   GLY A   2     -11.580  14.024  66.611  1.00  0.00    -0.363 N  
HETATM   31  O   UNK A   1      -9.852  12.718  65.947  1.00  0.00    -0.263 OA 
BRANCH  30  32
ATOM     32  CA  GLY A   2     -11.946  14.313  65.230  1.00  0.00    -0.389 C  
ATOM     33  OXT GLY A   2     -12.074  16.221  63.710  1.00  0.00    -0.959 OA 
ATOM     34  C   GLY A   2     -11.493  15.649  64.625  1.00  0.00    -0.303 C  
ATOM     35  O   GLY A   2     -10.274  16.058  65.026  1.00  0.00    -0.513 OA 
ENDBRANCH  30  32
ENDBRANCH  27  28
BRANCH  27  36
HETATM   36  N   UNK A   1     -10.935  13.666  69.401  1.00  0.00    -0.426 N  
HETATM   37  H   UNK A   1     -11.728  13.151  69.781  1.00  0.00     0.000 HD 
HETATM   38  O   UNK A   1      -9.675  15.572  69.576  1.00  0.00    -0.258 OA 
HETATM   39  C   UNK A   1     -10.680  14.934  69.870  1.00  0.00    -0.175 C  
BRANCH  39  40
HETATM   40  C   UNK A   1     -11.654  15.477  70.906  1.00  0.00    -0.410 C  
BRANCH  40  41
HETATM   41  C   UNK A   1     -13.155  15.294  70.610  1.00  0.00    -0.407 C  
BRANCH  41  42
HETATM   42  C   UNK A   1     -14.061  14.857  71.770  1.00  0.00    -0.517 C  
HETATM   43  N   UNK A   1     -14.203  15.916  72.805  1.00  0.00    -0.445 NA 
HETATM   44  C   UNK A   1     -13.470  13.637  72.451  1.00  0.00    -0.584 C  
HETATM   45  O   UNK A   1     -13.513  12.473  72.096  1.00  0.00    -0.532 OA 
HETATM   46  O   UNK A   1     -12.781  14.036  73.545  1.00  0.00    -0.268 OA 
HETATM   47  H2  UNK A   1     -14.527  16.791  72.394  1.00  0.00     0.000 HD 
HETATM   48  H1  UNK A   1     -14.805  15.626  73.575  1.00  0.00     0.000 HD 
ENDBRANCH  41  42
ENDBRANCH  40  41
ENDBRANCH  39  40
ENDBRANCH  27  36
ENDBRANCH  26  27
ENDBRANCH  25  26
ENDBRANCH  24  25
ENDBRANCH  23  24
ENDBRANCH  14  23
ENDBRANCH  11  14
ENDBRANCH   9  10
ENDBRANCH   8   9
ENDBRANCH   4   8
TORSDOF 17
ENDMDL
MODEL       82
REMARK 921   NORMALIZED FREE ENERGY PREDICTED BY IDOCK:   -5.18 KCAL/MOL
REMARK 922        TOTAL FREE ENERGY PREDICTED BY IDOCK:  -13.30 KCAL/MOL
REMARK 923 INTER-LIGAND FREE ENERGY PREDICTED BY IDOCK:  -11.61 KCAL/MOL
REMARK 924 INTRA-LIGAND FREE ENERGY PREDICTED BY IDOCK:   -1.69 KCAL/MOL
REMARK 927      BINDING AFFINITY PREDICTED BY RF-SCORE:    0.00 PKD
ROOT
HETATM    1  N   UNK A   1     -12.538   7.351  70.456  1.00  0.00    -0.514 NA 
HETATM    2  H1  UNK A   1     -12.314   6.382  70.231  1.00  0.00     0.000 HD 
HETATM    3  H2  UNK A   1     -12.781   7.871  69.612  1.00  0.00     0.000 HD 
HETATM    4  C   UNK A   1     -11.464   8.049  71.213  1.00  0.00    -0.269 C  
HETATM    5  O   UNK A   1     -10.601   7.657  73.479  1.00  0.00    -0.343 OA 
HETATM    6  C   UNK A   1     -11.124   7.222  72.465  1.00  0.00    -0.293 C  
HETATM    7  O   UNK A   1     -11.482   5.923  72.300  1.00  0.00    -0.293 OA 
ENDROOT
BRANCH   4   8
HETATM    8  C   UNK A   1     -11.801   9.503  71.551  1.00  0.00    -0.478 C  
BRANCH   8   9
HETATM    9  C   UNK A   1     -11.459  10.517  70.458  1.00  0.00    -0.433 C  
BRANCH   9  10
HETATM   10  C   UNK A   1     -10.584   9.867  69.412  1.00  0.00    -0.229 C  
HETATM   11  N   UNK A   1     -11.256   9.473  68.273  1.00  0.00    -0.505 N  
HETATM   12  O   UNK A   1      -9.385   9.672  69.587  1.00  0.00    -0.181 OA 
HETATM   13  H   UNK A   1     -12.264   9.606  68.201  1.00  0.00     0.000 HD 
BRANCH  11  14
HETATM   14  C   UNK A   1     -10.509   8.860  67.166  1.00  0.00    -0.274 C  
BRANCH  14  15
HETATM   15  C   UNK A   1     -10.280   7.370  67.490  1.00  0.00    -0.224 C  
ATOM     16  H   GLY A   2      -8.240   7.710  67.555  1.00  0.00     0.000 HD 
ATOM     17  N   GLY A   2      -8.966   7.005  67.679  1.00  0.00    -0.118 N  
HETATM   18  O   UNK A   1     -11.194   6.562  67.556  1.00  0.00    -0.343 OA 
BRANCH  17  19
ATOM     19  CA  GLY A   2      -8.569   5.657  68.047  1.00  0.00    -0.101 C  
ATOM     20  C   GLY A   2      -8.489   5.407  69.545  1.00  0.00    -0.100 C  
ATOM     21  O   GLY A   2      -8.234   6.513  70.305  1.00  0.00    -0.121 OA 
ATOM     22  OXT GLY A   2      -8.577   4.299  70.053  1.00  0.00    -0.067 OA 
ENDBRANCH  17  19
ENDBRANCH  14  15
BRANCH  14  23
HETATM   23  C   UNK A   1      -9.178   9.597  66.935  1.00  0.00    -0.143 C  
BRANCH  23  24
HETATM   24  S   UNK A   1      -9.282  11.160  66.007  1.00  0.00    -0.209 SA 
BRANCH  24  25
HETATM   25  S   UNK A   1      -8.479  12.498  67.336  1.00  0.00    -0.190 SA 
BRANCH  25  26
HETATM   26  C   UNK A   1      -9.967  13.146  68.178  1.00  0.00    -0.234 C  
BRANCH  26  27
HETATM   27  C   UNK A   1     -10.266  14.636  67.933  1.00  0.00    -0.226 C  
BRANCH  27  28
HETATM   28  C   UNK A   1     -11.397  15.132  68.882  1.00  0.00    -0.301 C  
ATOM     29  H   GLY A   2     -11.670  13.218  69.671  1.00  0.00     0.000 HD 
ATOM     30  N   GLY A   2     -11.947  14.197  69.736  1.00  0.00    -0.319 N  
HETATM   31  O   UNK A   1     -11.710  16.318  68.974  1.00  0.00    -0.299 OA 
BRANCH  30  32
ATOM     32  CA  GLY A   2     -12.927  14.619  70.729  1.00  0.00    -0.347 C  
ATOM     33  OXT GLY A   2     -13.245  14.575  73.150  1.00  0.00    -0.558 OA 
ATOM     34  C   GLY A   2     -12.484  14.695  72.197  1.00  0.00    -0.316 C  
ATOM     35  O   GLY A   2     -11.219  15.118  72.377  1.00  0.00    -0.357 OA 
ENDBRANCH  30  32
ENDBRANCH  27  28
BRANCH  27  36
HETATM   36  N   UNK A   1      -9.069  15.489  67.759  1.00  0.00    -0.178 N  
HETATM   37  H   UNK A   1      -8.403  15.566  68.526  1.00  0.00     0.000 HD 
HETATM   38  O   UNK A   1      -9.494  16.042  65.576  1.00  0.00    -0.401 OA 
HETATM   39  C   UNK A   1      -8.826  16.181  66.595  1.00  0.00    -0.264 C  
BRANCH  39  40
HETATM   40  C   UNK A   1      -7.578  17.050  66.578  1.00  0.00    -0.326 C  
BRANCH  40  41
HETATM   41  C   UNK A   1      -7.788  18.562  66.365  1.00  0.00    -0.296 C  
BRANCH  41  42
HETATM   42  C   UNK A   1      -7.879  19.451  67.614  1.00  0.00    -0.274 C  
HETATM   43  N   UNK A   1      -7.396  18.757  68.838  1.00  0.00    -0.307 NA 
HETATM   44  C   UNK A   1      -9.324  19.844  67.860  1.00  0.00    -0.344 C  
HETATM   45  O   UNK A   1      -9.981  20.706  67.306  1.00  0.00    -0.448 OA 
HETATM   46  O   UNK A   1      -9.852  19.015  68.788  1.00  0.00    -0.392 OA 
HETATM   47  H2  UNK A   1      -6.450  18.399  68.709  1.00  0.00     0.000 HD 
HETATM   48  H1  UNK A   1      -7.456  19.347  69.667  1.00  0.00     0.000 HD 
ENDBRANCH  41  42
ENDBRANCH  40  41
ENDBRANCH  39  40
ENDBRANCH  27  36
ENDBRANCH  26  27
ENDBRANCH  25  26
ENDBRANCH  24  25
ENDBRANCH  23  24
ENDBRANCH  14  23
ENDBRANCH  11  14
ENDBRANCH   9  10
ENDBRANCH   8   9
ENDBRANCH   4   8
TORSDOF 17
ENDMDL
MODEL       83
REMARK 921   NORMALIZED FREE ENERGY PREDICTED BY IDOCK:   -5.17 KCAL/MOL
REMARK 922        TOTAL FREE ENERGY PREDICTED BY IDOCK:  -13.28 KCAL/MOL
REMARK 923 INTER-LIGAND FREE ENERGY PREDICTED BY IDOCK:  -11.46 KCAL/MOL
REMARK 924 INTRA-LIGAND FREE ENERGY PREDICTED BY IDOCK:   -1.82 KCAL/MOL
REMARK 927      BINDING AFFINITY PREDICTED BY RF-SCORE:    0.00 PKD
ROOT
HETATM    1  N   UNK A   1     -11.012  15.030  71.585  1.00  0.00    -0.497 NA 
HETATM    2  H1  UNK A   1     -10.495  15.830  71.950  1.00  0.00     0.000 HD 
HETATM    3  H2  UNK A   1     -10.553  14.652  70.756  1.00  0.00     0.000 HD 
HETATM    4  C   UNK A   1     -12.444  15.323  71.308  1.00  0.00    -0.370 C  
HETATM    5  O   UNK A   1     -14.278  15.889  72.841  1.00  0.00    -0.497 OA 
HETATM    6  C   UNK A   1     -13.085  15.902  72.581  1.00  0.00    -0.472 C  
HETATM    7  O   UNK A   1     -12.144  16.442  73.396  1.00  0.00    -0.495 OA 
ENDROOT
BRANCH   4   8
HETATM    8  C   UNK A   1     -13.219  14.122  70.762  1.00  0.00    -0.212 C  
BRANCH   8   9
HETATM    9  C   UNK A   1     -12.634  12.756  71.124  1.00  0.00    -0.365 C  
BRANCH   9  10
HETATM   10  C   UNK A   1     -12.017  12.121  69.900  1.00  0.00    -0.309 C  
HETATM   11  N   UNK A   1     -10.939  12.810  69.384  1.00  0.00    -0.450 N  
HETATM   12  O   UNK A   1     -12.470  11.101  69.390  1.00  0.00    -0.323 OA 
HETATM   13  H   UNK A   1     -10.637  13.685  69.811  1.00  0.00     0.000 HD 
BRANCH  11  14
HETATM   14  C   UNK A   1     -10.230  12.275  68.214  1.00  0.00    -0.220 C  
BRANCH  14  15
HETATM   15  C   UNK A   1     -11.205  12.234  67.020  1.00  0.00    -0.310 C  
ATOM     16  H   GLY A   2     -11.665  14.225  67.345  1.00  0.00     0.000 HD 
ATOM     17  N   GLY A   2     -11.840  13.424  66.739  1.00  0.00    -0.387 N  
HETATM   18  O   UNK A   1     -11.419  11.217  66.379  1.00  0.00    -0.306 OA 
BRANCH  17  19
ATOM     19  CA  GLY A   2     -12.747  13.585  65.616  1.00  0.00    -0.421 C  
ATOM     20  C   GLY A   2     -12.095  14.104  64.345  1.00  0.00    -0.463 C  
ATOM     21  O   GLY A   2     -10.973  14.861  64.535  1.00  0.00    -0.322 OA 
ATOM     22  OXT GLY A   2     -12.556  13.931  63.226  1.00  0.00    -0.824 OA 
ENDBRANCH  17  19
ENDBRANCH  14  15
BRANCH  14  23
HETATM   23  C   UNK A   1      -9.654  10.881  68.518  1.00  0.00    -0.187 C  
BRANCH  23  24
HETATM   24  S   UNK A   1      -7.916  10.835  69.057  1.00  0.00    -0.121 SA 
BRANCH  24  25
HETATM   25  S   UNK A   1      -7.466   8.843  68.875  1.00  0.00    -0.083 SA 
BRANCH  25  26
HETATM   26  C   UNK A   1      -7.462   8.287  70.616  1.00  0.00    -0.062 C  
BRANCH  26  27
HETATM   27  C   UNK A   1      -8.580   7.298  70.995  1.00  0.00    -0.128 C  
BRANCH  27  28
HETATM   28  C   UNK A   1      -9.670   8.006  71.854  1.00  0.00    -0.190 C  
ATOM     29  H   GLY A   2     -10.834   8.411  70.168  1.00  0.00     0.000 HD 
ATOM     30  N   GLY A   2     -10.786   8.466  71.185  1.00  0.00    -0.229 N  
HETATM   31  O   UNK A   1      -9.619   8.048  73.082  1.00  0.00    -0.268 OA 
BRANCH  30  32
ATOM     32  CA  GLY A   2     -11.895   9.033  71.943  1.00  0.00    -0.376 C  
ATOM     33  OXT GLY A   2     -14.337   9.036  71.928  1.00  0.00    -0.320 OA 
ATOM     34  C   GLY A   2     -13.291   8.424  71.751  1.00  0.00    -0.357 C  
ATOM     35  O   GLY A   2     -13.298   7.089  71.576  1.00  0.00    -0.366 OA 
ENDBRANCH  30  32
ENDBRANCH  27  28
BRANCH  27  36
HETATM   36  N   UNK A   1      -9.017   6.406  69.899  1.00  0.00    -0.142 N  
HETATM   37  H   UNK A   1      -8.907   6.719  68.934  1.00  0.00     0.000 HD 
HETATM   38  O   UNK A   1      -9.612   4.654  71.249  1.00  0.00    -0.152 OA 
HETATM   39  C   UNK A   1      -9.568   5.169  70.137  1.00  0.00    -0.181 C  
BRANCH  39  40
HETATM   40  C   UNK A   1     -10.010   4.382  68.912  1.00  0.00    -0.082 C  
BRANCH  40  41
HETATM   41  C   UNK A   1     -10.622   5.190  67.752  1.00  0.00    -0.041 C  
BRANCH  41  42
HETATM   42  C   UNK A   1     -10.082   4.928  66.339  1.00  0.00    -0.258 C  
HETATM   43  N   UNK A   1      -9.536   3.552  66.189  1.00  0.00    -0.356 NA 
HETATM   44  C   UNK A   1      -8.953   5.896  66.034  1.00  0.00    -0.151 C  
HETATM   45  O   UNK A   1      -9.025   7.063  65.695  1.00  0.00    -0.076 OA 
HETATM   46  O   UNK A   1      -7.772   5.280  66.266  1.00  0.00    -0.087 OA 
HETATM   47  H2  UNK A   1     -10.227   2.851  66.454  1.00  0.00     0.000 HD 
HETATM   48  H1  UNK A   1      -9.177   3.378  65.250  1.00  0.00     0.000 HD 
ENDBRANCH  41  42
ENDBRANCH  40  41
ENDBRANCH  39  40
ENDBRANCH  27  36
ENDBRANCH  26  27
ENDBRANCH  25  26
ENDBRANCH  24  25
ENDBRANCH  23  24
ENDBRANCH  14  23
ENDBRANCH  11  14
ENDBRANCH   9  10
ENDBRANCH   8   9
ENDBRANCH   4   8
TORSDOF 17
ENDMDL
MODEL       84
REMARK 921   NORMALIZED FREE ENERGY PREDICTED BY IDOCK:   -5.17 KCAL/MOL
REMARK 922        TOTAL FREE ENERGY PREDICTED BY IDOCK:  -13.27 KCAL/MOL
REMARK 923 INTER-LIGAND FREE ENERGY PREDICTED BY IDOCK:  -11.25 KCAL/MOL
REMARK 924 INTRA-LIGAND FREE ENERGY PREDICTED BY IDOCK:   -2.02 KCAL/MOL
REMARK 927      BINDING AFFINITY PREDICTED BY RF-SCORE:    0.00 PKD
ROOT
HETATM    1  N   UNK A   1      -8.260   7.785  70.934  1.00  0.00    -0.105 NA 
HETATM    2  H1  UNK A   1      -7.881   8.672  71.264  1.00  0.00     0.000 HD 
HETATM    3  H2  UNK A   1      -8.002   7.622  69.960  1.00  0.00     0.000 HD 
HETATM    4  C   UNK A   1      -9.732   7.662  71.115  1.00  0.00    -0.162 C  
HETATM    5  O   UNK A   1     -11.078   7.544  73.167  1.00  0.00    -0.383 OA 
HETATM    6  C   UNK A   1     -10.071   7.929  72.592  1.00  0.00    -0.279 C  
HETATM    7  O   UNK A   1      -9.097   8.660  73.189  1.00  0.00    -0.270 OA 
ENDROOT
BRANCH   4   8
HETATM    8  C   UNK A   1     -10.299   6.330  70.620  1.00  0.00    -0.254 C  
BRANCH   8   9
HETATM    9  C   UNK A   1     -11.182   6.426  69.374  1.00  0.00    -0.459 C  
BRANCH   9  10
HETATM   10  C   UNK A   1     -10.378   6.972  68.218  1.00  0.00    -0.194 C  
HETATM   11  N   UNK A   1      -9.127   6.409  68.078  1.00  0.00    -0.114 N  
HETATM   12  O   UNK A   1     -10.795   7.872  67.494  1.00  0.00    -0.205 OA 
HETATM   13  H   UNK A   1      -8.804   5.705  68.741  1.00  0.00     0.000 HD 
BRANCH  11  14
HETATM   14  C   UNK A   1      -8.262   6.830  66.968  1.00  0.00    -0.113 C  
BRANCH  14  15
HETATM   15  C   UNK A   1      -7.744   5.572  66.240  1.00  0.00    -0.099 C  
ATOM     16  H   GLY A   2      -9.546   5.430  65.232  1.00  0.00     0.000 HD 
ATOM     17  N   GLY A   2      -8.619   5.016  65.334  1.00  0.00    -0.137 N  
HETATM   18  O   UNK A   1      -6.645   5.088  66.462  1.00  0.00    -0.046 OA 
BRANCH  17  19
ATOM     19  CA  GLY A   2      -8.279   3.864  64.517  1.00  0.00    -0.094 C  
ATOM     20  C   GLY A   2      -9.280   3.549  63.417  1.00  0.00    -0.098 C  
ATOM     21  O   GLY A   2     -10.560   3.959  63.663  1.00  0.00    -0.235 OA 
ATOM     22  OXT GLY A   2      -9.003   2.917  62.408  1.00  0.00    -0.081 OA 
ENDBRANCH  17  19
ENDBRANCH  14  15
BRANCH  14  23
HETATM   23  C   UNK A   1      -7.102   7.699  67.482  1.00  0.00    -0.086 C  
BRANCH  23  24
HETATM   24  S   UNK A   1      -6.635   9.112  66.432  1.00  0.00    -0.067 SA 
BRANCH  24  25
HETATM   25  S   UNK A   1      -6.813  10.686  67.733  1.00  0.00    -0.073 SA 
BRANCH  25  26
HETATM   26  C   UNK A   1      -8.598  10.664  68.125  1.00  0.00    -0.123 C  
BRANCH  26  27
HETATM   27  C   UNK A   1      -9.340  11.993  67.895  1.00  0.00    -0.190 C  
BRANCH  27  28
HETATM   28  C   UNK A   1      -9.879  12.077  66.436  1.00  0.00    -0.220 C  
ATOM     29  H   GLY A   2     -10.175  14.139  66.589  1.00  0.00     0.000 HD 
ATOM     30  N   GLY A   2     -10.210  13.332  65.966  1.00  0.00    -0.286 N  
HETATM   31  O   UNK A   1      -9.896  11.106  65.681  1.00  0.00    -0.213 OA 
BRANCH  30  32
ATOM     32  CA  GLY A   2     -10.609  13.495  64.574  1.00  0.00    -0.424 C  
ATOM     33  OXT GLY A   2     -12.577  13.175  63.162  1.00  0.00    -0.654 OA 
ATOM     34  C   GLY A   2     -12.109  13.504  64.246  1.00  0.00    -0.431 C  
ATOM     35  O   GLY A   2     -12.878  14.110  65.170  1.00  0.00    -0.686 OA 
ENDBRANCH  30  32
ENDBRANCH  27  28
BRANCH  27  36
HETATM   36  N   UNK A   1     -10.235  12.403  69.000  1.00  0.00    -0.427 N  
HETATM   37  H   UNK A   1      -9.935  13.149  69.628  1.00  0.00     0.000 HD 
HETATM   38  O   UNK A   1     -11.961  11.008  68.429  1.00  0.00    -0.565 OA 
HETATM   39  C   UNK A   1     -11.459  11.811  69.209  1.00  0.00    -0.306 C  
BRANCH  39  40
HETATM   40  C   UNK A   1     -12.250  12.306  70.410  1.00  0.00    -0.371 C  
BRANCH  40  41
HETATM   41  C   UNK A   1     -12.242  13.825  70.667  1.00  0.00    -0.434 C  
BRANCH  41  42
HETATM   42  C   UNK A   1     -13.385  14.411  71.509  1.00  0.00    -0.355 C  
HETATM   43  N   UNK A   1     -14.105  15.504  70.802  1.00  0.00    -0.829 NA 
HETATM   44  C   UNK A   1     -12.827  14.996  72.793  1.00  0.00    -0.410 C  
HETATM   45  O   UNK A   1     -12.493  14.415  73.810  1.00  0.00    -0.359 OA 
HETATM   46  O   UNK A   1     -12.671  16.330  72.636  1.00  0.00    -0.413 OA 
HETATM   47  H2  UNK A   1     -14.441  15.194  69.891  1.00  0.00     0.000 HD 
HETATM   48  H1  UNK A   1     -14.864  15.893  71.361  1.00  0.00     0.000 HD 
ENDBRANCH  41  42
ENDBRANCH  40  41
ENDBRANCH  39  40
ENDBRANCH  27  36
ENDBRANCH  26  27
ENDBRANCH  25  26
ENDBRANCH  24  25
ENDBRANCH  23  24
ENDBRANCH  14  23
ENDBRANCH  11  14
ENDBRANCH   9  10
ENDBRANCH   8   9
ENDBRANCH   4   8
TORSDOF 17
ENDMDL
MODEL       85
REMARK 921   NORMALIZED FREE ENERGY PREDICTED BY IDOCK:   -5.16 KCAL/MOL
REMARK 922        TOTAL FREE ENERGY PREDICTED BY IDOCK:  -13.26 KCAL/MOL
REMARK 923 INTER-LIGAND FREE ENERGY PREDICTED BY IDOCK:  -10.89 KCAL/MOL
REMARK 924 INTRA-LIGAND FREE ENERGY PREDICTED BY IDOCK:   -2.37 KCAL/MOL
REMARK 927      BINDING AFFINITY PREDICTED BY RF-SCORE:    0.00 PKD
ROOT
HETATM    1  N   UNK A   1     -10.952   4.737  65.234  1.00  0.00    -0.792 NA 
HETATM    2  H1  UNK A   1     -11.847   4.857  65.707  1.00  0.00     0.000 HD 
HETATM    3  H2  UNK A   1     -11.062   4.173  64.391  1.00  0.00     0.000 HD 
HETATM    4  C   UNK A   1      -9.888   4.174  66.108  1.00  0.00    -0.194 C  
HETATM    5  O   UNK A   1      -8.786   5.125  68.087  1.00  0.00    -0.102 OA 
HETATM    6  C   UNK A   1      -9.770   5.049  67.369  1.00  0.00    -0.158 C  
HETATM    7  O   UNK A   1     -10.919   5.738  67.589  1.00  0.00    -0.240 OA 
ENDROOT
BRANCH   4   8
HETATM    8  C   UNK A   1      -8.545   3.994  65.398  1.00  0.00    -0.114 C  
BRANCH   8   9
HETATM    9  C   UNK A   1      -8.374   4.815  64.119  1.00  0.00    -0.124 C  
BRANCH   9  10
HETATM   10  C   UNK A   1      -7.796   6.170  64.454  1.00  0.00    -0.114 C  
HETATM   11  N   UNK A   1      -8.722   7.091  64.896  1.00  0.00    -0.352 N  
HETATM   12  O   UNK A   1      -6.606   6.432  64.301  1.00  0.00    -0.033 OA 
HETATM   13  H   UNK A   1      -9.708   6.841  64.951  1.00  0.00     0.000 HD 
BRANCH  11  14
HETATM   14  C   UNK A   1      -8.277   8.436  65.288  1.00  0.00    -0.151 C  
BRANCH  14  15
HETATM   15  C   UNK A   1      -7.902   8.416  66.784  1.00  0.00    -0.094 C  
ATOM     16  H   GLY A   2      -9.855   8.898  67.267  1.00  0.00     0.000 HD 
ATOM     17  N   GLY A   2      -8.939   8.673  67.653  1.00  0.00    -0.135 N  
HETATM   18  O   UNK A   1      -6.764   8.207  67.174  1.00  0.00    -0.063 OA 
BRANCH  17  19
ATOM     19  CA  GLY A   2      -8.781   8.639  69.097  1.00  0.00    -0.136 C  
ATOM     20  C   GLY A   2      -9.703   9.579  69.857  1.00  0.00    -0.224 C  
ATOM     21  O   GLY A   2     -10.114  10.680  69.159  1.00  0.00    -0.206 OA 
ATOM     22  OXT GLY A   2     -10.017   9.421  71.028  1.00  0.00    -0.285 OA 
ENDBRANCH  17  19
ENDBRANCH  14  15
BRANCH  14  23
HETATM   23  C   UNK A   1      -9.372   9.476  64.996  1.00  0.00    -0.229 C  
BRANCH  23  24
HETATM   24  S   UNK A   1      -9.278  10.301  63.376  1.00  0.00    -0.311 SA 
BRANCH  24  25
HETATM   25  S   UNK A   1     -10.159  12.111  63.769  1.00  0.00    -0.334 SA 
BRANCH  25  26
HETATM   26  C   UNK A   1      -9.871  12.299  65.564  1.00  0.00    -0.206 C  
BRANCH  26  27
HETATM   27  C   UNK A   1     -10.374  13.619  66.177  1.00  0.00    -0.297 C  
BRANCH  27  28
HETATM   28  C   UNK A   1     -11.368  13.339  67.344  1.00  0.00    -0.303 C  
ATOM     29  H   GLY A   2     -10.584  14.906  68.480  1.00  0.00     0.000 HD 
ATOM     30  N   GLY A   2     -11.308  14.189  68.429  1.00  0.00    -0.271 N  
HETATM   31  O   UNK A   1     -12.254  12.490  67.267  1.00  0.00    -0.454 OA 
BRANCH  30  32
ATOM     32  CA  GLY A   2     -12.286  14.055  69.502  1.00  0.00    -0.308 C  
ATOM     33  OXT GLY A   2     -12.537  14.634  71.861  1.00  0.00    -0.317 OA 
ATOM     34  C   GLY A   2     -12.120  14.934  70.749  1.00  0.00    -0.317 C  
ATOM     35  O   GLY A   2     -11.663  16.176  70.500  1.00  0.00    -0.352 OA 
ENDBRANCH  30  32
ENDBRANCH  27  28
BRANCH  27  36
HETATM   36  N   UNK A   1      -9.330  14.649  66.375  1.00  0.00    -0.343 N  
HETATM   37  H   UNK A   1      -8.483  14.401  66.886  1.00  0.00     0.000 HD 
HETATM   38  O   UNK A   1     -10.378  16.279  65.153  1.00  0.00    -0.587 OA 
HETATM   39  C   UNK A   1      -9.464  15.930  65.892  1.00  0.00    -0.337 C  
BRANCH  39  40
HETATM   40  C   UNK A   1      -8.328  16.890  66.210  1.00  0.00    -0.331 C  
BRANCH  40  41
HETATM   41  C   UNK A   1      -8.310  17.500  67.625  1.00  0.00    -0.215 C  
BRANCH  41  42
HETATM   42  C   UNK A   1      -8.428  19.026  67.744  1.00  0.00    -0.293 C  
HETATM   43  N   UNK A   1      -7.795  19.546  68.985  1.00  0.00    -0.339 NA 
HETATM   44  C   UNK A   1      -9.892  19.425  67.784  1.00  0.00    -0.347 C  
HETATM   45  O   UNK A   1     -10.677  19.525  66.859  1.00  0.00    -0.461 OA 
HETATM   46  O   UNK A   1     -10.263  19.603  69.072  1.00  0.00    -0.421 OA 
HETATM   47  H2  UNK A   1      -6.823  19.246  69.056  1.00  0.00     0.000 HD 
HETATM   48  H1  UNK A   1      -7.874  20.560  69.065  1.00  0.00     0.000 HD 
ENDBRANCH  41  42
ENDBRANCH  40  41
ENDBRANCH  39  40
ENDBRANCH  27  36
ENDBRANCH  26  27
ENDBRANCH  25  26
ENDBRANCH  24  25
ENDBRANCH  23  24
ENDBRANCH  14  23
ENDBRANCH  11  14
ENDBRANCH   9  10
ENDBRANCH   8   9
ENDBRANCH   4   8
TORSDOF 17
ENDMDL
MODEL       86
REMARK 921   NORMALIZED FREE ENERGY PREDICTED BY IDOCK:   -5.15 KCAL/MOL
REMARK 922        TOTAL FREE ENERGY PREDICTED BY IDOCK:  -13.24 KCAL/MOL
REMARK 923 INTER-LIGAND FREE ENERGY PREDICTED BY IDOCK:  -11.76 KCAL/MOL
REMARK 924 INTRA-LIGAND FREE ENERGY PREDICTED BY IDOCK:   -1.48 KCAL/MOL
REMARK 927      BINDING AFFINITY PREDICTED BY RF-SCORE:    0.00 PKD
ROOT
HETATM    1  N   UNK A   1      -9.063  10.841  69.472  1.00  0.00    -0.402 NA 
HETATM    2  H1  UNK A   1      -9.593  10.201  70.064  1.00  0.00     0.000 HD 
HETATM    3  H2  UNK A   1      -9.672  11.565  69.088  1.00  0.00     0.000 HD 
HETATM    4  C   UNK A   1      -8.307  10.160  68.387  1.00  0.00    -0.113 C  
HETATM    5  O   UNK A   1      -6.412   8.601  68.505  1.00  0.00    -0.053 OA 
HETATM    6  C   UNK A   1      -7.417   9.072  69.013  1.00  0.00    -0.074 C  
HETATM    7  O   UNK A   1      -7.898   8.689  70.223  1.00  0.00    -0.085 OA 
ENDROOT
BRANCH   4   8
HETATM    8  C   UNK A   1      -7.512  11.120  67.499  1.00  0.00    -0.104 C  
BRANCH   8   9
HETATM    9  C   UNK A   1      -6.493  11.990  68.237  1.00  0.00    -0.053 C  
BRANCH   9  10
HETATM   10  C   UNK A   1      -6.971  13.423  68.269  1.00  0.00    -0.108 C  
HETATM   11  N   UNK A   1      -6.071  14.335  67.759  1.00  0.00    -0.146 N  
HETATM   12  O   UNK A   1      -8.054  13.744  68.749  1.00  0.00    -0.118 OA 
HETATM   13  H   UNK A   1      -5.159  14.023  67.425  1.00  0.00     0.000 HD 
BRANCH  11  14
HETATM   14  C   UNK A   1      -6.433  15.757  67.702  1.00  0.00    -0.164 C  
BRANCH  14  15
HETATM   15  C   UNK A   1      -6.028  16.425  69.032  1.00  0.00    -0.143 C  
ATOM     16  H   GLY A   2      -5.661  18.191  68.020  1.00  0.00     0.000 HD 
ATOM     17  N   GLY A   2      -5.675  17.753  68.940  1.00  0.00    -0.175 N  
HETATM   18  O   UNK A   1      -6.001  15.818  70.092  1.00  0.00    -0.164 OA 
BRANCH  17  19
ATOM     19  CA  GLY A   2      -5.322  18.555  70.098  1.00  0.00    -0.227 C  
ATOM     20  C   GLY A   2      -6.113  19.845  70.240  1.00  0.00    -0.321 C  
ATOM     21  O   GLY A   2      -6.595  20.363  69.071  1.00  0.00    -0.280 OA 
ATOM     22  OXT GLY A   2      -6.266  20.434  71.300  1.00  0.00    -0.589 OA 
ENDBRANCH  17  19
ENDBRANCH  14  15
BRANCH  14  23
HETATM   23  C   UNK A   1      -7.936  15.925  67.424  1.00  0.00    -0.161 C  
BRANCH  23  24
HETATM   24  S   UNK A   1      -8.439  17.508  66.678  1.00  0.00    -0.271 SA 
BRANCH  24  25
HETATM   25  S   UNK A   1     -10.380  17.127  66.139  1.00  0.00    -0.269 SA 
BRANCH  25  26
HETATM   26  C   UNK A   1     -10.418  15.300  66.098  1.00  0.00    -0.309 C  
BRANCH  26  27
HETATM   27  C   UNK A   1     -11.816  14.667  66.223  1.00  0.00    -0.291 C  
BRANCH  27  28
HETATM   28  C   UNK A   1     -12.048  13.621  65.092  1.00  0.00    -0.403 C  
ATOM     29  H   GLY A   2     -10.033  13.661  64.546  1.00  0.00     0.000 HD 
ATOM     30  N   GLY A   2     -10.936  13.219  64.380  1.00  0.00    -0.376 N  
HETATM   31  O   UNK A   1     -13.134  13.072  64.912  1.00  0.00    -0.745 OA 
BRANCH  30  32
ATOM     32  CA  GLY A   2     -11.064  12.158  63.388  1.00  0.00    -0.420 C  
ATOM     33  OXT GLY A   2      -9.826  10.208  62.594  1.00  0.00    -0.174 OA 
ATOM     34  C   GLY A   2     -10.167  10.920  63.530  1.00  0.00    -0.317 C  
ATOM     35  O   GLY A   2      -9.945  10.536  64.802  1.00  0.00    -0.300 OA 
ENDBRANCH  30  32
ENDBRANCH  27  28
BRANCH  27  36
HETATM   36  N   UNK A   1     -12.215  14.312  67.603  1.00  0.00    -0.597 N  
HETATM   37  H   UNK A   1     -12.914  14.884  68.077  1.00  0.00     0.000 HD 
HETATM   38  O   UNK A   1     -10.936  12.416  67.733  1.00  0.00    -0.212 OA 
HETATM   39  C   UNK A   1     -11.675  13.237  68.267  1.00  0.00    -0.353 C  
BRANCH  39  40
HETATM   40  C   UNK A   1     -12.150  13.021  69.696  1.00  0.00    -0.304 C  
BRANCH  40  41
HETATM   41  C   UNK A   1     -12.721  14.249  70.431  1.00  0.00    -0.355 C  
BRANCH  41  42
HETATM   42  C   UNK A   1     -12.687  14.240  71.966  1.00  0.00    -0.324 C  
HETATM   43  N   UNK A   1     -13.788  13.430  72.551  1.00  0.00    -0.738 NA 
HETATM   44  C   UNK A   1     -12.842  15.656  72.490  1.00  0.00    -0.435 C  
HETATM   45  O   UNK A   1     -12.001  16.535  72.563  1.00  0.00    -0.521 OA 
HETATM   46  O   UNK A   1     -14.135  15.861  72.826  1.00  0.00    -0.567 OA 
HETATM   47  H2  UNK A   1     -13.786  12.481  72.178  1.00  0.00     0.000 HD 
HETATM   48  H1  UNK A   1     -13.765  13.425  73.571  1.00  0.00     0.000 HD 
ENDBRANCH  41  42
ENDBRANCH  40  41
ENDBRANCH  39  40
ENDBRANCH  27  36
ENDBRANCH  26  27
ENDBRANCH  25  26
ENDBRANCH  24  25
ENDBRANCH  23  24
ENDBRANCH  14  23
ENDBRANCH  11  14
ENDBRANCH   9  10
ENDBRANCH   8   9
ENDBRANCH   4   8
TORSDOF 17
ENDMDL
MODEL       87
REMARK 921   NORMALIZED FREE ENERGY PREDICTED BY IDOCK:   -5.14 KCAL/MOL
REMARK 922        TOTAL FREE ENERGY PREDICTED BY IDOCK:  -13.22 KCAL/MOL
REMARK 923 INTER-LIGAND FREE ENERGY PREDICTED BY IDOCK:  -11.23 KCAL/MOL
REMARK 924 INTRA-LIGAND FREE ENERGY PREDICTED BY IDOCK:   -1.99 KCAL/MOL
REMARK 927      BINDING AFFINITY PREDICTED BY RF-SCORE:    0.00 PKD
ROOT
HETATM    1  N   UNK A   1     -12.960   6.186  72.483  1.00  0.00    -0.325 NA 
HETATM    2  H1  UNK A   1     -13.021   5.168  72.444  1.00  0.00     0.000 HD 
HETATM    3  H2  UNK A   1     -13.621   6.612  71.834  1.00  0.00     0.000 HD 
HETATM    4  C   UNK A   1     -11.586   6.708  72.253  1.00  0.00    -0.278 C  
HETATM    5  O   UNK A   1      -9.547   6.471  73.602  1.00  0.00    -0.153 OA 
HETATM    6  C   UNK A   1     -10.626   6.027  73.244  1.00  0.00    -0.256 C  
HETATM    7  O   UNK A   1     -11.135   4.846  73.678  1.00  0.00    -0.311 OA 
ENDROOT
BRANCH   4   8
HETATM    8  C   UNK A   1     -11.495   8.234  72.312  1.00  0.00    -0.452 C  
BRANCH   8   9
HETATM    9  C   UNK A   1     -12.839   8.961  72.372  1.00  0.00    -0.446 C  
BRANCH   9  10
HETATM   10  C   UNK A   1     -13.062   9.733  71.092  1.00  0.00    -0.346 C  
HETATM   11  N   UNK A   1     -12.091  10.673  70.819  1.00  0.00    -0.341 N  
HETATM   12  O   UNK A   1     -14.049   9.559  70.384  1.00  0.00     0.363 OA 
HETATM   13  H   UNK A   1     -11.320  10.819  71.470  1.00  0.00     0.000 HD 
BRANCH  11  14
HETATM   14  C   UNK A   1     -12.176  11.465  69.584  1.00  0.00    -0.249 C  
BRANCH  14  15
HETATM   15  C   UNK A   1     -11.306  10.790  68.504  1.00  0.00    -0.295 C  
ATOM     16  H   GLY A   2      -9.672  10.901  69.768  1.00  0.00     0.000 HD 
ATOM     17  N   GLY A   2      -9.992  10.573  68.858  1.00  0.00    -0.194 N  
HETATM   18  O   UNK A   1     -11.740  10.485  67.404  1.00  0.00    -0.291 OA 
BRANCH  17  19
ATOM     19  CA  GLY A   2      -9.045   9.898  67.988  1.00  0.00    -0.121 C  
ATOM     20  C   GLY A   2      -8.623   8.517  68.462  1.00  0.00    -0.138 C  
ATOM     21  O   GLY A   2      -8.696   8.319  69.813  1.00  0.00    -0.131 OA 
ATOM     22  OXT GLY A   2      -8.183   7.650  67.722  1.00  0.00    -0.117 OA 
ENDBRANCH  17  19
ENDBRANCH  14  15
BRANCH  14  23
HETATM   23  C   UNK A   1     -11.732  12.916  69.837  1.00  0.00    -0.254 C  
BRANCH  23  24
HETATM   24  S   UNK A   1     -12.760  13.874  70.995  1.00  0.00    -0.347 SA 
BRANCH  24  25
HETATM   25  S   UNK A   1     -12.300  15.803  70.477  1.00  0.00    -0.265 SA 
BRANCH  25  26
HETATM   26  C   UNK A   1     -10.569  15.648  69.910  1.00  0.00    -0.321 C  
BRANCH  26  27
HETATM   27  C   UNK A   1     -10.277  16.234  68.516  1.00  0.00    -0.247 C  
BRANCH  27  28
HETATM   28  C   UNK A   1      -9.596  17.630  68.639  1.00  0.00    -0.307 C  
ATOM     29  H   GLY A   2      -7.856  16.941  67.712  1.00  0.00     0.000 HD 
ATOM     30  N   GLY A   2      -8.334  17.757  68.095  1.00  0.00    -0.256 N  
HETATM   31  O   UNK A   1     -10.185  18.616  69.080  1.00  0.00    -0.347 OA 
BRANCH  30  32
ATOM     32  CA  GLY A   2      -7.689  19.064  68.072  1.00  0.00    -0.273 C  
ATOM     33  OXT GLY A   2      -5.846  20.238  69.164  1.00  0.00    -0.273 OA 
ATOM     34  C   GLY A   2      -6.295  19.196  68.702  1.00  0.00    -0.248 C  
ATOM     35  O   GLY A   2      -5.499  18.125  68.522  1.00  0.00    -0.163 OA 
ENDBRANCH  30  32
ENDBRANCH  27  28
BRANCH  27  36
HETATM   36  N   UNK A   1      -9.728  15.268  67.540  1.00  0.00    -0.205 N  
HETATM   37  H   UNK A   1      -8.723  15.095  67.528  1.00  0.00     0.000 HD 
HETATM   38  O   UNK A   1     -11.753  14.632  66.679  1.00  0.00    -0.372 OA 
HETATM   39  C   UNK A   1     -10.528  14.594  66.647  1.00  0.00    -0.278 C  
BRANCH  39  40
HETATM   40  C   UNK A   1      -9.817  13.664  65.675  1.00  0.00    -0.196 C  
BRANCH  40  41
HETATM   41  C   UNK A   1     -10.474  12.295  65.419  1.00  0.00    -0.302 C  
BRANCH  41  42
HETATM   42  C   UNK A   1     -10.829  11.935  63.969  1.00  0.00    -0.379 C  
HETATM   43  N   UNK A   1      -9.925  12.590  62.987  1.00  0.00    -0.402 NA 
HETATM   44  C   UNK A   1     -12.241  12.394  63.657  1.00  0.00    -0.557 C  
HETATM   45  O   UNK A   1     -13.296  11.862  63.954  1.00  0.00    -0.600 OA 
HETATM   46  O   UNK A   1     -12.185  13.587  63.023  1.00  0.00    -0.557 OA 
HETATM   47  H2  UNK A   1      -8.948  12.382  63.190  1.00  0.00     0.000 HD 
HETATM   48  H1  UNK A   1     -10.160  12.351  62.024  1.00  0.00     0.000 HD 
ENDBRANCH  41  42
ENDBRANCH  40  41
ENDBRANCH  39  40
ENDBRANCH  27  36
ENDBRANCH  26  27
ENDBRANCH  25  26
ENDBRANCH  24  25
ENDBRANCH  23  24
ENDBRANCH  14  23
ENDBRANCH  11  14
ENDBRANCH   9  10
ENDBRANCH   8   9
ENDBRANCH   4   8
TORSDOF 17
ENDMDL
MODEL       88
REMARK 921   NORMALIZED FREE ENERGY PREDICTED BY IDOCK:   -5.13 KCAL/MOL
REMARK 922        TOTAL FREE ENERGY PREDICTED BY IDOCK:  -13.20 KCAL/MOL
REMARK 923 INTER-LIGAND FREE ENERGY PREDICTED BY IDOCK:  -10.33 KCAL/MOL
REMARK 924 INTRA-LIGAND FREE ENERGY PREDICTED BY IDOCK:   -2.87 KCAL/MOL
REMARK 927      BINDING AFFINITY PREDICTED BY RF-SCORE:    0.00 PKD
ROOT
HETATM    1  N   UNK A   1     -12.476  14.481  63.457  1.00  0.00    -1.063 NA 
HETATM    2  H1  UNK A   1     -12.769  14.111  62.553  1.00  0.00     0.000 HD 
HETATM    3  H2  UNK A   1     -12.179  15.453  63.370  1.00  0.00     0.000 HD 
HETATM    4  C   UNK A   1     -11.423  13.666  64.120  1.00  0.00    -0.329 C  
HETATM    5  O   UNK A   1     -11.506  11.379  65.012  1.00  0.00    -0.108 OA 
HETATM    6  C   UNK A   1     -11.911  12.210  64.214  1.00  0.00    -0.380 C  
HETATM    7  O   UNK A   1     -12.865  11.956  63.282  1.00  0.00    -0.702 OA 
ENDROOT
BRANCH   4   8
HETATM    8  C   UNK A   1     -10.984  14.221  65.476  1.00  0.00    -0.319 C  
BRANCH   8   9
HETATM    9  C   UNK A   1     -12.113  14.423  66.488  1.00  0.00    -0.395 C  
BRANCH   9  10
HETATM   10  C   UNK A   1     -11.744  13.776  67.803  1.00  0.00    -0.358 C  
HETATM   11  N   UNK A   1     -11.226  12.504  67.686  1.00  0.00    -0.264 N  
HETATM   12  O   UNK A   1     -11.933  14.329  68.883  1.00  0.00    -0.325 OA 
HETATM   13  H   UNK A   1     -11.143  12.066  66.769  1.00  0.00     0.000 HD 
BRANCH  11  14
HETATM   14  C   UNK A   1     -10.795  11.782  68.891  1.00  0.00    -0.223 C  
BRANCH  14  15
HETATM   15  C   UNK A   1      -9.416  11.147  68.621  1.00  0.00    -0.193 C  
ATOM     16  H   GLY A   2      -9.268  12.245  66.873  1.00  0.00     0.000 HD 
ATOM     17  N   GLY A   2      -8.783  11.582  67.477  1.00  0.00    -0.142 N  
HETATM   18  O   UNK A   1      -8.924  10.304  69.354  1.00  0.00    -0.185 OA 
BRANCH  17  19
ATOM     19  CA  GLY A   2      -7.455  11.136  67.096  1.00  0.00    -0.121 C  
ATOM     20  C   GLY A   2      -7.406  10.309  65.821  1.00  0.00    -0.140 C  
ATOM     21  O   GLY A   2      -8.554   9.630  65.525  1.00  0.00    -0.134 OA 
ATOM     22  OXT GLY A   2      -6.406  10.189  65.128  1.00  0.00    -0.106 OA 
ENDBRANCH  17  19
ENDBRANCH  14  15
BRANCH  14  23
HETATM   23  C   UNK A   1     -11.835  10.721  69.290  1.00  0.00    -0.288 C  
BRANCH  23  24
HETATM   24  S   UNK A   1     -12.866  11.117  70.737  1.00  0.00    -0.167 SA 
BRANCH  24  25
HETATM   25  S   UNK A   1     -12.761   9.381  71.822  1.00  0.00    -0.418 SA 
BRANCH  25  26
HETATM   26  C   UNK A   1     -10.962   9.059  71.864  1.00  0.00    -0.353 C  
BRANCH  26  27
HETATM   27  C   UNK A   1     -10.535   7.643  71.435  1.00  0.00    -0.208 C  
BRANCH  27  28
HETATM   28  C   UNK A   1     -10.519   6.680  72.659  1.00  0.00    -0.212 C  
ATOM     29  H   GLY A   2     -11.988   5.462  71.808  1.00  0.00     0.000 HD 
ATOM     30  N   GLY A   2     -11.346   5.576  72.592  1.00  0.00    -0.295 N  
HETATM   31  O   UNK A   1      -9.726   6.808  73.590  1.00  0.00    -0.178 OA 
BRANCH  30  32
ATOM     32  CA  GLY A   2     -11.294   4.575  73.650  1.00  0.00    -0.204 C  
ATOM     33  OXT GLY A   2     -11.418   2.149  73.912  1.00  0.00    -0.187 OA 
ATOM     34  C   GLY A   2     -11.044   3.113  73.254  1.00  0.00    -0.125 C  
ATOM     35  O   GLY A   2     -10.188   2.952  72.227  1.00  0.00    -0.164 OA 
ENDBRANCH  30  32
ENDBRANCH  27  28
BRANCH  27  36
HETATM   36  N   UNK A   1     -11.144   7.167  70.173  1.00  0.00    -0.270 N  
HETATM   37  H   UNK A   1     -12.158   7.215  70.066  1.00  0.00     0.000 HD 
HETATM   38  O   UNK A   1      -9.164   6.694  69.124  1.00  0.00    -0.137 OA 
HETATM   39  C   UNK A   1     -10.390   6.662  69.140  1.00  0.00    -0.194 C  
BRANCH  39  40
HETATM   40  C   UNK A   1     -11.158   6.172  67.922  1.00  0.00    -0.311 C  
BRANCH  40  41
HETATM   41  C   UNK A   1     -10.342   5.927  66.639  1.00  0.00    -0.283 C  
BRANCH  41  42
HETATM   42  C   UNK A   1      -9.675   4.554  66.471  1.00  0.00    -0.207 C  
HETATM   43  N   UNK A   1      -8.265   4.549  66.944  1.00  0.00    -0.102 NA 
HETATM   44  C   UNK A   1      -9.659   4.168  65.003  1.00  0.00    -0.180 C  
HETATM   45  O   UNK A   1     -10.565   3.713  64.328  1.00  0.00    -0.242 OA 
HETATM   46  O   UNK A   1      -8.451   4.476  64.481  1.00  0.00    -0.116 OA 
HETATM   47  H2  UNK A   1      -8.198   4.874  67.908  1.00  0.00     0.000 HD 
HETATM   48  H1  UNK A   1      -7.822   3.637  66.832  1.00  0.00     0.000 HD 
ENDBRANCH  41  42
ENDBRANCH  40  41
ENDBRANCH  39  40
ENDBRANCH  27  36
ENDBRANCH  26  27
ENDBRANCH  25  26
ENDBRANCH  24  25
ENDBRANCH  23  24
ENDBRANCH  14  23
ENDBRANCH  11  14
ENDBRANCH   9  10
ENDBRANCH   8   9
ENDBRANCH   4   8
TORSDOF 17
ENDMDL
MODEL       89
REMARK 921   NORMALIZED FREE ENERGY PREDICTED BY IDOCK:   -5.13 KCAL/MOL
REMARK 922        TOTAL FREE ENERGY PREDICTED BY IDOCK:  -13.20 KCAL/MOL
REMARK 923 INTER-LIGAND FREE ENERGY PREDICTED BY IDOCK:  -11.47 KCAL/MOL
REMARK 924 INTRA-LIGAND FREE ENERGY PREDICTED BY IDOCK:   -1.73 KCAL/MOL
REMARK 927      BINDING AFFINITY PREDICTED BY RF-SCORE:    0.00 PKD
ROOT
HETATM    1  N   UNK A   1      -8.598   5.851  65.512  1.00  0.00    -0.154 NA 
HETATM    2  H1  UNK A   1      -7.876   5.613  64.833  1.00  0.00     0.000 HD 
HETATM    3  H2  UNK A   1      -8.181   6.199  66.375  1.00  0.00     0.000 HD 
HETATM    4  C   UNK A   1      -9.540   4.735  65.795  1.00  0.00    -0.179 C  
HETATM    5  O   UNK A   1     -11.184   3.632  64.340  1.00  0.00    -0.219 OA 
HETATM    6  C   UNK A   1     -10.131   4.237  64.464  1.00  0.00    -0.096 C  
HETATM    7  O   UNK A   1      -9.320   4.558  63.424  1.00  0.00    -0.133 OA 
ENDROOT
BRANCH   4   8
HETATM    8  C   UNK A   1     -10.624   5.094  66.814  1.00  0.00    -0.266 C  
BRANCH   8   9
HETATM    9  C   UNK A   1     -10.881   6.592  66.984  1.00  0.00    -0.465 C  
BRANCH   9  10
HETATM   10  C   UNK A   1     -10.075   7.121  68.147  1.00  0.00    -0.169 C  
HETATM   11  N   UNK A   1     -10.742   8.039  68.931  1.00  0.00    -0.397 N  
HETATM   12  O   UNK A   1      -8.910   6.787  68.344  1.00  0.00    -0.123 OA 
HETATM   13  H   UNK A   1     -11.690   8.326  68.691  1.00  0.00     0.000 HD 
BRANCH  11  14
HETATM   14  C   UNK A   1     -10.076   8.600  70.115  1.00  0.00    -0.185 C  
BRANCH  14  15
HETATM   15  C   UNK A   1     -10.720   7.994  71.378  1.00  0.00    -0.229 C  
ATOM     16  H   GLY A   2     -11.474   6.443  70.234  1.00  0.00     0.000 HD 
ATOM     17  N   GLY A   2     -11.402   6.813  71.181  1.00  0.00    -0.280 N  
HETATM   18  O   UNK A   1     -10.652   8.528  72.474  1.00  0.00    -0.331 OA 
BRANCH  17  19
ATOM     19  CA  GLY A   2     -12.020   6.072  72.266  1.00  0.00    -0.204 C  
ATOM     20  C   GLY A   2     -11.151   4.976  72.863  1.00  0.00    -0.279 C  
ATOM     21  O   GLY A   2     -10.216   4.452  72.015  1.00  0.00    -0.186 OA 
ATOM     22  OXT GLY A   2     -11.299   4.531  73.991  1.00  0.00    -0.220 OA 
ENDBRANCH  17  19
ENDBRANCH  14  15
BRANCH  14  23
HETATM   23  C   UNK A   1     -10.174  10.136  70.116  1.00  0.00    -0.179 C  
BRANCH  23  24
HETATM   24  S   UNK A   1     -11.847  10.829  69.933  1.00  0.00    -0.355 SA 
BRANCH  24  25
HETATM   25  S   UNK A   1     -11.762  11.657  68.059  1.00  0.00    -0.237 SA 
BRANCH  25  26
HETATM   26  C   UNK A   1     -11.814  13.447  68.424  1.00  0.00    -0.366 C  
BRANCH  26  27
HETATM   27  C   UNK A   1     -11.182  14.357  67.355  1.00  0.00    -0.325 C  
BRANCH  27  28
HETATM   28  C   UNK A   1     -11.523  13.842  65.925  1.00  0.00    -0.325 C  
ATOM     29  H   GLY A   2      -9.515  13.437  65.515  1.00  0.00     0.000 HD 
ATOM     30  N   GLY A   2     -10.472  13.367  65.167  1.00  0.00    -0.330 N  
HETATM   31  O   UNK A   1     -12.680  13.736  65.519  1.00  0.00    -0.515 OA 
BRANCH  30  32
ATOM     32  CA  GLY A   2     -10.738  12.764  63.867  1.00  0.00    -0.409 C  
ATOM     33  OXT GLY A   2      -9.994  10.869  62.518  1.00  0.00    -0.133 OA 
ATOM     34  C   GLY A   2     -10.261  11.326  63.623  1.00  0.00    -0.392 C  
ATOM     35  O   GLY A   2     -10.356  10.517  64.695  1.00  0.00    -0.344 OA 
ENDBRANCH  30  32
ENDBRANCH  27  28
BRANCH  27  36
HETATM   36  N   UNK A   1     -11.297  15.806  67.627  1.00  0.00    -0.254 N  
HETATM   37  H   UNK A   1     -12.082  16.143  68.185  1.00  0.00     0.000 HD 
HETATM   38  O   UNK A   1      -9.338  16.392  66.594  1.00  0.00    -0.231 OA 
HETATM   39  C   UNK A   1     -10.381  16.716  67.152  1.00  0.00    -0.300 C  
BRANCH  39  40
HETATM   40  C   UNK A   1     -10.653  18.177  67.476  1.00  0.00    -0.419 C  
BRANCH  40  41
HETATM   41  C   UNK A   1      -9.477  18.993  68.044  1.00  0.00    -0.370 C  
BRANCH  41  42
HETATM   42  C   UNK A   1      -8.847  20.061  67.138  1.00  0.00    -0.344 C  
HETATM   43  N   UNK A   1      -9.642  20.294  65.903  1.00  0.00    -0.620 NA 
HETATM   44  C   UNK A   1      -7.463  19.615  66.705  1.00  0.00    -0.253 C  
HETATM   45  O   UNK A   1      -6.420  19.658  67.332  1.00  0.00    -0.194 OA 
HETATM   46  O   UNK A   1      -7.546  19.060  65.474  1.00  0.00    -0.460 OA 
HETATM   47  H2  UNK A   1     -10.610  20.525  66.126  1.00  0.00     0.000 HD 
HETATM   48  H1  UNK A   1      -9.224  21.004  65.301  1.00  0.00     0.000 HD 
ENDBRANCH  41  42
ENDBRANCH  40  41
ENDBRANCH  39  40
ENDBRANCH  27  36
ENDBRANCH  26  27
ENDBRANCH  25  26
ENDBRANCH  24  25
ENDBRANCH  23  24
ENDBRANCH  14  23
ENDBRANCH  11  14
ENDBRANCH   9  10
ENDBRANCH   8   9
ENDBRANCH   4   8
TORSDOF 17
ENDMDL
MODEL       90
REMARK 921   NORMALIZED FREE ENERGY PREDICTED BY IDOCK:   -5.12 KCAL/MOL
REMARK 922        TOTAL FREE ENERGY PREDICTED BY IDOCK:  -13.18 KCAL/MOL
REMARK 923 INTER-LIGAND FREE ENERGY PREDICTED BY IDOCK:  -11.59 KCAL/MOL
REMARK 924 INTRA-LIGAND FREE ENERGY PREDICTED BY IDOCK:   -1.59 KCAL/MOL
REMARK 927      BINDING AFFINITY PREDICTED BY RF-SCORE:    0.00 PKD
ROOT
HETATM    1  N   UNK A   1     -10.530  15.254  70.657  1.00  0.00    -0.486 NA 
HETATM    2  H1  UNK A   1     -10.238  16.082  71.176  1.00  0.00     0.000 HD 
HETATM    3  H2  UNK A   1      -9.861  15.035  69.919  1.00  0.00     0.000 HD 
HETATM    4  C   UNK A   1     -11.908  15.354  70.105  1.00  0.00    -0.335 C  
HETATM    5  O   UNK A   1     -14.077  15.479  71.252  1.00  0.00    -0.548 OA 
HETATM    6  C   UNK A   1     -12.876  15.698  71.251  1.00  0.00    -0.487 C  
HETATM    7  O   UNK A   1     -12.218  16.290  72.280  1.00  0.00    -0.482 OA 
ENDROOT
BRANCH   4   8
HETATM    8  C   UNK A   1     -12.347  14.111  69.328  1.00  0.00    -0.206 C  
BRANCH   8   9
HETATM    9  C   UNK A   1     -11.805  12.786  69.868  1.00  0.00    -0.371 C  
BRANCH   9  10
HETATM   10  C   UNK A   1     -10.788  12.219  68.905  1.00  0.00    -0.196 C  
HETATM   11  N   UNK A   1      -9.759  13.082  68.590  1.00  0.00    -0.403 N  
HETATM   12  O   UNK A   1     -10.899  11.098  68.418  1.00  0.00    -0.179 OA 
HETATM   13  H   UNK A   1      -9.744  14.025  68.977  1.00  0.00     0.000 HD 
BRANCH  11  14
HETATM   14  C   UNK A   1      -8.687  12.634  67.692  1.00  0.00    -0.179 C  
BRANCH  14  15
HETATM   15  C   UNK A   1      -9.278  12.421  66.283  1.00  0.00    -0.150 C  
ATOM     16  H   GLY A   2     -10.084  14.326  66.347  1.00  0.00     0.000 HD 
ATOM     17  N   GLY A   2      -9.970  13.495  65.768  1.00  0.00    -0.276 N  
HETATM   18  O   UNK A   1      -9.162  11.370  65.672  1.00  0.00    -0.215 OA 
BRANCH  17  19
ATOM     19  CA  GLY A   2     -10.544  13.493  64.434  1.00  0.00    -0.377 C  
ATOM     20  C   GLY A   2     -12.061  13.393  64.397  1.00  0.00    -0.416 C  
ATOM     21  O   GLY A   2     -12.628  12.772  65.474  1.00  0.00    -0.611 OA 
ATOM     22  OXT GLY A   2     -12.743  13.772  63.456  1.00  0.00    -0.774 OA 
ENDBRANCH  17  19
ENDBRANCH  14  15
BRANCH  14  23
HETATM   23  C   UNK A   1      -8.031  11.349  68.226  1.00  0.00    -0.136 C  
BRANCH  23  24
HETATM   24  S   UNK A   1      -6.384  10.956  67.556  1.00  0.00    -0.060 SA 
BRANCH  24  25
HETATM   25  S   UNK A   1      -6.711   9.138  66.667  1.00  0.00    -0.076 SA 
BRANCH  25  26
HETATM   26  C   UNK A   1      -7.213   8.099  68.084  1.00  0.00    -0.094 C  
BRANCH  26  27
HETATM   27  C   UNK A   1      -8.717   7.779  68.167  1.00  0.00    -0.126 C  
BRANCH  27  28
HETATM   28  C   UNK A   1      -8.981   6.285  67.815  1.00  0.00    -0.112 C  
ATOM     29  H   GLY A   2     -10.604   6.786  66.600  1.00  0.00     0.000 HD 
ATOM     30  N   GLY A   2     -10.007   6.027  66.929  1.00  0.00    -0.156 N  
HETATM   31  O   UNK A   1      -8.244   5.376  68.195  1.00  0.00    -0.099 OA 
BRANCH  30  32
ATOM     32  CA  GLY A   2     -10.232   4.662  66.468  1.00  0.00    -0.238 C  
ATOM     33  OXT GLY A   2     -10.234   3.390  64.383  1.00  0.00    -0.177 OA 
ATOM     34  C   GLY A   2      -9.742   4.281  65.064  1.00  0.00    -0.189 C  
ATOM     35  O   GLY A   2      -8.579   4.857  64.705  1.00  0.00    -0.141 OA 
ENDBRANCH  30  32
ENDBRANCH  27  28
BRANCH  27  36
HETATM   36  N   UNK A   1      -9.410   8.359  69.339  1.00  0.00    -0.154 N  
HETATM   37  H   UNK A   1     -10.177   9.012  69.184  1.00  0.00     0.000 HD 
HETATM   38  O   UNK A   1      -8.241   7.171  70.911  1.00  0.00    -0.113 OA 
HETATM   39  C   UNK A   1      -9.053   8.045  70.630  1.00  0.00    -0.153 C  
BRANCH  39  40
HETATM   40  C   UNK A   1      -9.828   8.752  71.732  1.00  0.00    -0.391 C  
BRANCH  40  41
HETATM   41  C   UNK A   1     -11.188   9.362  71.343  1.00  0.00    -0.452 C  
BRANCH  41  42
HETATM   42  C   UNK A   1     -12.432   8.472  71.478  1.00  0.00    -0.317 C  
HETATM   43  N   UNK A   1     -12.955   8.438  72.870  1.00  0.00    -0.679 NA 
HETATM   44  C   UNK A   1     -12.086   7.046  71.091  1.00  0.00    -0.369 C  
HETATM   45  O   UNK A   1     -11.973   6.567  69.977  1.00  0.00    -0.358 OA 
HETATM   46  O   UNK A   1     -11.835   6.336  72.214  1.00  0.00    -0.311 OA 
HETATM   47  H2  UNK A   1     -13.136   9.379  73.218  1.00  0.00     0.000 HD 
HETATM   48  H1  UNK A   1     -13.781   7.847  72.959  1.00  0.00     0.000 HD 
ENDBRANCH  41  42
ENDBRANCH  40  41
ENDBRANCH  39  40
ENDBRANCH  27  36
ENDBRANCH  26  27
ENDBRANCH  25  26
ENDBRANCH  24  25
ENDBRANCH  23  24
ENDBRANCH  14  23
ENDBRANCH  11  14
ENDBRANCH   9  10
ENDBRANCH   8   9
ENDBRANCH   4   8
TORSDOF 17
ENDMDL
MODEL       91
REMARK 921   NORMALIZED FREE ENERGY PREDICTED BY IDOCK:   -5.12 KCAL/MOL
REMARK 922        TOTAL FREE ENERGY PREDICTED BY IDOCK:  -13.18 KCAL/MOL
REMARK 923 INTER-LIGAND FREE ENERGY PREDICTED BY IDOCK:  -11.96 KCAL/MOL
REMARK 924 INTRA-LIGAND FREE ENERGY PREDICTED BY IDOCK:   -1.21 KCAL/MOL
REMARK 927      BINDING AFFINITY PREDICTED BY RF-SCORE:    0.00 PKD
ROOT
HETATM    1  N   UNK A   1     -12.557  12.316  70.827  1.00  0.00    -0.268 NA 
HETATM    2  H1  UNK A   1     -12.863  11.759  71.624  1.00  0.00     0.000 HD 
HETATM    3  H2  UNK A   1     -11.758  11.879  70.367  1.00  0.00     0.000 HD 
HETATM    4  C   UNK A   1     -12.258  13.732  71.170  1.00  0.00    -0.278 C  
HETATM    5  O   UNK A   1     -13.743  15.532  71.937  1.00  0.00    -0.469 OA 
HETATM    6  C   UNK A   1     -13.484  14.341  71.871  1.00  0.00    -0.401 C  
HETATM    7  O   UNK A   1     -14.259  13.372  72.421  1.00  0.00    -0.637 OA 
ENDROOT
BRANCH   4   8
HETATM    8  C   UNK A   1     -11.799  14.568  69.973  1.00  0.00    -0.372 C  
BRANCH   8   9
HETATM    9  C   UNK A   1     -10.927  13.822  68.960  1.00  0.00    -0.277 C  
BRANCH   9  10
HETATM   10  C   UNK A   1     -11.413  14.106  67.558  1.00  0.00    -0.340 C  
HETATM   11  N   UNK A   1     -10.408  14.277  66.630  1.00  0.00    -0.275 N  
HETATM   12  O   UNK A   1     -12.606  14.215  67.287  1.00  0.00    -0.110 OA 
HETATM   13  H   UNK A   1      -9.431  14.234  66.919  1.00  0.00     0.000 HD 
BRANCH  11  14
HETATM   14  C   UNK A   1     -10.753  14.523  65.224  1.00  0.00    -0.376 C  
BRANCH  14  15
HETATM   15  C   UNK A   1     -10.853  16.045  64.998  1.00  0.00    -0.404 C  
ATOM     16  H   GLY A   2      -9.851  16.362  66.781  1.00  0.00     0.000 HD 
ATOM     17  N   GLY A   2     -10.266  16.823  65.971  1.00  0.00    -0.347 N  
HETATM   18  O   UNK A   1     -11.428  16.532  64.037  1.00  0.00    -1.137 OA 
BRANCH  17  19
ATOM     19  CA  GLY A   2     -10.214  18.273  65.894  1.00  0.00    -0.226 C  
ATOM     20  C   GLY A   2      -8.899  18.885  66.350  1.00  0.00    -0.306 C  
ATOM     21  O   GLY A   2      -8.197  18.142  67.258  1.00  0.00    -0.224 OA 
ATOM     22  OXT GLY A   2      -8.506  19.987  65.999  1.00  0.00    -0.336 OA 
ENDBRANCH  17  19
ENDBRANCH  14  15
BRANCH  14  23
HETATM   23  C   UNK A   1     -12.066  13.812  64.854  1.00  0.00    -0.403 C  
BRANCH  23  24
HETATM   24  S   UNK A   1     -11.971  12.624  63.478  1.00  0.00    -0.549 SA 
BRANCH  24  25
HETATM   25  S   UNK A   1     -10.102  11.823  63.736  1.00  0.00    -0.413 SA 
BRANCH  25  26
HETATM   26  C   UNK A   1     -10.340  10.750  65.197  1.00  0.00    -0.271 C  
BRANCH  26  27
HETATM   27  C   UNK A   1      -9.314   9.613  65.353  1.00  0.00    -0.259 C  
BRANCH  27  28
HETATM   28  C   UNK A   1      -8.035  10.123  66.082  1.00  0.00    -0.125 C  
ATOM     29  H   GLY A   2      -8.927  11.964  66.505  1.00  0.00     0.000 HD 
ATOM     30  N   GLY A   2      -8.101  11.382  66.645  1.00  0.00    -0.160 N  
HETATM   31  O   UNK A   1      -7.052   9.409  66.270  1.00  0.00    -0.086 OA 
BRANCH  30  32
ATOM     32  CA  GLY A   2      -6.983  11.873  67.440  1.00  0.00    -0.128 C  
ATOM     33  OXT GLY A   2      -6.511  12.592  69.726  1.00  0.00    -0.101 OA 
ATOM     34  C   GLY A   2      -7.109  11.836  68.970  1.00  0.00    -0.100 C  
ATOM     35  O   GLY A   2      -7.768  10.765  69.450  1.00  0.00    -0.142 OA 
ENDBRANCH  30  32
ENDBRANCH  27  28
BRANCH  27  36
HETATM   36  N   UNK A   1      -9.887   8.313  65.766  1.00  0.00    -0.387 N  
HETATM   37  H   UNK A   1      -9.820   7.519  65.128  1.00  0.00     0.000 HD 
HETATM   38  O   UNK A   1     -10.514   8.991  67.862  1.00  0.00    -0.231 OA 
HETATM   39  C   UNK A   1     -10.508   8.139  66.980  1.00  0.00    -0.326 C  
BRANCH  39  40
HETATM   40  C   UNK A   1     -11.088   6.758  67.248  1.00  0.00    -0.394 C  
BRANCH  40  41
HETATM   41  C   UNK A   1     -10.087   5.644  67.610  1.00  0.00    -0.208 C  
BRANCH  41  42
HETATM   42  C   UNK A   1      -9.887   4.509  66.596  1.00  0.00    -0.225 C  
HETATM   43  N   UNK A   1      -9.551   3.217  67.252  1.00  0.00    -0.357 NA 
HETATM   44  C   UNK A   1      -8.740   4.852  65.663  1.00  0.00    -0.135 C  
HETATM   45  O   UNK A   1      -8.742   5.595  64.698  1.00  0.00    -0.091 OA 
HETATM   46  O   UNK A   1      -7.618   4.241  66.104  1.00  0.00    -0.087 OA 
HETATM   47  H2  UNK A   1     -10.250   2.967  67.951  1.00  0.00     0.000 HD 
HETATM   48  H1  UNK A   1      -9.418   2.463  66.578  1.00  0.00     0.000 HD 
ENDBRANCH  41  42
ENDBRANCH  40  41
ENDBRANCH  39  40
ENDBRANCH  27  36
ENDBRANCH  26  27
ENDBRANCH  25  26
ENDBRANCH  24  25
ENDBRANCH  23  24
ENDBRANCH  14  23
ENDBRANCH  11  14
ENDBRANCH   9  10
ENDBRANCH   8   9
ENDBRANCH   4   8
TORSDOF 17
ENDMDL
MODEL       92
REMARK 921   NORMALIZED FREE ENERGY PREDICTED BY IDOCK:   -5.11 KCAL/MOL
REMARK 922        TOTAL FREE ENERGY PREDICTED BY IDOCK:  -13.15 KCAL/MOL
REMARK 923 INTER-LIGAND FREE ENERGY PREDICTED BY IDOCK:  -11.78 KCAL/MOL
REMARK 924 INTRA-LIGAND FREE ENERGY PREDICTED BY IDOCK:   -1.37 KCAL/MOL
REMARK 927      BINDING AFFINITY PREDICTED BY RF-SCORE:    0.00 PKD
ROOT
HETATM    1  N   UNK A   1     -11.203  15.899  70.402  1.00  0.00    -0.351 NA 
HETATM    2  H1  UNK A   1     -10.880  16.800  70.755  1.00  0.00     0.000 HD 
HETATM    3  H2  UNK A   1     -11.050  15.830  69.395  1.00  0.00     0.000 HD 
HETATM    4  C   UNK A   1     -12.620  15.599  70.741  1.00  0.00    -0.431 C  
HETATM    5  O   UNK A   1     -13.685  15.198  72.917  1.00  0.00    -0.466 OA 
HETATM    6  C   UNK A   1     -12.802  15.729  72.263  1.00  0.00    -0.447 C  
HETATM    7  O   UNK A   1     -11.843  16.525  72.800  1.00  0.00    -0.539 OA 
ENDROOT
BRANCH   4   8
HETATM    8  C   UNK A   1     -13.103  14.248  70.211  1.00  0.00     0.039 C  
BRANCH   8   9
HETATM    9  C   UNK A   1     -12.137  13.083  70.436  1.00  0.00    -0.391 C  
BRANCH   9  10
HETATM   10  C   UNK A   1     -11.400  12.773  69.154  1.00  0.00    -0.281 C  
HETATM   11  N   UNK A   1     -10.114  13.267  69.102  1.00  0.00    -0.408 N  
HETATM   12  O   UNK A   1     -11.926  12.167  68.224  1.00  0.00    -0.384 OA 
HETATM   13  H   UNK A   1      -9.744  13.814  69.879  1.00  0.00     0.000 HD 
BRANCH  11  14
HETATM   14  C   UNK A   1      -9.281  13.001  67.922  1.00  0.00    -0.208 C  
BRANCH  14  15
HETATM   15  C   UNK A   1      -9.764  13.898  66.764  1.00  0.00    -0.279 C  
ATOM     16  H   GLY A   2     -10.073  12.213  65.604  1.00  0.00     0.000 HD 
ATOM     17  N   GLY A   2     -10.161  13.229  65.628  1.00  0.00    -0.287 N  
HETATM   18  O   UNK A   1      -9.777  15.117  66.837  1.00  0.00    -0.228 OA 
BRANCH  17  19
ATOM     19  CA  GLY A   2     -10.698  13.908  64.462  1.00  0.00    -0.366 C  
ATOM     20  C   GLY A   2     -12.181  14.231  64.544  1.00  0.00    -0.455 C  
ATOM     21  O   GLY A   2     -12.912  13.404  65.350  1.00  0.00    -0.625 OA 
ATOM     22  OXT GLY A   2     -12.720  15.116  63.896  1.00  0.00    -0.759 OA 
ENDBRANCH  17  19
ENDBRANCH  14  15
BRANCH  14  23
HETATM   23  C   UNK A   1      -9.338  11.512  67.541  1.00  0.00    -0.166 C  
BRANCH  23  24
HETATM   24  S   UNK A   1      -7.912  10.871  66.609  1.00  0.00    -0.153 SA 
BRANCH  24  25
HETATM   25  S   UNK A   1      -8.662   9.131  65.826  1.00  0.00    -0.176 SA 
BRANCH  25  26
HETATM   26  C   UNK A   1     -10.245   8.955  66.722  1.00  0.00    -0.278 C  
BRANCH  26  27
HETATM   27  C   UNK A   1     -10.494   7.574  67.356  1.00  0.00    -0.297 C  
BRANCH  27  28
HETATM   28  C   UNK A   1      -9.252   6.653  67.169  1.00  0.00    -0.126 C  
ATOM     29  H   GLY A   2     -10.127   5.687  65.537  1.00  0.00     0.000 HD 
ATOM     30  N   GLY A   2      -9.285   5.772  66.107  1.00  0.00    -0.159 N  
HETATM   31  O   UNK A   1      -8.230   6.775  67.843  1.00  0.00    -0.115 OA 
BRANCH  30  32
ATOM     32  CA  GLY A   2      -8.110   4.964  65.806  1.00  0.00    -0.112 C  
ATOM     33  OXT GLY A   2      -6.966   2.976  66.645  1.00  0.00    -0.051 OA 
ATOM     34  C   GLY A   2      -8.019   3.559  66.419  1.00  0.00    -0.088 C  
ATOM     35  O   GLY A   2      -9.195   2.909  66.499  1.00  0.00    -0.154 OA 
ENDBRANCH  30  32
ENDBRANCH  27  28
BRANCH  27  36
HETATM   36  N   UNK A   1     -11.150   7.610  68.681  1.00  0.00    -0.406 N  
HETATM   37  H   UNK A   1     -11.535   8.492  69.018  1.00  0.00     0.000 HD 
HETATM   38  O   UNK A   1     -10.952   5.366  69.098  1.00  0.00    -0.132 OA 
HETATM   39  C   UNK A   1     -11.259   6.492  69.475  1.00  0.00    -0.372 C  
BRANCH  39  40
HETATM   40  C   UNK A   1     -11.921   6.691  70.830  1.00  0.00    -0.413 C  
BRANCH  40  41
HETATM   41  C   UNK A   1     -11.008   7.131  71.991  1.00  0.00    -0.267 C  
BRANCH  41  42
HETATM   42  C   UNK A   1     -10.683   8.626  72.114  1.00  0.00    -0.347 C  
HETATM   43  N   UNK A   1     -11.542   9.465  71.236  1.00  0.00    -0.333 NA 
HETATM   44  C   UNK A   1      -9.243   8.874  71.705  1.00  0.00    -0.231 C  
HETATM   45  O   UNK A   1      -8.228   8.691  72.351  1.00  0.00    -0.332 OA 
HETATM   46  O   UNK A   1      -9.218   9.289  70.418  1.00  0.00    -0.208 OA 
HETATM   47  H2  UNK A   1     -12.531   9.287  71.410  1.00  0.00     0.000 HD 
HETATM   48  H1  UNK A   1     -11.327  10.459  71.318  1.00  0.00     0.000 HD 
ENDBRANCH  41  42
ENDBRANCH  40  41
ENDBRANCH  39  40
ENDBRANCH  27  36
ENDBRANCH  26  27
ENDBRANCH  25  26
ENDBRANCH  24  25
ENDBRANCH  23  24
ENDBRANCH  14  23
ENDBRANCH  11  14
ENDBRANCH   9  10
ENDBRANCH   8   9
ENDBRANCH   4   8
TORSDOF 17
ENDMDL
MODEL       93
REMARK 921   NORMALIZED FREE ENERGY PREDICTED BY IDOCK:   -5.10 KCAL/MOL
REMARK 922        TOTAL FREE ENERGY PREDICTED BY IDOCK:  -13.14 KCAL/MOL
REMARK 923 INTER-LIGAND FREE ENERGY PREDICTED BY IDOCK:  -11.07 KCAL/MOL
REMARK 924 INTRA-LIGAND FREE ENERGY PREDICTED BY IDOCK:   -2.07 KCAL/MOL
REMARK 927      BINDING AFFINITY PREDICTED BY RF-SCORE:    0.00 PKD
ROOT
HETATM    1  N   UNK A   1      -8.324   4.999  66.614  1.00  0.00    -0.108 NA 
HETATM    2  H1  UNK A   1      -7.904   4.578  65.786  1.00  0.00     0.000 HD 
HETATM    3  H2  UNK A   1      -7.872   5.887  66.836  1.00  0.00     0.000 HD 
HETATM    4  C   UNK A   1      -8.330   4.101  67.800  1.00  0.00    -0.094 C  
HETATM    5  O   UNK A   1      -9.523   1.990  68.192  1.00  0.00    -0.198 OA 
HETATM    6  C   UNK A   1      -9.007   2.775  67.412  1.00  0.00    -0.159 C  
HETATM    7  O   UNK A   1      -8.956   2.579  66.070  1.00  0.00    -0.130 OA 
ENDROOT
BRANCH   4   8
HETATM    8  C   UNK A   1      -8.960   4.733  69.043  1.00  0.00    -0.139 C  
BRANCH   8   9
HETATM    9  C   UNK A   1     -10.398   5.221  68.862  1.00  0.00    -0.228 C  
BRANCH   9  10
HETATM   10  C   UNK A   1     -10.410   6.720  68.672  1.00  0.00    -0.186 C  
HETATM   11  N   UNK A   1      -9.998   7.437  69.776  1.00  0.00    -0.186 N  
HETATM   12  O   UNK A   1     -10.796   7.248  67.633  1.00  0.00    -0.228 OA 
HETATM   13  H   UNK A   1      -9.742   6.953  70.636  1.00  0.00     0.000 HD 
BRANCH  11  14
HETATM   14  C   UNK A   1      -9.931   8.903  69.705  1.00  0.00    -0.191 C  
BRANCH  14  15
HETATM   15  C   UNK A   1      -8.490   9.315  69.343  1.00  0.00    -0.137 C  
ATOM     16  H   GLY A   2      -9.179  11.183  68.780  1.00  0.00     0.000 HD 
ATOM     17  N   GLY A   2      -8.345  10.607  68.888  1.00  0.00    -0.143 N  
HETATM   18  O   UNK A   1      -7.543   8.548  69.432  1.00  0.00    -0.086 OA 
BRANCH  17  19
ATOM     19  CA  GLY A   2      -7.053  11.184  68.556  1.00  0.00    -0.080 C  
ATOM     20  C   GLY A   2      -6.857  11.489  67.080  1.00  0.00    -0.139 C  
ATOM     21  O   GLY A   2      -7.591  10.717  66.225  1.00  0.00    -0.135 OA 
ATOM     22  OXT GLY A   2      -6.058  12.312  66.658  1.00  0.00    -0.171 OA 
ENDBRANCH  17  19
ENDBRANCH  14  15
BRANCH  14  23
HETATM   23  C   UNK A   1     -10.379   9.532  71.036  1.00  0.00    -0.283 C  
BRANCH  23  24
HETATM   24  S   UNK A   1     -12.141   9.344  71.455  1.00  0.00    -0.387 SA 
BRANCH  24  25
HETATM   25  S   UNK A   1     -13.020  10.734  70.230  1.00  0.00     0.086 SA 
BRANCH  25  26
HETATM   26  C   UNK A   1     -11.762  12.059  70.185  1.00  0.00    -0.233 C  
BRANCH  26  27
HETATM   27  C   UNK A   1     -12.012  13.170  69.148  1.00  0.00    -0.281 C  
BRANCH  27  28
HETATM   28  C   UNK A   1     -12.461  14.486  69.850  1.00  0.00    -0.252 C  
ATOM     29  H   GLY A   2     -13.628  13.435  71.228  1.00  0.00     0.000 HD 
ATOM     30  N   GLY A   2     -13.279  14.353  70.955  1.00  0.00    -0.337 N  
HETATM   31  O   UNK A   1     -12.019  15.589  69.533  1.00  0.00    -0.343 OA 
BRANCH  30  32
ATOM     32  CA  GLY A   2     -13.640  15.536  71.727  1.00  0.00    -0.482 C  
ATOM     33  OXT GLY A   2     -13.351  16.436  73.979  1.00  0.00    -0.572 OA 
ATOM     34  C   GLY A   2     -12.887  15.805  73.037  1.00  0.00    -0.502 C  
ATOM     35  O   GLY A   2     -11.581  15.479  73.006  1.00  0.00    -0.439 OA 
ENDBRANCH  30  32
ENDBRANCH  27  28
BRANCH  27  36
HETATM   36  N   UNK A   1     -10.997  13.256  68.075  1.00  0.00    -0.237 N  
HETATM   37  H   UNK A   1     -10.023  13.420  68.328  1.00  0.00     0.000 HD 
HETATM   38  O   UNK A   1     -12.438  12.790  66.356  1.00  0.00    -0.443 OA 
HETATM   39  C   UNK A   1     -11.324  13.123  66.745  1.00  0.00    -0.316 C  
BRANCH  39  40
HETATM   40  C   UNK A   1     -10.182  13.278  65.753  1.00  0.00    -0.296 C  
BRANCH  40  41
HETATM   41  C   UNK A   1      -9.843  14.712  65.304  1.00  0.00    -0.228 C  
BRANCH  41  42
HETATM   42  C   UNK A   1     -10.954  15.769  65.393  1.00  0.00    -0.309 C  
HETATM   43  N   UNK A   1     -11.321  16.316  64.060  1.00  0.00    -1.475 NA 
HETATM   44  C   UNK A   1     -10.485  16.934  66.244  1.00  0.00    -0.262 C  
HETATM   45  O   UNK A   1     -10.433  17.014  67.458  1.00  0.00    -0.324 OA 
HETATM   46  O   UNK A   1     -10.038  17.919  65.433  1.00  0.00    -0.412 OA 
HETATM   47  H2  UNK A   1     -11.574  15.570  63.412  1.00  0.00     0.000 HD 
HETATM   48  H1  UNK A   1     -12.059  17.018  64.119  1.00  0.00     0.000 HD 
ENDBRANCH  41  42
ENDBRANCH  40  41
ENDBRANCH  39  40
ENDBRANCH  27  36
ENDBRANCH  26  27
ENDBRANCH  25  26
ENDBRANCH  24  25
ENDBRANCH  23  24
ENDBRANCH  14  23
ENDBRANCH  11  14
ENDBRANCH   9  10
ENDBRANCH   8   9
ENDBRANCH   4   8
TORSDOF 17
ENDMDL
MODEL       94
REMARK 921   NORMALIZED FREE ENERGY PREDICTED BY IDOCK:   -5.09 KCAL/MOL
REMARK 922        TOTAL FREE ENERGY PREDICTED BY IDOCK:  -13.12 KCAL/MOL
REMARK 923 INTER-LIGAND FREE ENERGY PREDICTED BY IDOCK:  -10.85 KCAL/MOL
REMARK 924 INTRA-LIGAND FREE ENERGY PREDICTED BY IDOCK:   -2.28 KCAL/MOL
REMARK 927      BINDING AFFINITY PREDICTED BY RF-SCORE:    0.00 PKD
ROOT
HETATM    1  N   UNK A   1     -12.769   7.446  70.561  1.00  0.00    -0.465 NA 
HETATM    2  H1  UNK A   1     -13.449   7.767  71.250  1.00  0.00     0.000 HD 
HETATM    3  H2  UNK A   1     -13.238   7.003  69.770  1.00  0.00     0.000 HD 
HETATM    4  C   UNK A   1     -11.729   6.546  71.127  1.00  0.00    -0.335 C  
HETATM    5  O   UNK A   1      -9.952   6.998  72.762  1.00  0.00    -0.167 OA 
HETATM    6  C   UNK A   1     -11.062   7.251  72.321  1.00  0.00    -0.260 C  
HETATM    7  O   UNK A   1     -11.877   8.207  72.836  1.00  0.00    -0.352 OA 
ENDROOT
BRANCH   4   8
HETATM    8  C   UNK A   1     -10.708   6.065  70.093  1.00  0.00    -0.379 C  
BRANCH   8   9
HETATM    9  C   UNK A   1     -11.088   6.334  68.636  1.00  0.00    -0.409 C  
BRANCH   9  10
HETATM   10  C   UNK A   1     -10.215   7.431  68.073  1.00  0.00    -0.191 C  
HETATM   11  N   UNK A   1      -9.951   8.458  68.954  1.00  0.00    -0.182 N  
HETATM   12  O   UNK A   1      -9.813   7.420  66.913  1.00  0.00    -0.184 OA 
HETATM   13  H   UNK A   1     -10.357   8.448  69.890  1.00  0.00     0.000 HD 
BRANCH  11  14
HETATM   14  C   UNK A   1      -9.083   9.567  68.537  1.00  0.00    -0.131 C  
BRANCH  14  15
HETATM   15  C   UNK A   1      -7.659   9.307  69.069  1.00  0.00    -0.074 C  
ATOM     16  H   GLY A   2      -8.280   9.854  70.965  1.00  0.00     0.000 HD 
ATOM     17  N   GLY A   2      -7.489   9.511  70.421  1.00  0.00    -0.137 N  
HETATM   18  O   UNK A   1      -6.738   8.963  68.344  1.00  0.00    -0.059 OA 
BRANCH  17  19
ATOM     19  CA  GLY A   2      -6.232   9.260  71.103  1.00  0.00    -0.075 C  
ATOM     20  C   GLY A   2      -6.371   8.600  72.465  1.00  0.00    -0.064 C  
ATOM     21  O   GLY A   2      -7.554   8.838  73.107  1.00  0.00    -0.375 OA 
ATOM     22  OXT GLY A   2      -5.482   7.956  73.001  1.00  0.00    -0.043 OA 
ENDBRANCH  17  19
ENDBRANCH  14  15
BRANCH  14  23
HETATM   23  C   UNK A   1      -9.635  10.910  69.044  1.00  0.00    -0.156 C  
BRANCH  23  24
HETATM   24  S   UNK A   1     -11.274  10.852  69.835  1.00  0.00    -0.259 SA 
BRANCH  24  25
HETATM   25  S   UNK A   1     -11.998  12.731  69.454  1.00  0.00    -0.218 SA 
BRANCH  25  26
HETATM   26  C   UNK A   1     -10.636  13.482  68.494  1.00  0.00    -0.247 C  
BRANCH  26  27
HETATM   27  C   UNK A   1     -11.069  14.281  67.250  1.00  0.00    -0.306 C  
BRANCH  27  28
HETATM   28  C   UNK A   1     -10.418  15.697  67.254  1.00  0.00    -0.292 C  
ATOM     29  H   GLY A   2     -12.226  16.604  67.775  1.00  0.00     0.000 HD 
ATOM     30  N   GLY A   2     -11.231  16.754  67.609  1.00  0.00    -0.077 N  
HETATM   31  O   UNK A   1      -9.213  15.870  67.077  1.00  0.00    -0.202 OA 
BRANCH  30  32
ATOM     32  CA  GLY A   2     -10.657  18.087  67.745  1.00  0.00    -0.394 C  
ATOM     33  OXT GLY A   2      -9.214  19.617  66.502  1.00  0.00    -0.340 OA 
ATOM     34  C   GLY A   2     -10.096  18.767  66.488  1.00  0.00    -0.397 C  
ATOM     35  O   GLY A   2     -10.793  18.520  65.362  1.00  0.00    -0.570 OA 
ENDBRANCH  30  32
ENDBRANCH  27  28
BRANCH  27  36
HETATM   36  N   UNK A   1     -11.071  13.511  65.988  1.00  0.00    -0.292 N  
HETATM   37  H   UNK A   1     -10.288  12.889  65.788  1.00  0.00     0.000 HD 
HETATM   38  O   UNK A   1     -13.135  14.216  65.289  1.00  0.00    -0.763 OA 
HETATM   39  C   UNK A   1     -12.094  13.605  65.074  1.00  0.00    -0.392 C  
BRANCH  39  40
HETATM   40  C   UNK A   1     -11.937  12.786  63.801  1.00  0.00    -0.585 C  
BRANCH  40  41
HETATM   41  C   UNK A   1     -10.534  12.222  63.507  1.00  0.00    -0.459 C  
BRANCH  41  42
HETATM   42  C   UNK A   1     -10.256  10.763  63.896  1.00  0.00    -0.309 C  
HETATM   43  N   UNK A   1     -10.481  10.512  65.345  1.00  0.00    -0.206 NA 
HETATM   44  C   UNK A   1      -8.808  10.421  63.600  1.00  0.00    -0.214 C  
HETATM   45  O   UNK A   1      -8.298  10.140  62.530  1.00  0.00    -0.133 OA 
HETATM   46  O   UNK A   1      -8.087  10.539  64.738  1.00  0.00    -0.154 OA 
HETATM   47  H2  UNK A   1     -11.419  10.796  65.626  1.00  0.00     0.000 HD 
HETATM   48  H1  UNK A   1     -10.297   9.543  65.604  1.00  0.00     0.000 HD 
ENDBRANCH  41  42
ENDBRANCH  40  41
ENDBRANCH  39  40
ENDBRANCH  27  36
ENDBRANCH  26  27
ENDBRANCH  25  26
ENDBRANCH  24  25
ENDBRANCH  23  24
ENDBRANCH  14  23
ENDBRANCH  11  14
ENDBRANCH   9  10
ENDBRANCH   8   9
ENDBRANCH   4   8
TORSDOF 17
ENDMDL
MODEL       95
REMARK 921   NORMALIZED FREE ENERGY PREDICTED BY IDOCK:   -5.09 KCAL/MOL
REMARK 922        TOTAL FREE ENERGY PREDICTED BY IDOCK:  -13.12 KCAL/MOL
REMARK 923 INTER-LIGAND FREE ENERGY PREDICTED BY IDOCK:   -9.51 KCAL/MOL
REMARK 924 INTRA-LIGAND FREE ENERGY PREDICTED BY IDOCK:   -3.61 KCAL/MOL
REMARK 927      BINDING AFFINITY PREDICTED BY RF-SCORE:    0.00 PKD
ROOT
HETATM    1  N   UNK A   1     -10.991   9.530  69.885  1.00  0.00    -0.236 NA 
HETATM    2  H1  UNK A   1     -10.683   8.598  70.162  1.00  0.00     0.000 HD 
HETATM    3  H2  UNK A   1     -10.211  10.072  69.513  1.00  0.00     0.000 HD 
HETATM    4  C   UNK A   1     -11.679  10.276  70.974  1.00  0.00    -0.370 C  
HETATM    5  O   UNK A   1     -13.816   9.835  72.102  1.00  0.00    -0.335 OA 
HETATM    6  C   UNK A   1     -12.834   9.413  71.511  1.00  0.00    -0.362 C  
HETATM    7  O   UNK A   1     -12.623   8.100  71.243  1.00  0.00    -0.301 OA 
ENDROOT
BRANCH   4   8
HETATM    8  C   UNK A   1     -12.141  11.674  70.558  1.00  0.00    -0.458 C  
BRANCH   8   9
HETATM    9  C   UNK A   1     -11.809  12.064  69.117  1.00  0.00    -0.369 C  
BRANCH   9  10
HETATM   10  C   UNK A   1     -10.912  13.280  69.109  1.00  0.00    -0.161 C  
HETATM   11  N   UNK A   1      -9.741  13.119  68.400  1.00  0.00    -0.299 N  
HETATM   12  O   UNK A   1     -11.193  14.307  69.720  1.00  0.00    -0.243 OA 
HETATM   13  H   UNK A   1      -9.528  12.226  67.957  1.00  0.00     0.000 HD 
BRANCH  11  14
HETATM   14  C   UNK A   1      -8.801  14.243  68.287  1.00  0.00    -0.185 C  
BRANCH  14  15
HETATM   15  C   UNK A   1      -9.078  14.987  66.965  1.00  0.00    -0.230 C  
ATOM     16  H   GLY A   2     -10.301  13.432  66.359  1.00  0.00     0.000 HD 
ATOM     17  N   GLY A   2      -9.941  14.351  66.101  1.00  0.00    -0.298 N  
HETATM   18  O   UNK A   1      -8.556  16.056  66.689  1.00  0.00    -0.223 OA 
BRANCH  17  19
ATOM     19  CA  GLY A   2     -10.360  14.931  64.837  1.00  0.00    -0.313 C  
ATOM     20  C   GLY A   2     -11.858  15.154  64.708  1.00  0.00    -0.291 C  
ATOM     21  O   GLY A   2     -12.636  14.319  65.460  1.00  0.00    -0.458 OA 
ATOM     22  OXT GLY A   2     -12.360  15.966  63.945  1.00  0.00    -0.776 OA 
ENDBRANCH  17  19
ENDBRANCH  14  15
BRANCH  14  23
HETATM   23  C   UNK A   1      -7.347  13.745  68.358  1.00  0.00    -0.117 C  
BRANCH  23  24
HETATM   24  S   UNK A   1      -7.128  11.964  68.670  1.00  0.00    -0.107 SA 
BRANCH  24  25
HETATM   25  S   UNK A   1      -5.992  11.388  67.064  1.00  0.00    -0.127 SA 
BRANCH  25  26
HETATM   26  C   UNK A   1      -7.013  10.064  66.324  1.00  0.00    -0.104 C  
BRANCH  26  27
HETATM   27  C   UNK A   1      -8.080   9.457  67.254  1.00  0.00    -0.110 C  
BRANCH  27  28
HETATM   28  C   UNK A   1      -9.511   9.811  66.752  1.00  0.00    -0.163 C  
ATOM     29  H   GLY A   2      -8.779  11.338  65.529  1.00  0.00     0.000 HD 
ATOM     30  N   GLY A   2      -9.608  10.813  65.807  1.00  0.00    -0.197 N  
HETATM   31  O   UNK A   1     -10.504   9.160  67.072  1.00  0.00    -0.260 OA 
BRANCH  30  32
ATOM     32  CA  GLY A   2     -10.903  11.114  65.210  1.00  0.00    -0.152 C  
ATOM     33  OXT GLY A   2     -11.818  12.094  63.168  1.00  0.00    -0.373 OA 
ATOM     34  C   GLY A   2     -10.958  11.405  63.704  1.00  0.00    -0.363 C  
ATOM     35  O   GLY A   2     -10.108  10.670  62.963  1.00  0.00    -0.280 OA 
ENDBRANCH  30  32
ENDBRANCH  27  28
BRANCH  27  36
HETATM   36  N   UNK A   1      -7.809   8.067  67.684  1.00  0.00    -0.120 N  
HETATM   37  H   UNK A   1      -7.666   7.877  68.676  1.00  0.00     0.000 HD 
HETATM   38  O   UNK A   1      -8.039   7.132  65.605  1.00  0.00    -0.118 OA 
HETATM   39  C   UNK A   1      -7.744   7.024  66.791  1.00  0.00    -0.098 C  
BRANCH  39  40
HETATM   40  C   UNK A   1      -7.416   5.658  67.374  1.00  0.00    -0.084 C  
BRANCH  40  41
HETATM   41  C   UNK A   1      -7.442   5.535  68.910  1.00  0.00    -0.082 C  
BRANCH  41  42
HETATM   42  C   UNK A   1      -8.741   5.041  69.563  1.00  0.00    -0.091 C  
HETATM   43  N   UNK A   1      -9.566   4.225  68.633  1.00  0.00    -0.157 NA 
HETATM   44  C   UNK A   1      -9.584   6.230  69.988  1.00  0.00    -0.158 C  
HETATM   45  O   UNK A   1      -9.460   6.935  70.973  1.00  0.00    -0.163 OA 
HETATM   46  O   UNK A   1     -10.515   6.470  69.037  1.00  0.00    -0.182 OA 
HETATM   47  H2  UNK A   1      -9.029   3.448  68.250  1.00  0.00     0.000 HD 
HETATM   48  H1  UNK A   1     -10.429   3.897  69.067  1.00  0.00     0.000 HD 
ENDBRANCH  41  42
ENDBRANCH  40  41
ENDBRANCH  39  40
ENDBRANCH  27  36
ENDBRANCH  26  27
ENDBRANCH  25  26
ENDBRANCH  24  25
ENDBRANCH  23  24
ENDBRANCH  14  23
ENDBRANCH  11  14
ENDBRANCH   9  10
ENDBRANCH   8   9
ENDBRANCH   4   8
TORSDOF 17
ENDMDL
MODEL       96
REMARK 921   NORMALIZED FREE ENERGY PREDICTED BY IDOCK:   -5.09 KCAL/MOL
REMARK 922        TOTAL FREE ENERGY PREDICTED BY IDOCK:  -13.11 KCAL/MOL
REMARK 923 INTER-LIGAND FREE ENERGY PREDICTED BY IDOCK:  -11.63 KCAL/MOL
REMARK 924 INTRA-LIGAND FREE ENERGY PREDICTED BY IDOCK:   -1.48 KCAL/MOL
REMARK 927      BINDING AFFINITY PREDICTED BY RF-SCORE:    0.00 PKD
ROOT
HETATM    1  N   UNK A   1     -11.503   4.545  65.105  1.00  0.00    -1.109 NA 
HETATM    2  H1  UNK A   1     -11.708   4.573  64.107  1.00  0.00     0.000 HD 
HETATM    3  H2  UNK A   1     -11.768   5.422  65.553  1.00  0.00     0.000 HD 
HETATM    4  C   UNK A   1     -10.087   4.204  65.411  1.00  0.00    -0.197 C  
HETATM    5  O   UNK A   1      -8.832   2.127  65.030  1.00  0.00    -0.110 OA 
HETATM    6  C   UNK A   1      -9.733   2.884  64.704  1.00  0.00    -0.086 C  
HETATM    7  O   UNK A   1     -10.559   2.661  63.651  1.00  0.00    -0.193 OA 
ENDROOT
BRANCH   4   8
HETATM    8  C   UNK A   1      -9.779   4.161  66.910  1.00  0.00    -0.232 C  
BRANCH   8   9
HETATM    9  C   UNK A   1      -8.502   4.891  67.328  1.00  0.00    -0.105 C  
BRANCH   9  10
HETATM   10  C   UNK A   1      -8.830   5.951  68.355  1.00  0.00    -0.111 C  
HETATM   11  N   UNK A   1      -9.450   5.471  69.489  1.00  0.00    -0.135 N  
HETATM   12  O   UNK A   1      -8.598   7.141  68.167  1.00  0.00    -0.128 OA 
HETATM   13  H   UNK A   1      -9.673   4.480  69.572  1.00  0.00     0.000 HD 
BRANCH  11  14
HETATM   14  C   UNK A   1      -9.788   6.398  70.578  1.00  0.00    -0.183 C  
BRANCH  14  15
HETATM   15  C   UNK A   1      -9.371   5.759  71.918  1.00  0.00    -0.151 C  
ATOM     16  H   GLY A   2     -10.546   4.112  71.485  1.00  0.00     0.000 HD 
ATOM     17  N   GLY A   2      -9.897   4.510  72.163  1.00  0.00    -0.170 N  
HETATM   18  O   UNK A   1      -8.642   6.324  72.718  1.00  0.00    -0.123 OA 
BRANCH  17  19
ATOM     19  CA  GLY A   2      -9.567   3.736  73.347  1.00  0.00    -0.107 C  
ATOM     20  C   GLY A   2      -8.422   2.754  73.163  1.00  0.00    -0.075 C  
ATOM     21  O   GLY A   2      -8.238   2.309  71.883  1.00  0.00    -0.052 OA 
ATOM     22  OXT GLY A   2      -7.741   2.324  74.083  1.00  0.00    -0.043 OA 
ENDBRANCH  17  19
ENDBRANCH  14  15
BRANCH  14  23
HETATM   23  C   UNK A   1     -11.289   6.735  70.558  1.00  0.00    -0.343 C  
BRANCH  23  24
HETATM   24  S   UNK A   1     -11.891   7.774  71.927  1.00  0.00    -0.312 SA 
BRANCH  24  25
HETATM   25  S   UNK A   1     -11.277   9.641  71.346  1.00  0.00    -0.289 SA 
BRANCH  25  26
HETATM   26  C   UNK A   1     -12.862  10.539  71.194  1.00  0.00    -0.416 C  
BRANCH  26  27
HETATM   27  C   UNK A   1     -12.765  11.949  70.583  1.00  0.00    -0.091 C  
BRANCH  27  28
HETATM   28  C   UNK A   1     -13.234  13.025  71.608  1.00  0.00    -0.336 C  
ATOM     29  H   GLY A   2     -13.490  14.449  70.101  1.00  0.00     0.000 HD 
ATOM     30  N   GLY A   2     -13.606  14.251  71.095  1.00  0.00    -0.296 N  
HETATM   31  O   UNK A   1     -13.395  12.775  72.801  1.00  0.00    -0.346 OA 
BRANCH  30  32
ATOM     32  CA  GLY A   2     -14.164  15.262  71.984  1.00  0.00    -0.581 C  
ATOM     33  OXT GLY A   2     -13.536  16.525  73.978  1.00  0.00    -0.446 OA 
ATOM     34  C   GLY A   2     -13.205  16.023  72.911  1.00  0.00    -0.461 C  
ATOM     35  O   GLY A   2     -12.003  16.293  72.368  1.00  0.00    -0.516 OA 
ENDBRANCH  30  32
ENDBRANCH  27  28
BRANCH  27  36
HETATM   36  N   UNK A   1     -11.530  12.206  69.810  1.00  0.00    -0.483 N  
HETATM   37  H   UNK A   1     -10.780  12.746  70.242  1.00  0.00     0.000 HD 
HETATM   38  O   UNK A   1     -12.142  10.973  67.979  1.00  0.00    -0.615 OA 
HETATM   39  C   UNK A   1     -11.359  11.742  68.527  1.00  0.00    -0.273 C  
BRANCH  39  40
HETATM   40  C   UNK A   1     -10.055  12.121  67.841  1.00  0.00    -0.199 C  
BRANCH  40  41
HETATM   41  C   UNK A   1     -10.041  12.074  66.301  1.00  0.00    -0.247 C  
BRANCH  41  42
HETATM   42  C   UNK A   1     -10.471  13.341  65.547  1.00  0.00    -0.288 C  
HETATM   43  N   UNK A   1      -9.973  14.582  66.196  1.00  0.00    -0.297 NA 
HETATM   44  C   UNK A   1     -11.986  13.427  65.512  1.00  0.00    -0.398 C  
HETATM   45  O   UNK A   1     -12.764  12.836  64.785  1.00  0.00    -0.644 OA 
HETATM   46  O   UNK A   1     -12.401  14.248  66.503  1.00  0.00    -0.445 OA 
HETATM   47  H2  UNK A   1      -8.961  14.553  66.319  1.00  0.00     0.000 HD 
HETATM   48  H1  UNK A   1     -10.258  15.423  65.695  1.00  0.00     0.000 HD 
ENDBRANCH  41  42
ENDBRANCH  40  41
ENDBRANCH  39  40
ENDBRANCH  27  36
ENDBRANCH  26  27
ENDBRANCH  25  26
ENDBRANCH  24  25
ENDBRANCH  23  24
ENDBRANCH  14  23
ENDBRANCH  11  14
ENDBRANCH   9  10
ENDBRANCH   8   9
ENDBRANCH   4   8
TORSDOF 17
ENDMDL
MODEL       97
REMARK 921   NORMALIZED FREE ENERGY PREDICTED BY IDOCK:   -5.09 KCAL/MOL
REMARK 922        TOTAL FREE ENERGY PREDICTED BY IDOCK:  -13.11 KCAL/MOL
REMARK 923 INTER-LIGAND FREE ENERGY PREDICTED BY IDOCK:  -10.99 KCAL/MOL
REMARK 924 INTRA-LIGAND FREE ENERGY PREDICTED BY IDOCK:   -2.12 KCAL/MOL
REMARK 927      BINDING AFFINITY PREDICTED BY RF-SCORE:    0.00 PKD
ROOT
HETATM    1  N   UNK A   1      -8.251   5.229  67.000  1.00  0.00    -0.108 NA 
HETATM    2  H1  UNK A   1      -8.062   4.964  66.033  1.00  0.00     0.000 HD 
HETATM    3  H2  UNK A   1      -7.651   6.003  67.285  1.00  0.00     0.000 HD 
HETATM    4  C   UNK A   1      -8.143   4.098  67.959  1.00  0.00    -0.089 C  
HETATM    5  O   UNK A   1      -9.505   2.066  68.184  1.00  0.00    -0.198 OA 
HETATM    6  C   UNK A   1      -9.052   2.953  67.478  1.00  0.00    -0.181 C  
HETATM    7  O   UNK A   1      -9.293   3.052  66.146  1.00  0.00    -0.146 OA 
ENDROOT
BRANCH   4   8
HETATM    8  C   UNK A   1      -8.427   4.496  69.409  1.00  0.00    -0.093 C  
BRANCH   8   9
HETATM    9  C   UNK A   1      -9.910   4.578  69.778  1.00  0.00    -0.295 C  
BRANCH   9  10
HETATM   10  C   UNK A   1     -10.391   6.004  69.654  1.00  0.00    -0.232 C  
HETATM   11  N   UNK A   1      -9.705   6.907  70.438  1.00  0.00    -0.173 N  
HETATM   12  O   UNK A   1     -11.341   6.317  68.942  1.00  0.00    -0.373 OA 
HETATM   13  H   UNK A   1      -8.960   6.587  71.057  1.00  0.00     0.000 HD 
BRANCH  11  14
HETATM   14  C   UNK A   1     -10.056   8.333  70.379  1.00  0.00    -0.190 C  
BRANCH  14  15
HETATM   15  C   UNK A   1      -8.846   9.116  69.831  1.00  0.00    -0.169 C  
ATOM     16  H   GLY A   2      -7.630   7.488  70.221  1.00  0.00     0.000 HD 
ATOM     17  N   GLY A   2      -7.652   8.430  69.831  1.00  0.00    -0.074 N  
HETATM   18  O   UNK A   1      -8.930  10.271  69.443  1.00  0.00    -0.185 OA 
BRANCH  17  19
ATOM     19  CA  GLY A   2      -6.422   8.990  69.298  1.00  0.00    -0.045 C  
ATOM     20  C   GLY A   2      -6.031   8.470  67.924  1.00  0.00    -0.047 C  
ATOM     21  O   GLY A   2      -6.494   7.220  67.624  1.00  0.00    -0.048 OA 
ATOM     22  OXT GLY A   2      -5.303   9.075  67.152  1.00  0.00    -0.039 OA 
ENDBRANCH  17  19
ENDBRANCH  14  15
BRANCH  14  23
HETATM   23  C   UNK A   1     -10.478   8.847  71.766  1.00  0.00    -0.360 C  
BRANCH  23  24
HETATM   24  S   UNK A   1     -12.250   8.714  72.161  1.00  0.00    -0.387 SA 
BRANCH  24  25
HETATM   25  S   UNK A   1     -13.080  10.046  70.843  1.00  0.00    -0.229 SA 
BRANCH  25  26
HETATM   26  C   UNK A   1     -11.945  11.473  70.969  1.00  0.00     0.010 C  
BRANCH  26  27
HETATM   27  C   UNK A   1     -12.155  12.578  69.916  1.00  0.00    -0.252 C  
BRANCH  27  28
HETATM   28  C   UNK A   1     -12.662  13.888  70.588  1.00  0.00    -0.281 C  
ATOM     29  H   GLY A   2     -13.348  12.846  72.264  1.00  0.00     0.000 HD 
ATOM     30  N   GLY A   2     -13.213  13.767  71.849  1.00  0.00    -0.375 N  
HETATM   31  O   UNK A   1     -12.476  14.999  70.095  1.00  0.00    -0.333 OA 
BRANCH  30  32
ATOM     32  CA  GLY A   2     -13.600  14.967  72.581  1.00  0.00    -0.459 C  
ATOM     33  OXT GLY A   2     -12.812  16.332  74.446  1.00  0.00    -0.689 OA 
ATOM     34  C   GLY A   2     -12.546  15.649  73.464  1.00  0.00    -0.557 C  
ATOM     35  O   GLY A   2     -11.297  15.625  72.962  1.00  0.00    -0.199 OA 
ENDBRANCH  30  32
ENDBRANCH  27  28
BRANCH  27  36
HETATM   36  N   UNK A   1     -11.084  12.677  68.900  1.00  0.00    -0.257 N  
HETATM   37  H   UNK A   1     -10.300  13.307  69.070  1.00  0.00     0.000 HD 
HETATM   38  O   UNK A   1     -11.935  11.069  67.508  1.00  0.00    -0.529 OA 
HETATM   39  C   UNK A   1     -11.111  11.948  67.734  1.00  0.00    -0.239 C  
BRANCH  39  40
HETATM   40  C   UNK A   1      -9.963  12.187  66.765  1.00  0.00    -0.218 C  
BRANCH  40  41
HETATM   41  C   UNK A   1     -10.297  12.950  65.468  1.00  0.00    -0.304 C  
BRANCH  41  42
HETATM   42  C   UNK A   1     -10.951  12.159  64.326  1.00  0.00    -0.339 C  
HETATM   43  N   UNK A   1     -10.248  12.354  63.030  1.00  0.00    -0.484 NA 
HETATM   44  C   UNK A   1     -12.383  12.625  64.136  1.00  0.00    -0.436 C  
HETATM   45  O   UNK A   1     -13.369  12.330  64.786  1.00  0.00    -0.631 OA 
HETATM   46  O   UNK A   1     -12.422  13.523  63.125  1.00  0.00    -0.759 OA 
HETATM   47  H2  UNK A   1      -9.257  12.130  63.111  1.00  0.00     0.000 HD 
HETATM   48  H1  UNK A   1     -10.683  11.829  62.271  1.00  0.00     0.000 HD 
ENDBRANCH  41  42
ENDBRANCH  40  41
ENDBRANCH  39  40
ENDBRANCH  27  36
ENDBRANCH  26  27
ENDBRANCH  25  26
ENDBRANCH  24  25
ENDBRANCH  23  24
ENDBRANCH  14  23
ENDBRANCH  11  14
ENDBRANCH   9  10
ENDBRANCH   8   9
ENDBRANCH   4   8
TORSDOF 17
ENDMDL
MODEL       98
REMARK 921   NORMALIZED FREE ENERGY PREDICTED BY IDOCK:   -5.08 KCAL/MOL
REMARK 922        TOTAL FREE ENERGY PREDICTED BY IDOCK:  -13.10 KCAL/MOL
REMARK 923 INTER-LIGAND FREE ENERGY PREDICTED BY IDOCK:  -10.54 KCAL/MOL
REMARK 924 INTRA-LIGAND FREE ENERGY PREDICTED BY IDOCK:   -2.56 KCAL/MOL
REMARK 927      BINDING AFFINITY PREDICTED BY RF-SCORE:    0.00 PKD
ROOT
HETATM    1  N   UNK A   1     -11.626  13.097  70.102  1.00  0.00    -0.533 NA 
HETATM    2  H1  UNK A   1     -12.219  13.612  70.752  1.00  0.00     0.000 HD 
HETATM    3  H2  UNK A   1     -11.334  13.695  69.328  1.00  0.00     0.000 HD 
HETATM    4  C   UNK A   1     -12.248  11.845  69.593  1.00  0.00    -0.153 C  
HETATM    5  O   UNK A   1     -12.858   9.778  70.772  1.00  0.00    -0.261 OA 
HETATM    6  C   UNK A   1     -12.683  10.986  70.794  1.00  0.00    -0.323 C  
HETATM    7  O   UNK A   1     -12.853  11.752  71.901  1.00  0.00    -0.344 OA 
ENDROOT
BRANCH   4   8
HETATM    8  C   UNK A   1     -11.357  11.072  68.618  1.00  0.00    -0.346 C  
BRANCH   8   9
HETATM    9  C   UNK A   1      -9.983  10.682  69.168  1.00  0.00    -0.228 C  
BRANCH   9  10
HETATM   10  C   UNK A   1      -8.900  11.399  68.397  1.00  0.00    -0.167 C  
HETATM   11  N   UNK A   1      -7.864  11.870  69.175  1.00  0.00    -0.343 N  
HETATM   12  O   UNK A   1      -8.967  11.579  67.184  1.00  0.00    -0.158 OA 
HETATM   13  H   UNK A   1      -7.884  11.745  70.186  1.00  0.00     0.000 HD 
BRANCH  11  14
HETATM   14  C   UNK A   1      -6.731  12.555  68.537  1.00  0.00    -0.078 C  
BRANCH  14  15
HETATM   15  C   UNK A   1      -7.174  13.977  68.139  1.00  0.00    -0.129 C  
ATOM     16  H   GLY A   2      -8.495  13.999  69.731  1.00  0.00     0.000 HD 
ATOM     17  N   GLY A   2      -8.122  14.549  68.958  1.00  0.00    -0.122 N  
HETATM   18  O   UNK A   1      -6.734  14.553  67.155  1.00  0.00    -0.218 OA 
BRANCH  17  19
ATOM     19  CA  GLY A   2      -8.612  15.903  68.768  1.00  0.00    -0.212 C  
ATOM     20  C   GLY A   2     -10.090  15.999  68.426  1.00  0.00    -0.229 C  
ATOM     21  O   GLY A   2     -10.614  14.902  67.802  1.00  0.00    -0.255 OA 
ATOM     22  OXT GLY A   2     -10.769  16.997  68.622  1.00  0.00    -0.345 OA 
ENDBRANCH  17  19
ENDBRANCH  14  15
BRANCH  14  23
HETATM   23  C   UNK A   1      -6.231  11.759  67.319  1.00  0.00    -0.130 C  
BRANCH  23  24
HETATM   24  S   UNK A   1      -5.202  10.303  67.685  1.00  0.00    -0.037 SA 
BRANCH  24  25
HETATM   25  S   UNK A   1      -6.547   8.769  67.484  1.00  0.00    -0.062 SA 
BRANCH  25  26
HETATM   26  C   UNK A   1      -6.762   8.679  65.671  1.00  0.00    -0.064 C  
BRANCH  26  27
HETATM   27  C   UNK A   1      -8.207   8.452  65.188  1.00  0.00    -0.157 C  
BRANCH  27  28
HETATM   28  C   UNK A   1      -8.902   7.347  66.037  1.00  0.00    -0.146 C  
ATOM     29  H   GLY A   2     -10.391   8.670  66.667  1.00  0.00     0.000 HD 
ATOM     30  N   GLY A   2     -10.067   7.703  66.687  1.00  0.00    -0.237 N  
HETATM   31  O   UNK A   1      -8.521   6.178  66.039  1.00  0.00    -0.129 OA 
BRANCH  30  32
ATOM     32  CA  GLY A   2     -10.829   6.687  67.403  1.00  0.00    -0.363 C  
ATOM     33  OXT GLY A   2     -10.635   5.289  69.396  1.00  0.00    -0.252 OA 
ATOM     34  C   GLY A   2     -10.430   6.366  68.850  1.00  0.00    -0.223 C  
ATOM     35  O   GLY A   2     -10.022   7.432  69.565  1.00  0.00    -0.173 OA 
ENDBRANCH  30  32
ENDBRANCH  27  28
BRANCH  27  36
HETATM   36  N   UNK A   1      -8.962   9.689  64.890  1.00  0.00    -0.204 N  
HETATM   37  H   UNK A   1      -9.207  10.315  65.657  1.00  0.00     0.000 HD 
HETATM   38  O   UNK A   1      -8.977   9.408  62.616  1.00  0.00    -0.245 OA 
HETATM   39  C   UNK A   1      -9.344  10.023  63.612  1.00  0.00    -0.253 C  
BRANCH  39  40
HETATM   40  C   UNK A   1     -10.152  11.304  63.464  1.00  0.00    -0.443 C  
BRANCH  40  41
HETATM   41  C   UNK A   1     -11.043  11.704  64.656  1.00  0.00    -0.342 C  
BRANCH  41  42
HETATM   42  C   UNK A   1     -12.515  12.029  64.367  1.00  0.00    -0.231 C  
HETATM   43  N   UNK A   1     -12.895  11.728  62.961  1.00  0.00    -0.884 NA 
HETATM   44  C   UNK A   1     -12.767  13.509  64.595  1.00  0.00    -0.170 C  
HETATM   45  O   UNK A   1     -12.934  14.097  65.647  1.00  0.00    -0.586 OA 
HETATM   46  O   UNK A   1     -12.711  14.151  63.406  1.00  0.00    -0.767 OA 
HETATM   47  H2  UNK A   1     -12.678  10.761  62.720  1.00  0.00     0.000 HD 
HETATM   48  H1  UNK A   1     -13.873  11.945  62.769  1.00  0.00     0.000 HD 
ENDBRANCH  41  42
ENDBRANCH  40  41
ENDBRANCH  39  40
ENDBRANCH  27  36
ENDBRANCH  26  27
ENDBRANCH  25  26
ENDBRANCH  24  25
ENDBRANCH  23  24
ENDBRANCH  14  23
ENDBRANCH  11  14
ENDBRANCH   9  10
ENDBRANCH   8   9
ENDBRANCH   4   8
TORSDOF 17
ENDMDL
MODEL       99
REMARK 921   NORMALIZED FREE ENERGY PREDICTED BY IDOCK:   -5.08 KCAL/MOL
REMARK 922        TOTAL FREE ENERGY PREDICTED BY IDOCK:  -13.10 KCAL/MOL
REMARK 923 INTER-LIGAND FREE ENERGY PREDICTED BY IDOCK:  -10.85 KCAL/MOL
REMARK 924 INTRA-LIGAND FREE ENERGY PREDICTED BY IDOCK:   -2.25 KCAL/MOL
REMARK 927      BINDING AFFINITY PREDICTED BY RF-SCORE:    0.00 PKD
ROOT
HETATM    1  N   UNK A   1     -11.241  15.730  64.276  1.00  0.00    -0.852 NA 
HETATM    2  H1  UNK A   1     -11.041  15.595  63.285  1.00  0.00     0.000 HD 
HETATM    3  H2  UNK A   1     -10.530  16.319  64.709  1.00  0.00     0.000 HD 
HETATM    4  C   UNK A   1     -11.403  14.458  65.029  1.00  0.00    -0.373 C  
HETATM    5  O   UNK A   1     -13.125  12.715  64.857  1.00  0.00    -0.850 OA 
HETATM    6  C   UNK A   1     -12.473  13.602  64.330  1.00  0.00    -0.248 C  
HETATM    7  O   UNK A   1     -12.605  13.960  63.027  1.00  0.00    -0.694 OA 
ENDROOT
BRANCH   4   8
HETATM    8  C   UNK A   1     -11.703  14.662  66.516  1.00  0.00    -0.335 C  
BRANCH   8   9
HETATM    9  C   UNK A   1     -12.129  13.401  67.269  1.00  0.00    -0.352 C  
BRANCH   9  10
HETATM   10  C   UNK A   1     -10.931  12.783  67.952  1.00  0.00    -0.234 C  
HETATM   11  N   UNK A   1     -11.208  11.629  68.655  1.00  0.00    -0.227 N  
HETATM   12  O   UNK A   1      -9.817  13.297  67.914  1.00  0.00    -0.220 OA 
HETATM   13  H   UNK A   1     -12.163  11.275  68.703  1.00  0.00     0.000 HD 
BRANCH  11  14
HETATM   14  C   UNK A   1     -10.120  10.914  69.334  1.00  0.00    -0.088 C  
BRANCH  14  15
HETATM   15  C   UNK A   1      -9.374  10.050  68.296  1.00  0.00    -0.132 C  
ATOM     16  H   GLY A   2     -11.159   9.727  67.301  1.00  0.00     0.000 HD 
ATOM     17  N   GLY A   2     -10.156   9.542  67.283  1.00  0.00    -0.200 N  
HETATM   18  O   UNK A   1      -8.179   9.812  68.375  1.00  0.00    -0.104 OA 
BRANCH  17  19
ATOM     19  CA  GLY A   2      -9.613   8.756  66.189  1.00  0.00    -0.253 C  
ATOM     20  C   GLY A   2      -9.279   9.555  64.940  1.00  0.00    -0.223 C  
ATOM     21  O   GLY A   2     -10.006  10.700  64.770  1.00  0.00    -0.278 OA 
ATOM     22  OXT GLY A   2      -8.472   9.190  64.097  1.00  0.00    -0.178 OA 
ENDBRANCH  17  19
ENDBRANCH  14  15
BRANCH  14  23
HETATM   23  C   UNK A   1     -10.668  10.059  70.488  1.00  0.00    -0.285 C  
BRANCH  23  24
HETATM   24  S   UNK A   1     -12.481  10.011  70.655  1.00  0.00    -0.195 SA 
BRANCH  24  25
HETATM   25  S   UNK A   1     -12.733   8.650  72.167  1.00  0.00    -0.402 SA 
BRANCH  25  26
HETATM   26  C   UNK A   1     -12.712   7.061  71.265  1.00  0.00    -0.351 C  
BRANCH  26  27
HETATM   27  C   UNK A   1     -11.360   6.323  71.260  1.00  0.00    -0.297 C  
BRANCH  27  28
HETATM   28  C   UNK A   1     -10.868   6.087  69.801  1.00  0.00    -0.363 C  
ATOM     29  H   GLY A   2      -9.783   4.394  70.367  1.00  0.00     0.000 HD 
ATOM     30  N   GLY A   2     -10.083   4.973  69.582  1.00  0.00    -0.241 N  
HETATM   31  O   UNK A   1     -11.252   6.773  68.855  1.00  0.00    -0.208 OA 
BRANCH  30  32
ATOM     32  CA  GLY A   2      -9.686   4.630  68.222  1.00  0.00    -0.131 C  
ATOM     33  OXT GLY A   2      -8.313   2.982  67.055  1.00  0.00    -0.086 OA 
ATOM     34  C   GLY A   2      -9.084   3.241  67.971  1.00  0.00    -0.167 C  
ATOM     35  O   GLY A   2      -9.629   2.255  68.709  1.00  0.00    -0.158 OA 
ENDBRANCH  30  32
ENDBRANCH  27  28
BRANCH  27  36
HETATM   36  N   UNK A   1     -10.385   6.809  72.262  1.00  0.00    -0.195 N  
HETATM   37  H   UNK A   1      -9.804   7.616  72.033  1.00  0.00     0.000 HD 
HETATM   38  O   UNK A   1     -10.982   5.328  73.904  1.00  0.00    -0.275 OA 
HETATM   39  C   UNK A   1     -10.237   6.209  73.490  1.00  0.00    -0.227 C  
BRANCH  39  40
HETATM   40  C   UNK A   1      -9.165   6.793  74.399  1.00  0.00    -0.248 C  
BRANCH  40  41
HETATM   41  C   UNK A   1      -8.573   8.155  73.988  1.00  0.00    -0.253 C  
BRANCH  41  42
HETATM   42  C   UNK A   1      -7.228   8.153  73.248  1.00  0.00    -0.127 C  
HETATM   43  N   UNK A   1      -6.319   9.229  73.726  1.00  0.00    -0.316 NA 
HETATM   44  C   UNK A   1      -7.458   8.383  71.766  1.00  0.00    -0.103 C  
HETATM   45  O   UNK A   1      -7.824   7.585  70.922  1.00  0.00    -0.092 OA 
HETATM   46  O   UNK A   1      -7.260   9.692  71.489  1.00  0.00    -0.294 OA 
HETATM   47  H2  UNK A   1      -6.184   9.176  74.735  1.00  0.00     0.000 HD 
HETATM   48  H1  UNK A   1      -5.426   9.229  73.234  1.00  0.00     0.000 HD 
ENDBRANCH  41  42
ENDBRANCH  40  41
ENDBRANCH  39  40
ENDBRANCH  27  36
ENDBRANCH  26  27
ENDBRANCH  25  26
ENDBRANCH  24  25
ENDBRANCH  23  24
ENDBRANCH  14  23
ENDBRANCH  11  14
ENDBRANCH   9  10
ENDBRANCH   8   9
ENDBRANCH   4   8
TORSDOF 17
ENDMDL
MODEL      100
REMARK 921   NORMALIZED FREE ENERGY PREDICTED BY IDOCK:   -5.06 KCAL/MOL
REMARK 922        TOTAL FREE ENERGY PREDICTED BY IDOCK:  -13.05 KCAL/MOL
REMARK 923 INTER-LIGAND FREE ENERGY PREDICTED BY IDOCK:  -10.16 KCAL/MOL
REMARK 924 INTRA-LIGAND FREE ENERGY PREDICTED BY IDOCK:   -2.90 KCAL/MOL
REMARK 927      BINDING AFFINITY PREDICTED BY RF-SCORE:    0.00 PKD
ROOT
HETATM    1  N   UNK A   1     -10.065  10.230  67.210  1.00  0.00    -0.193 NA 
HETATM    2  H1  UNK A   1     -10.889   9.794  66.795  1.00  0.00     0.000 HD 
HETATM    3  H2  UNK A   1      -9.212   9.860  66.790  1.00  0.00     0.000 HD 
HETATM    4  C   UNK A   1     -10.015  10.116  68.692  1.00  0.00    -0.170 C  
HETATM    5  O   UNK A   1     -11.472  11.089  70.413  1.00  0.00    -0.298 OA 
HETATM    6  C   UNK A   1     -11.325  10.672  69.275  1.00  0.00    -0.282 C  
HETATM    7  O   UNK A   1     -12.319  10.640  68.351  1.00  0.00    -0.269 OA 
ENDROOT
BRANCH   4   8
HETATM    8  C   UNK A   1      -8.778  10.770  69.314  1.00  0.00    -0.044 C  
BRANCH   8   9
HETATM    9  C   UNK A   1      -7.588  10.932  68.367  1.00  0.00    -0.104 C  
BRANCH   9  10
HETATM   10  C   UNK A   1      -7.389  12.394  68.040  1.00  0.00    -0.108 C  
HETATM   11  N   UNK A   1      -8.071  13.260  68.868  1.00  0.00    -0.344 N  
HETATM   12  O   UNK A   1      -6.709  12.767  67.089  1.00  0.00    -0.125 OA 
HETATM   13  H   UNK A   1      -8.669  12.897  69.610  1.00  0.00     0.000 HD 
BRANCH  11  14
HETATM   14  C   UNK A   1      -7.930  14.710  68.675  1.00  0.00    -0.141 C  
BRANCH  14  15
HETATM   15  C   UNK A   1      -6.852  15.235  69.645  1.00  0.00    -0.187 C  
ATOM     16  H   GLY A   2      -6.865  17.052  68.656  1.00  0.00     0.000 HD 
ATOM     17  N   GLY A   2      -6.462  16.540  69.440  1.00  0.00    -0.201 N  
HETATM   18  O   UNK A   1      -6.360  14.541  70.522  1.00  0.00    -0.187 OA 
BRANCH  17  19
ATOM     19  CA  GLY A   2      -5.501  17.217  70.293  1.00  0.00    -0.242 C  
ATOM     20  C   GLY A   2      -5.762  18.703  70.486  1.00  0.00    -0.154 C  
ATOM     21  O   GLY A   2      -6.440  19.310  69.467  1.00  0.00    -0.296 OA 
ATOM     22  OXT GLY A   2      -5.348  19.346  71.440  1.00  0.00    -0.279 OA 
ENDBRANCH  17  19
ENDBRANCH  14  15
BRANCH  14  23
HETATM   23  C   UNK A   1      -9.277  15.420  68.893  1.00  0.00    -0.216 C  
BRANCH  23  24
HETATM   24  S   UNK A   1     -10.644  14.375  69.487  1.00  0.00     0.021 SA 
BRANCH  24  25
HETATM   25  S   UNK A   1     -11.803  14.195  67.806  1.00  0.00    -0.365 SA 
BRANCH  25  26
HETATM   26  C   UNK A   1     -10.594  13.620  66.562  1.00  0.00    -0.282 C  
BRANCH  26  27
HETATM   27  C   UNK A   1     -10.946  13.950  65.100  1.00  0.00    -0.350 C  
BRANCH  27  28
HETATM   28  C   UNK A   1     -11.231  15.472  64.933  1.00  0.00    -0.389 C  
ATOM     29  H   GLY A   2      -9.909  15.959  66.475  1.00  0.00     0.000 HD 
ATOM     30  N   GLY A   2     -10.521  16.330  65.749  1.00  0.00    -0.363 N  
HETATM   31  O   UNK A   1     -11.951  15.916  64.040  1.00  0.00    -0.660 OA 
BRANCH  30  32
ATOM     32  CA  GLY A   2     -10.653  17.770  65.565  1.00  0.00    -0.041 C  
ATOM     33  OXT GLY A   2     -10.130  19.843  66.746  1.00  0.00    -0.397 OA 
ATOM     34  C   GLY A   2      -9.814  18.696  66.456  1.00  0.00    -0.364 C  
ATOM     35  O   GLY A   2      -8.580  18.233  66.735  1.00  0.00    -0.246 OA 
ENDBRANCH  30  32
ENDBRANCH  27  28
BRANCH  27  36
HETATM   36  N   UNK A   1     -10.096  13.278  64.091  1.00  0.00    -0.638 N  
HETATM   37  H   UNK A   1      -9.340  13.805  63.654  1.00  0.00     0.000 HD 
HETATM   38  O   UNK A   1     -11.083  11.220  64.290  1.00  0.00    -0.333 OA 
HETATM   39  C   UNK A   1     -10.293  11.968  63.723  1.00  0.00    -0.426 C  
BRANCH  39  40
HETATM   40  C   UNK A   1      -9.369  11.426  62.643  1.00  0.00    -0.247 C  
BRANCH  40  41
HETATM   41  C   UNK A   1      -9.360   9.899  62.439  1.00  0.00    -0.270 C  
BRANCH  41  42
HETATM   42  C   UNK A   1      -8.390   9.072  63.294  1.00  0.00    -0.189 C  
HETATM   43  N   UNK A   1      -8.952   8.744  64.631  1.00  0.00    -0.424 NA 
HETATM   44  C   UNK A   1      -7.112   9.858  63.524  1.00  0.00    -0.120 C  
HETATM   45  O   UNK A   1      -6.171  10.016  62.766  1.00  0.00    -0.111 OA 
HETATM   46  O   UNK A   1      -7.178  10.460  64.733  1.00  0.00    -0.121 OA 
HETATM   47  H2  UNK A   1      -9.856   8.279  64.546  1.00  0.00     0.000 HD 
HETATM   48  H1  UNK A   1      -8.307   8.195  65.199  1.00  0.00     0.000 HD 
ENDBRANCH  41  42
ENDBRANCH  40  41
ENDBRANCH  39  40
ENDBRANCH  27  36
ENDBRANCH  26  27
ENDBRANCH  25  26
ENDBRANCH  24  25
ENDBRANCH  23  24
ENDBRANCH  14  23
ENDBRANCH  11  14
ENDBRANCH   9  10
ENDBRANCH   8   9
ENDBRANCH   4   8
TORSDOF 17
ENDMDL
MODEL      101
REMARK 921   NORMALIZED FREE ENERGY PREDICTED BY IDOCK:   -5.05 KCAL/MOL
REMARK 922        TOTAL FREE ENERGY PREDICTED BY IDOCK:  -13.03 KCAL/MOL
REMARK 923 INTER-LIGAND FREE ENERGY PREDICTED BY IDOCK:  -10.51 KCAL/MOL
REMARK 924 INTRA-LIGAND FREE ENERGY PREDICTED BY IDOCK:   -2.52 KCAL/MOL
REMARK 927      BINDING AFFINITY PREDICTED BY RF-SCORE:    0.00 PKD
ROOT
HETATM    1  N   UNK A   1     -12.521  14.031  63.115  1.00  0.00    -1.070 NA 
HETATM    2  H1  UNK A   1     -12.755  14.862  62.572  1.00  0.00     0.000 HD 
HETATM    3  H2  UNK A   1     -13.120  13.248  62.852  1.00  0.00     0.000 HD 
HETATM    4  C   UNK A   1     -12.558  14.251  64.585  1.00  0.00    -0.255 C  
HETATM    5  O   UNK A   1     -11.146  15.661  66.019  1.00  0.00    -0.261 OA 
HETATM    6  C   UNK A   1     -11.652  15.447  64.928  1.00  0.00    -0.248 C  
HETATM    7  O   UNK A   1     -11.483  16.252  63.849  1.00  0.00    -0.940 OA 
ENDROOT
BRANCH   4   8
HETATM    8  C   UNK A   1     -12.206  13.004  65.399  1.00  0.00    -0.520 C  
BRANCH   8   9
HETATM    9  C   UNK A   1     -10.921  12.294  64.972  1.00  0.00    -0.344 C  
BRANCH   9  10
HETATM   10  C   UNK A   1      -9.961  12.226  66.137  1.00  0.00    -0.243 C  
HETATM   11  N   UNK A   1     -10.002  11.041  66.841  1.00  0.00    -0.191 N  
HETATM   12  O   UNK A   1      -9.239  13.169  66.448  1.00  0.00    -0.218 OA 
HETATM   13  H   UNK A   1     -10.662  10.311  66.577  1.00  0.00     0.000 HD 
BRANCH  11  14
HETATM   14  C   UNK A   1      -9.091  10.839  67.975  1.00  0.00    -0.150 C  
BRANCH  14  15
HETATM   15  C   UNK A   1      -8.272   9.556  67.728  1.00  0.00    -0.114 C  
ATOM     16  H   GLY A   2      -7.428  10.431  66.054  1.00  0.00     0.000 HD 
ATOM     17  N   GLY A   2      -7.429   9.596  66.639  1.00  0.00    -0.094 N  
HETATM   18  O   UNK A   1      -8.374   8.564  68.433  1.00  0.00    -0.121 OA 
BRANCH  17  19
ATOM     19  CA  GLY A   2      -6.542   8.501  66.291  1.00  0.00    -0.061 C  
ATOM     20  C   GLY A   2      -6.852   7.834  64.960  1.00  0.00    -0.051 C  
ATOM     21  O   GLY A   2      -8.155   7.919  64.558  1.00  0.00    -0.140 OA 
ATOM     22  OXT GLY A   2      -6.032   7.203  64.310  1.00  0.00    -0.036 OA 
ENDBRANCH  17  19
ENDBRANCH  14  15
BRANCH  14  23
HETATM   23  C   UNK A   1      -9.875  10.761  69.296  1.00  0.00    -0.138 C  
BRANCH  23  24
HETATM   24  S   UNK A   1     -11.650  11.156  69.195  1.00  0.00    -0.353 SA 
BRANCH  24  25
HETATM   25  S   UNK A   1     -12.425  10.020  70.715  1.00  0.00    -0.272 SA 
BRANCH  25  26
HETATM   26  C   UNK A   1     -10.966   9.072  71.273  1.00  0.00    -0.313 C  
BRANCH  26  27
HETATM   27  C   UNK A   1     -10.853   7.643  70.711  1.00  0.00    -0.239 C  
BRANCH  27  28
HETATM   28  C   UNK A   1     -11.564   6.625  71.652  1.00  0.00    -0.304 C  
ATOM     29  H   GLY A   2      -9.740   5.808  72.260  1.00  0.00     0.000 HD 
ATOM     30  N   GLY A   2     -10.751   5.796  72.398  1.00  0.00    -0.223 N  
HETATM   31  O   UNK A   1     -12.780   6.630  71.833  1.00  0.00    -0.345 OA 
BRANCH  30  32
ATOM     32  CA  GLY A   2     -11.347   4.902  73.383  1.00  0.00    -0.298 C  
ATOM     33  OXT GLY A   2     -11.457   2.515  73.890  1.00  0.00    -0.172 OA 
ATOM     34  C   GLY A   2     -10.804   3.469  73.485  1.00  0.00    -0.229 C  
ATOM     35  O   GLY A   2      -9.475   3.362  73.297  1.00  0.00    -0.102 OA 
ENDBRANCH  30  32
ENDBRANCH  27  28
BRANCH  27  36
HETATM   36  N   UNK A   1     -11.081   7.530  69.253  1.00  0.00    -0.442 N  
HETATM   37  H   UNK A   1     -11.557   8.290  68.768  1.00  0.00     0.000 HD 
HETATM   38  O   UNK A   1      -9.973   5.541  68.999  1.00  0.00    -0.152 OA 
HETATM   39  C   UNK A   1     -10.671   6.434  68.531  1.00  0.00    -0.288 C  
BRANCH  39  40
HETATM   40  C   UNK A   1     -11.012   6.439  67.048  1.00  0.00    -0.463 C  
BRANCH  40  41
HETATM   41  C   UNK A   1     -10.783   5.124  66.279  1.00  0.00    -0.272 C  
BRANCH  41  42
HETATM   42  C   UNK A   1      -9.404   4.903  65.641  1.00  0.00    -0.161 C  
HETATM   43  N   UNK A   1      -9.443   5.019  64.158  1.00  0.00    -0.339 NA 
HETATM   44  C   UNK A   1      -8.905   3.508  65.970  1.00  0.00    -0.129 C  
HETATM   45  O   UNK A   1      -8.395   3.108  67.001  1.00  0.00    -0.086 OA 
HETATM   46  O   UNK A   1      -9.177   2.688  64.930  1.00  0.00    -0.136 OA 
HETATM   47  H2  UNK A   1      -9.843   5.911  63.869  1.00  0.00     0.000 HD 
HETATM   48  H1  UNK A   1      -8.527   4.872  63.734  1.00  0.00     0.000 HD 
ENDBRANCH  41  42
ENDBRANCH  40  41
ENDBRANCH  39  40
ENDBRANCH  27  36
ENDBRANCH  26  27
ENDBRANCH  25  26
ENDBRANCH  24  25
ENDBRANCH  23  24
ENDBRANCH  14  23
ENDBRANCH  11  14
ENDBRANCH   9  10
ENDBRANCH   8   9
ENDBRANCH   4   8
TORSDOF 17
ENDMDL
MODEL      102
REMARK 921   NORMALIZED FREE ENERGY PREDICTED BY IDOCK:   -5.04 KCAL/MOL
REMARK 922        TOTAL FREE ENERGY PREDICTED BY IDOCK:  -13.02 KCAL/MOL
REMARK 923 INTER-LIGAND FREE ENERGY PREDICTED BY IDOCK:  -11.09 KCAL/MOL
REMARK 924 INTRA-LIGAND FREE ENERGY PREDICTED BY IDOCK:   -1.93 KCAL/MOL
REMARK 927      BINDING AFFINITY PREDICTED BY RF-SCORE:    0.00 PKD
ROOT
HETATM    1  N   UNK A   1     -11.501  13.250  70.030  1.00  0.00    -0.512 NA 
HETATM    2  H1  UNK A   1     -11.572  14.229  69.754  1.00  0.00     0.000 HD 
HETATM    3  H2  UNK A   1     -11.117  12.688  69.270  1.00  0.00     0.000 HD 
HETATM    4  C   UNK A   1     -12.783  12.674  70.516  1.00  0.00     0.010 C  
HETATM    5  O   UNK A   1     -14.112  13.206  72.512  1.00  0.00    -0.672 OA 
HETATM    6  C   UNK A   1     -13.327  13.563  71.648  1.00  0.00    -0.340 C  
HETATM    7  O   UNK A   1     -12.818  14.819  71.565  1.00  0.00    -0.298 OA 
ENDROOT
BRANCH   4   8
HETATM    8  C   UNK A   1     -12.676  11.205  70.930  1.00  0.00    -0.438 C  
BRANCH   8   9
HETATM    9  C   UNK A   1     -11.290  10.582  70.750  1.00  0.00    -0.295 C  
BRANCH   9  10
HETATM   10  C   UNK A   1     -11.408   9.077  70.707  1.00  0.00    -0.277 C  
HETATM   11  N   UNK A   1     -10.330   8.438  70.131  1.00  0.00    -0.206 N  
HETATM   12  O   UNK A   1     -12.402   8.483  71.115  1.00  0.00    -0.286 OA 
HETATM   13  H   UNK A   1      -9.553   8.981  69.754  1.00  0.00     0.000 HD 
BRANCH  11  14
HETATM   14  C   UNK A   1     -10.308   6.971  70.061  1.00  0.00    -0.202 C  
BRANCH  14  15
HETATM   15  C   UNK A   1     -10.055   6.413  71.477  1.00  0.00    -0.192 C  
ATOM     16  H   GLY A   2     -11.787   5.291  71.331  1.00  0.00     0.000 HD 
ATOM     17  N   GLY A   2     -10.986   5.503  71.925  1.00  0.00    -0.230 N  
HETATM   18  O   UNK A   1      -9.108   6.765  72.164  1.00  0.00    -0.138 OA 
BRANCH  17  19
ATOM     19  CA  GLY A   2     -10.877   4.833  73.209  1.00  0.00    -0.281 C  
ATOM     20  C   GLY A   2     -10.121   3.514  73.173  1.00  0.00    -0.144 C  
ATOM     21  O   GLY A   2     -10.146   2.864  71.971  1.00  0.00    -0.168 OA 
ATOM     22  OXT GLY A   2      -9.579   3.016  74.148  1.00  0.00    -0.087 OA 
ENDBRANCH  17  19
ENDBRANCH  14  15
BRANCH  14  23
HETATM   23  C   UNK A   1      -9.237   6.490  69.067  1.00  0.00    -0.130 C  
BRANCH  23  24
HETATM   24  S   UNK A   1      -7.719   7.493  68.981  1.00  0.00    -0.120 SA 
BRANCH  24  25
HETATM   25  S   UNK A   1      -7.860   8.317  67.109  1.00  0.00    -0.097 SA 
BRANCH  25  26
HETATM   26  C   UNK A   1      -8.303  10.050  67.482  1.00  0.00    -0.118 C  
BRANCH  26  27
HETATM   27  C   UNK A   1      -8.345  10.996  66.268  1.00  0.00    -0.166 C  
BRANCH  27  28
HETATM   28  C   UNK A   1      -9.679  10.822  65.482  1.00  0.00    -0.239 C  
ATOM     29  H   GLY A   2      -9.123  12.269  64.082  1.00  0.00     0.000 HD 
ATOM     30  N   GLY A   2      -9.828  11.577  64.335  1.00  0.00    -0.245 N  
HETATM   31  O   UNK A   1     -10.513   9.969  65.778  1.00  0.00    -0.169 OA 
BRANCH  30  32
ATOM     32  CA  GLY A   2     -10.999  11.377  63.491  1.00  0.00    -0.324 C  
ATOM     33  OXT GLY A   2     -13.366  11.976  63.437  1.00  0.00    -0.601 OA 
ATOM     34  C   GLY A   2     -12.213  12.290  63.707  1.00  0.00    -0.546 C  
ATOM     35  O   GLY A   2     -11.905  13.563  64.022  1.00  0.00    -0.422 OA 
ENDBRANCH  30  32
ENDBRANCH  27  28
BRANCH  27  36
HETATM   36  N   UNK A   1      -7.859  12.368  66.534  1.00  0.00    -0.367 N  
HETATM   37  H   UNK A   1      -6.992  12.678  66.096  1.00  0.00     0.000 HD 
HETATM   38  O   UNK A   1      -9.654  13.007  67.807  1.00  0.00    -0.195 OA 
HETATM   39  C   UNK A   1      -8.539  13.240  67.352  1.00  0.00    -0.204 C  
BRANCH  39  40
HETATM   40  C   UNK A   1      -7.897  14.602  67.566  1.00  0.00    -0.212 C  
BRANCH  40  41
HETATM   41  C   UNK A   1      -8.472  15.777  66.752  1.00  0.00    -0.304 C  
BRANCH  41  42
HETATM   42  C   UNK A   1      -9.997  15.845  66.579  1.00  0.00    -0.272 C  
HETATM   43  N   UNK A   1     -10.392  16.381  65.250  1.00  0.00    -0.618 NA 
HETATM   44  C   UNK A   1     -10.591  16.764  67.630  1.00  0.00    -0.325 C  
HETATM   45  O   UNK A   1     -10.822  16.528  68.802  1.00  0.00    -0.308 OA 
HETATM   46  O   UNK A   1     -10.783  17.987  67.086  1.00  0.00    -0.356 OA 
HETATM   47  H2  UNK A   1      -9.959  15.849  64.495  1.00  0.00     0.000 HD 
HETATM   48  H1  UNK A   1     -11.404  16.427  65.135  1.00  0.00     0.000 HD 
ENDBRANCH  41  42
ENDBRANCH  40  41
ENDBRANCH  39  40
ENDBRANCH  27  36
ENDBRANCH  26  27
ENDBRANCH  25  26
ENDBRANCH  24  25
ENDBRANCH  23  24
ENDBRANCH  14  23
ENDBRANCH  11  14
ENDBRANCH   9  10
ENDBRANCH   8   9
ENDBRANCH   4   8
TORSDOF 17
ENDMDL
MODEL      103
REMARK 921   NORMALIZED FREE ENERGY PREDICTED BY IDOCK:   -5.04 KCAL/MOL
REMARK 922        TOTAL FREE ENERGY PREDICTED BY IDOCK:  -13.02 KCAL/MOL
REMARK 923 INTER-LIGAND FREE ENERGY PREDICTED BY IDOCK:  -10.87 KCAL/MOL
REMARK 924 INTRA-LIGAND FREE ENERGY PREDICTED BY IDOCK:   -2.14 KCAL/MOL
REMARK 927      BINDING AFFINITY PREDICTED BY RF-SCORE:    0.00 PKD
ROOT
HETATM    1  N   UNK A   1      -8.553  20.325  65.417  1.00  0.00    -0.347 NA 
HETATM    2  H1  UNK A   1      -7.831  20.680  64.791  1.00  0.00     0.000 HD 
HETATM    3  H2  UNK A   1      -9.341  20.971  65.463  1.00  0.00     0.000 HD 
HETATM    4  C   UNK A   1      -8.052  20.006  66.781  1.00  0.00    -0.317 C  
HETATM    5  O   UNK A   1      -6.466  18.289  67.534  1.00  0.00    -0.185 OA 
HETATM    6  C   UNK A   1      -6.860  19.042  66.658  1.00  0.00    -0.196 C  
HETATM    7  O   UNK A   1      -6.286  19.135  65.431  1.00  0.00    -0.237 OA 
ENDROOT
BRANCH   4   8
HETATM    8  C   UNK A   1      -9.136  19.473  67.721  1.00  0.00    -0.384 C  
BRANCH   8   9
HETATM    9  C   UNK A   1     -10.506  19.260  67.074  1.00  0.00    -0.556 C  
BRANCH   9  10
HETATM   10  C   UNK A   1     -10.660  17.814  66.665  1.00  0.00    -0.223 C  
HETATM   11  N   UNK A   1     -10.616  16.918  67.713  1.00  0.00    -0.340 N  
HETATM   12  O   UNK A   1     -10.773  17.471  65.492  1.00  0.00    -0.551 OA 
HETATM   13  H   UNK A   1     -10.462  17.249  68.665  1.00  0.00     0.000 HD 
BRANCH  11  14
HETATM   14  C   UNK A   1     -10.790  15.484  67.449  1.00  0.00    -0.312 C  
BRANCH  14  15
HETATM   15  C   UNK A   1     -11.117  14.772  68.777  1.00  0.00    -0.265 C  
ATOM     16  H   GLY A   2     -11.978  13.217  67.719  1.00  0.00     0.000 HD 
ATOM     17  N   GLY A   2     -11.739  13.550  68.652  1.00  0.00    -0.332 N  
HETATM   18  O   UNK A   1     -10.863  15.263  69.867  1.00  0.00    -0.249 OA 
BRANCH  17  19
ATOM     19  CA  GLY A   2     -12.068  12.715  69.794  1.00  0.00    -0.233 C  
ATOM     20  C   GLY A   2     -11.894  11.223  69.559  1.00  0.00    -0.357 C  
ATOM     21  O   GLY A   2     -12.016  10.822  68.259  1.00  0.00    -0.520 OA 
ATOM     22  OXT GLY A   2     -11.722  10.410  70.456  1.00  0.00    -0.291 OA 
ENDBRANCH  17  19
ENDBRANCH  14  15
BRANCH  14  23
HETATM   23  C   UNK A   1      -9.530  14.895  66.791  1.00  0.00    -0.252 C  
BRANCH  23  24
HETATM   24  S   UNK A   1      -7.983  15.062  67.737  1.00  0.00    -0.157 SA 
BRANCH  24  25
HETATM   25  S   UNK A   1      -7.765  13.185  68.531  1.00  0.00    -0.084 SA 
BRANCH  25  26
HETATM   26  C   UNK A   1      -7.507  12.162  67.038  1.00  0.00    -0.086 C  
BRANCH  26  27
HETATM   27  C   UNK A   1      -8.476  10.977  66.875  1.00  0.00    -0.139 C  
BRANCH  27  28
HETATM   28  C   UNK A   1      -9.206  11.050  65.501  1.00  0.00    -0.213 C  
ATOM     29  H   GLY A   2     -10.737  12.227  66.298  1.00  0.00     0.000 HD 
ATOM     30  N   GLY A   2     -10.357  11.812  65.448  1.00  0.00    -0.257 N  
HETATM   31  O   UNK A   1      -8.732  10.568  64.473  1.00  0.00    -0.183 OA 
BRANCH  30  32
ATOM     32  CA  GLY A   2     -11.024  12.017  64.168  1.00  0.00    -0.360 C  
ATOM     33  OXT GLY A   2     -13.283  12.034  63.240  1.00  0.00    -0.628 OA 
ATOM     34  C   GLY A   2     -12.534  12.294  64.173  1.00  0.00    -0.434 C  
ATOM     35  O   GLY A   2     -12.958  13.049  65.205  1.00  0.00    -0.729 OA 
ENDBRANCH  30  32
ENDBRANCH  27  28
BRANCH  27  36
HETATM   36  N   UNK A   1      -7.940   9.671  67.317  1.00  0.00    -0.106 N  
HETATM   37  H   UNK A   1      -7.420   9.100  66.652  1.00  0.00     0.000 HD 
HETATM   38  O   UNK A   1      -8.610   9.873  69.499  1.00  0.00    -0.155 OA 
HETATM   39  C   UNK A   1      -8.121   9.201  68.597  1.00  0.00    -0.102 C  
BRANCH  39  40
HETATM   40  C   UNK A   1      -7.550   7.823  68.895  1.00  0.00    -0.101 C  
BRANCH  40  41
HETATM   41  C   UNK A   1      -7.222   7.511  70.368  1.00  0.00    -0.064 C  
BRANCH  41  42
HETATM   42  C   UNK A   1      -8.383   7.095  71.283  1.00  0.00    -0.113 C  
HETATM   43  N   UNK A   1      -9.698   7.163  70.593  1.00  0.00    -0.176 NA 
HETATM   44  C   UNK A   1      -8.452   8.029  72.478  1.00  0.00    -0.162 C  
HETATM   45  O   UNK A   1      -7.770   8.023  73.487  1.00  0.00    -0.143 OA 
HETATM   46  O   UNK A   1      -9.385   8.978  72.239  1.00  0.00    -0.333 OA 
HETATM   47  H2  UNK A   1      -9.692   6.613  69.735  1.00  0.00     0.000 HD 
HETATM   48  H1  UNK A   1     -10.470   6.887  71.201  1.00  0.00     0.000 HD 
ENDBRANCH  41  42
ENDBRANCH  40  41
ENDBRANCH  39  40
ENDBRANCH  27  36
ENDBRANCH  26  27
ENDBRANCH  25  26
ENDBRANCH  24  25
ENDBRANCH  23  24
ENDBRANCH  14  23
ENDBRANCH  11  14
ENDBRANCH   9  10
ENDBRANCH   8   9
ENDBRANCH   4   8
TORSDOF 17
ENDMDL
MODEL      104
REMARK 921   NORMALIZED FREE ENERGY PREDICTED BY IDOCK:   -5.03 KCAL/MOL
REMARK 922        TOTAL FREE ENERGY PREDICTED BY IDOCK:  -13.00 KCAL/MOL
REMARK 923 INTER-LIGAND FREE ENERGY PREDICTED BY IDOCK:  -10.92 KCAL/MOL
REMARK 924 INTRA-LIGAND FREE ENERGY PREDICTED BY IDOCK:   -2.07 KCAL/MOL
REMARK 927      BINDING AFFINITY PREDICTED BY RF-SCORE:    0.00 PKD
ROOT
HETATM    1  N   UNK A   1     -12.162   6.723  72.319  1.00  0.00    -0.509 NA 
HETATM    2  H1  UNK A   1     -11.943   5.990  72.995  1.00  0.00     0.000 HD 
HETATM    3  H2  UNK A   1     -12.806   6.377  71.608  1.00  0.00     0.000 HD 
HETATM    4  C   UNK A   1     -10.959   7.330  71.689  1.00  0.00    -0.226 C  
HETATM    5  O   UNK A   1      -9.161   8.686  72.671  1.00  0.00    -0.324 OA 
HETATM    6  C   UNK A   1     -10.015   7.822  72.800  1.00  0.00    -0.260 C  
HETATM    7  O   UNK A   1     -10.250   7.165  73.964  1.00  0.00    -0.342 OA 
ENDROOT
BRANCH   4   8
HETATM    8  C   UNK A   1     -11.288   8.429  70.677  1.00  0.00    -0.262 C  
BRANCH   8   9
HETATM    9  C   UNK A   1     -10.541   8.326  69.346  1.00  0.00    -0.203 C  
BRANCH   9  10
HETATM   10  C   UNK A   1      -9.830   9.627  69.055  1.00  0.00    -0.182 C  
HETATM   11  N   UNK A   1      -9.163   9.654  67.849  1.00  0.00    -0.125 N  
HETATM   12  O   UNK A   1      -9.819  10.561  69.851  1.00  0.00    -0.107 OA 
HETATM   13  H   UNK A   1      -9.155   8.830  67.248  1.00  0.00     0.000 HD 
BRANCH  11  14
HETATM   14  C   UNK A   1      -8.462  10.877  67.435  1.00  0.00    -0.120 C  
BRANCH  14  15
HETATM   15  C   UNK A   1      -7.230  11.072  68.341  1.00  0.00    -0.085 C  
ATOM     16  H   GLY A   2      -7.678  13.086  68.496  1.00  0.00     0.000 HD 
ATOM     17  N   GLY A   2      -7.039  12.355  68.805  1.00  0.00    -0.100 N  
HETATM   18  O   UNK A   1      -6.463  10.162  68.615  1.00  0.00    -0.052 OA 
BRANCH  17  19
ATOM     19  CA  GLY A   2      -5.964  12.710  69.716  1.00  0.00    -0.129 C  
ATOM     20  C   GLY A   2      -6.230  13.947  70.558  1.00  0.00    -0.087 C  
ATOM     21  O   GLY A   2      -7.092  14.852  70.005  1.00  0.00    -0.176 OA 
ATOM     22  OXT GLY A   2      -5.676  14.175  71.623  1.00  0.00    -0.221 OA 
ENDBRANCH  17  19
ENDBRANCH  14  15
BRANCH  14  23
HETATM   23  C   UNK A   1      -9.405  12.092  67.498  1.00  0.00    -0.179 C  
BRANCH  23  24
HETATM   24  S   UNK A   1     -10.199  12.568  65.931  1.00  0.00    -0.264 SA 
BRANCH  24  25
HETATM   25  S   UNK A   1      -9.800  14.577  65.846  1.00  0.00    -0.303 SA 
BRANCH  25  26
HETATM   26  C   UNK A   1      -9.706  15.028  67.615  1.00  0.00    -0.215 C  
BRANCH  26  27
HETATM   27  C   UNK A   1     -10.884  15.864  68.146  1.00  0.00    -0.317 C  
BRANCH  27  28
HETATM   28  C   UNK A   1     -11.751  15.026  69.133  1.00  0.00    -0.319 C  
ATOM     29  H   GLY A   2     -11.995  16.658  70.414  1.00  0.00     0.000 HD 
ATOM     30  N   GLY A   2     -12.258  15.689  70.232  1.00  0.00    -0.396 N  
HETATM   31  O   UNK A   1     -12.086  13.866  68.897  1.00  0.00    -0.351 OA 
BRANCH  30  32
ATOM     32  CA  GLY A   2     -13.171  14.995  71.132  1.00  0.00    -0.434 C  
ATOM     33  OXT GLY A   2     -13.135  13.866  73.298  1.00  0.00    -0.501 OA 
ATOM     34  C   GLY A   2     -12.732  14.779  72.587  1.00  0.00    -0.384 C  
ATOM     35  O   GLY A   2     -12.023  15.796  73.112  1.00  0.00    -0.440 OA 
ENDBRANCH  30  32
ENDBRANCH  27  28
BRANCH  27  36
HETATM   36  N   UNK A   1     -10.540  17.254  68.519  1.00  0.00    -0.362 N  
HETATM   37  H   UNK A   1     -10.356  17.471  69.498  1.00  0.00     0.000 HD 
HETATM   38  O   UNK A   1     -10.529  18.071  66.378  1.00  0.00    -0.375 OA 
HETATM   39  C   UNK A   1     -10.461  18.263  67.588  1.00  0.00    -0.411 C  
BRANCH  39  40
HETATM   40  C   UNK A   1     -10.139  19.650  68.124  1.00  0.00    -0.556 C  
BRANCH  40  41
HETATM   41  C   UNK A   1      -8.842  19.794  68.942  1.00  0.00    -0.154 C  
BRANCH  41  42
HETATM   42  C   UNK A   1      -7.556  19.198  68.350  1.00  0.00    -0.312 C  
HETATM   43  N   UNK A   1      -7.303  17.812  68.829  1.00  0.00    -0.271 NA 
HETATM   44  C   UNK A   1      -6.364  20.041  68.762  1.00  0.00    -0.300 C  
HETATM   45  O   UNK A   1      -5.984  21.099  68.294  1.00  0.00    -0.334 OA 
HETATM   46  O   UNK A   1      -5.770  19.468  69.833  1.00  0.00    -0.234 OA 
HETATM   47  H2  UNK A   1      -8.105  17.209  68.649  1.00  0.00     0.000 HD 
HETATM   48  H1  UNK A   1      -6.449  17.416  68.435  1.00  0.00     0.000 HD 
ENDBRANCH  41  42
ENDBRANCH  40  41
ENDBRANCH  39  40
ENDBRANCH  27  36
ENDBRANCH  26  27
ENDBRANCH  25  26
ENDBRANCH  24  25
ENDBRANCH  23  24
ENDBRANCH  14  23
ENDBRANCH  11  14
ENDBRANCH   9  10
ENDBRANCH   8   9
ENDBRANCH   4   8
TORSDOF 17
ENDMDL
MODEL      105
REMARK 921   NORMALIZED FREE ENERGY PREDICTED BY IDOCK:   -5.02 KCAL/MOL
REMARK 922        TOTAL FREE ENERGY PREDICTED BY IDOCK:  -12.99 KCAL/MOL
REMARK 923 INTER-LIGAND FREE ENERGY PREDICTED BY IDOCK:  -10.81 KCAL/MOL
REMARK 924 INTRA-LIGAND FREE ENERGY PREDICTED BY IDOCK:   -2.18 KCAL/MOL
REMARK 927      BINDING AFFINITY PREDICTED BY RF-SCORE:    0.00 PKD
ROOT
HETATM    1  N   UNK A   1      -7.564   4.420  67.737  1.00  0.00    -0.076 NA 
HETATM    2  H1  UNK A   1      -8.034   3.797  68.393  1.00  0.00     0.000 HD 
HETATM    3  H2  UNK A   1      -6.952   5.070  68.232  1.00  0.00     0.000 HD 
HETATM    4  C   UNK A   1      -8.497   5.153  66.840  1.00  0.00    -0.106 C  
HETATM    5  O   UNK A   1      -9.992   4.322  65.077  1.00  0.00    -0.188 OA 
HETATM    6  C   UNK A   1      -9.404   4.133  66.130  1.00  0.00    -0.166 C  
HETATM    7  O   UNK A   1      -9.473   2.974  66.833  1.00  0.00    -0.150 OA 
ENDROOT
BRANCH   4   8
HETATM    8  C   UNK A   1      -7.791   6.087  65.855  1.00  0.00    -0.106 C  
BRANCH   8   9
HETATM    9  C   UNK A   1      -8.279   7.537  65.876  1.00  0.00    -0.134 C  
BRANCH   9  10
HETATM   10  C   UNK A   1      -8.105   8.117  67.260  1.00  0.00    -0.121 C  
HETATM   11  N   UNK A   1      -9.280   8.508  67.866  1.00  0.00    -0.139 N  
HETATM   12  O   UNK A   1      -7.001   8.262  67.776  1.00  0.00    -0.075 OA 
HETATM   13  H   UNK A   1     -10.167   8.418  67.371  1.00  0.00     0.000 HD 
BRANCH  11  14
HETATM   14  C   UNK A   1      -9.247   9.054  69.229  1.00  0.00    -0.145 C  
BRANCH  14  15
HETATM   15  C   UNK A   1     -10.373   8.397  70.053  1.00  0.00    -0.211 C  
ATOM     16  H   GLY A   2     -10.109   9.824  71.528  1.00  0.00     0.000 HD 
ATOM     17  N   GLY A   2     -10.666   9.017  71.247  1.00  0.00    -0.281 N  
HETATM   18  O   UNK A   1     -10.954   7.388  69.686  1.00  0.00    -0.238 OA 
BRANCH  17  19
ATOM     19  CA  GLY A   2     -11.735   8.571  72.124  1.00  0.00    -0.378 C  
ATOM     20  C   GLY A   2     -12.999   9.413  72.061  1.00  0.00    -0.423 C  
ATOM     21  O   GLY A   2     -12.812  10.714  71.685  1.00  0.00    -0.414 OA 
ATOM     22  OXT GLY A   2     -14.104   9.003  72.381  1.00  0.00    -0.469 OA 
ENDBRANCH  17  19
ENDBRANCH  14  15
BRANCH  14  23
HETATM   23  C   UNK A   1      -9.388  10.586  69.204  1.00  0.00    -0.187 C  
BRANCH  23  24
HETATM   24  S   UNK A   1      -7.839  11.527  69.033  1.00  0.00     0.068 SA 
BRANCH  24  25
HETATM   25  S   UNK A   1      -8.182  12.603  67.322  1.00  0.00    -0.167 SA 
BRANCH  25  26
HETATM   26  C   UNK A   1      -8.339  14.308  67.962  1.00  0.00    -0.157 C  
BRANCH  26  27
HETATM   27  C   UNK A   1      -8.574  15.394  66.896  1.00  0.00    -0.259 C  
BRANCH  27  28
HETATM   28  C   UNK A   1      -9.861  15.087  66.074  1.00  0.00    -0.319 C  
ATOM     29  H   GLY A   2     -10.640  13.900  67.606  1.00  0.00     0.000 HD 
ATOM     30  N   GLY A   2     -10.822  14.311  66.691  1.00  0.00    -0.298 N  
HETATM   31  O   UNK A   1     -10.087  15.605  64.981  1.00  0.00    -0.398 OA 
BRANCH  30  32
ATOM     32  CA  GLY A   2     -12.098  14.083  66.024  1.00  0.00    -0.439 C  
ATOM     33  OXT GLY A   2     -13.116  12.503  64.465  1.00  0.00    -0.816 OA 
ATOM     34  C   GLY A   2     -12.357  12.702  65.406  1.00  0.00    -0.436 C  
ATOM     35  O   GLY A   2     -11.850  11.673  66.110  1.00  0.00    -0.409 OA 
ENDBRANCH  30  32
ENDBRANCH  27  28
BRANCH  27  36
HETATM   36  N   UNK A   1      -8.350  16.780  67.362  1.00  0.00    -0.178 N  
HETATM   37  H   UNK A   1      -8.967  17.165  68.078  1.00  0.00     0.000 HD 
HETATM   38  O   UNK A   1      -6.469  17.147  66.108  1.00  0.00    -0.192 OA 
HETATM   39  C   UNK A   1      -7.339  17.567  66.863  1.00  0.00    -0.205 C  
BRANCH  39  40
HETATM   40  C   UNK A   1      -7.259  18.985  67.407  1.00  0.00    -0.228 C  
BRANCH  40  41
HETATM   41  C   UNK A   1      -8.190  20.029  66.763  1.00  0.00    -0.362 C  
BRANCH  41  42
HETATM   42  C   UNK A   1      -9.600  20.186  67.351  1.00  0.00    -0.417 C  
HETATM   43  N   UNK A   1      -9.710  19.607  68.717  1.00  0.00    -0.414 NA 
HETATM   44  C   UNK A   1     -10.605  19.462  66.474  1.00  0.00    -0.458 C  
HETATM   45  O   UNK A   1     -11.098  19.829  65.422  1.00  0.00    -0.389 OA 
HETATM   46  O   UNK A   1     -10.852  18.243  67.004  1.00  0.00    -0.329 OA 
HETATM   47  H2  UNK A   1      -9.005  20.000  69.341  1.00  0.00     0.000 HD 
HETATM   48  H1  UNK A   1     -10.646  19.711  69.108  1.00  0.00     0.000 HD 
ENDBRANCH  41  42
ENDBRANCH  40  41
ENDBRANCH  39  40
ENDBRANCH  27  36
ENDBRANCH  26  27
ENDBRANCH  25  26
ENDBRANCH  24  25
ENDBRANCH  23  24
ENDBRANCH  14  23
ENDBRANCH  11  14
ENDBRANCH   9  10
ENDBRANCH   8   9
ENDBRANCH   4   8
TORSDOF 17
ENDMDL
MODEL      106
REMARK 921   NORMALIZED FREE ENERGY PREDICTED BY IDOCK:   -5.00 KCAL/MOL
REMARK 922        TOTAL FREE ENERGY PREDICTED BY IDOCK:  -12.93 KCAL/MOL
REMARK 923 INTER-LIGAND FREE ENERGY PREDICTED BY IDOCK:  -10.48 KCAL/MOL
REMARK 924 INTRA-LIGAND FREE ENERGY PREDICTED BY IDOCK:   -2.45 KCAL/MOL
REMARK 927      BINDING AFFINITY PREDICTED BY RF-SCORE:    0.00 PKD
ROOT
HETATM    1  N   UNK A   1      -8.170   5.981  66.496  1.00  0.00    -0.106 NA 
HETATM    2  H1  UNK A   1      -8.565   5.048  66.619  1.00  0.00     0.000 HD 
HETATM    3  H2  UNK A   1      -8.678   6.664  67.058  1.00  0.00     0.000 HD 
HETATM    4  C   UNK A   1      -8.101   6.415  65.075  1.00  0.00    -0.135 C  
HETATM    5  O   UNK A   1      -6.770   5.537  63.206  1.00  0.00    -0.031 OA 
HETATM    6  C   UNK A   1      -7.340   5.348  64.269  1.00  0.00    -0.057 C  
HETATM    7  O   UNK A   1      -7.384   4.145  64.895  1.00  0.00    -0.069 OA 
ENDROOT
BRANCH   4   8
HETATM    8  C   UNK A   1      -7.508   7.814  64.892  1.00  0.00    -0.094 C  
BRANCH   8   9
HETATM    9  C   UNK A   1      -8.518   8.900  64.517  1.00  0.00    -0.178 C  
BRANCH   9  10
HETATM   10  C   UNK A   1      -9.362   9.252  65.719  1.00  0.00    -0.244 C  
HETATM   11  N   UNK A   1      -9.105  10.498  66.250  1.00  0.00    -0.160 N  
HETATM   12  O   UNK A   1     -10.176   8.469  66.201  1.00  0.00    -0.173 OA 
HETATM   13  H   UNK A   1      -8.378  11.087  65.847  1.00  0.00     0.000 HD 
BRANCH  11  14
HETATM   14  C   UNK A   1      -9.887  10.971  67.401  1.00  0.00    -0.173 C  
BRANCH  14  15
HETATM   15  C   UNK A   1     -10.816  12.110  66.933  1.00  0.00    -0.250 C  
ATOM     16  H   GLY A   2      -9.304  12.826  65.716  1.00  0.00     0.000 HD 
ATOM     17  N   GLY A   2     -10.273  12.966  66.000  1.00  0.00    -0.279 N  
HETATM   18  O   UNK A   1     -11.947  12.259  67.369  1.00  0.00    -0.530 OA 
BRANCH  17  19
ATOM     19  CA  GLY A   2     -11.022  14.059  65.405  1.00  0.00    -0.321 C  
ATOM     20  C   GLY A   2     -11.722  13.711  64.102  1.00  0.00    -0.386 C  
ATOM     21  O   GLY A   2     -11.145  12.701  63.384  1.00  0.00    -0.450 OA 
ATOM     22  OXT GLY A   2     -12.691  14.318  63.669  1.00  0.00    -0.783 OA 
ENDBRANCH  17  19
ENDBRANCH  14  15
BRANCH  14  23
HETATM   23  C   UNK A   1      -8.957  11.434  68.536  1.00  0.00    -0.158 C  
BRANCH  23  24
HETATM   24  S   UNK A   1      -7.299  10.684  68.565  1.00  0.00    -0.096 SA 
BRANCH  24  25
HETATM   25  S   UNK A   1      -7.722   8.736  69.045  1.00  0.00    -0.092 SA 
BRANCH  25  26
HETATM   26  C   UNK A   1      -9.118   8.920  70.210  1.00  0.00    -0.181 C  
BRANCH  26  27
HETATM   27  C   UNK A   1     -10.455   8.319  69.738  1.00  0.00    -0.220 C  
BRANCH  27  28
HETATM   28  C   UNK A   1     -10.528   6.802  70.087  1.00  0.00    -0.209 C  
ATOM     29  H   GLY A   2      -8.937   6.963  71.430  1.00  0.00     0.000 HD 
ATOM     30  N   GLY A   2      -9.648   6.341  71.045  1.00  0.00    -0.175 N  
HETATM   31  O   UNK A   1     -11.403   6.063  69.638  1.00  0.00    -0.411 OA 
BRANCH  30  32
ATOM     32  CA  GLY A   2      -9.742   4.960  71.502  1.00  0.00    -0.172 C  
ATOM     33  OXT GLY A   2      -9.799   3.702  73.594  1.00  0.00    -0.108 OA 
ATOM     34  C   GLY A   2     -10.119   4.705  72.968  1.00  0.00    -0.162 C  
ATOM     35  O   GLY A   2     -11.019   5.571  73.471  1.00  0.00    -0.284 OA 
ENDBRANCH  30  32
ENDBRANCH  27  28
BRANCH  27  36
HETATM   36  N   UNK A   1     -11.642   9.160  70.004  1.00  0.00    -0.458 N  
HETATM   37  H   UNK A   1     -12.048   9.696  69.238  1.00  0.00     0.000 HD 
HETATM   38  O   UNK A   1     -11.882   8.534  72.195  1.00  0.00    -0.333 OA 
HETATM   39  C   UNK A   1     -12.215   9.244  71.252  1.00  0.00    -0.334 C  
BRANCH  39  40
HETATM   40  C   UNK A   1     -13.404  10.183  71.384  1.00  0.00    -0.413 C  
BRANCH  40  41
HETATM   41  C   UNK A   1     -13.135  11.559  72.023  1.00  0.00    -0.430 C  
BRANCH  41  42
HETATM   42  C   UNK A   1     -13.078  12.778  71.092  1.00  0.00    -0.071 C  
HETATM   43  N   UNK A   1     -11.750  12.930  70.440  1.00  0.00    -0.546 NA 
HETATM   44  C   UNK A   1     -13.336  14.044  71.889  1.00  0.00    -0.406 C  
HETATM   45  O   UNK A   1     -14.400  14.496  72.272  1.00  0.00    -0.485 OA 
HETATM   46  O   UNK A   1     -12.151  14.614  72.203  1.00  0.00    -0.321 OA 
HETATM   47  H2  UNK A   1     -11.482  12.079  69.948  1.00  0.00     0.000 HD 
HETATM   48  H1  UNK A   1     -11.712  13.741  69.822  1.00  0.00     0.000 HD 
ENDBRANCH  41  42
ENDBRANCH  40  41
ENDBRANCH  39  40
ENDBRANCH  27  36
ENDBRANCH  26  27
ENDBRANCH  25  26
ENDBRANCH  24  25
ENDBRANCH  23  24
ENDBRANCH  14  23
ENDBRANCH  11  14
ENDBRANCH   9  10
ENDBRANCH   8   9
ENDBRANCH   4   8
TORSDOF 17
ENDMDL
MODEL      107
REMARK 921   NORMALIZED FREE ENERGY PREDICTED BY IDOCK:   -4.99 KCAL/MOL
REMARK 922        TOTAL FREE ENERGY PREDICTED BY IDOCK:  -12.93 KCAL/MOL
REMARK 923 INTER-LIGAND FREE ENERGY PREDICTED BY IDOCK:  -10.88 KCAL/MOL
REMARK 924 INTRA-LIGAND FREE ENERGY PREDICTED BY IDOCK:   -2.05 KCAL/MOL
REMARK 927      BINDING AFFINITY PREDICTED BY RF-SCORE:    0.00 PKD
ROOT
HETATM    1  N   UNK A   1     -11.191   4.347  65.167  1.00  0.00    -1.040 NA 
HETATM    2  H1  UNK A   1     -11.146   3.517  64.576  1.00  0.00     0.000 HD 
HETATM    3  H2  UNK A   1     -11.824   5.041  64.768  1.00  0.00     0.000 HD 
HETATM    4  C   UNK A   1      -9.860   4.949  65.450  1.00  0.00    -0.048 C  
HETATM    5  O   UNK A   1      -7.954   4.069  66.724  1.00  0.00    -0.095 OA 
HETATM    6  C   UNK A   1      -8.941   3.864  66.037  1.00  0.00    -0.133 C  
HETATM    7  O   UNK A   1      -9.370   2.624  65.687  1.00  0.00    -0.122 OA 
ENDROOT
BRANCH   4   8
HETATM    8  C   UNK A   1      -9.929   6.194  66.337  1.00  0.00    -0.130 C  
BRANCH   8   9
HETATM    9  C   UNK A   1     -10.930   6.111  67.491  1.00  0.00    -0.404 C  
BRANCH   9  10
HETATM   10  C   UNK A   1     -10.191   6.066  68.808  1.00  0.00    -0.188 C  
HETATM   11  N   UNK A   1      -9.585   7.253  69.163  1.00  0.00    -0.155 N  
HETATM   12  O   UNK A   1     -10.107   5.041  69.479  1.00  0.00    -0.212 OA 
HETATM   13  H   UNK A   1      -9.636   8.060  68.542  1.00  0.00     0.000 HD 
BRANCH  11  14
HETATM   14  C   UNK A   1      -8.865   7.347  70.440  1.00  0.00    -0.149 C  
BRANCH  14  15
HETATM   15  C   UNK A   1      -9.705   8.191  71.420  1.00  0.00    -0.171 C  
ATOM     16  H   GLY A   2     -11.370   7.895  70.227  1.00  0.00     0.000 HD 
ATOM     17  N   GLY A   2     -11.038   8.318  71.093  1.00  0.00    -0.243 N  
HETATM   18  O   UNK A   1      -9.225   8.728  72.406  1.00  0.00    -0.361 OA 
BRANCH  17  19
ATOM     19  CA  GLY A   2     -11.989   9.028  71.931  1.00  0.00    -0.375 C  
ATOM     20  C   GLY A   2     -12.446  10.367  71.375  1.00  0.00    -0.415 C  
ATOM     21  O   GLY A   2     -11.559  10.981  70.537  1.00  0.00    -0.314 OA 
ATOM     22  OXT GLY A   2     -13.495  10.909  71.690  1.00  0.00    -0.276 OA 
ENDBRANCH  17  19
ENDBRANCH  14  15
BRANCH  14  23
HETATM   23  C   UNK A   1      -7.467   7.954  70.232  1.00  0.00    -0.077 C  
BRANCH  23  24
HETATM   24  S   UNK A   1      -6.787   7.833  68.547  1.00  0.00    -0.068 SA 
BRANCH  24  25
HETATM   25  S   UNK A   1      -6.678   9.803  67.990  1.00  0.00    -0.061 SA 
BRANCH  25  26
HETATM   26  C   UNK A   1      -8.378  10.134  67.406  1.00  0.00    -0.118 C  
BRANCH  26  27
HETATM   27  C   UNK A   1      -8.506  11.241  66.343  1.00  0.00    -0.169 C  
BRANCH  27  28
HETATM   28  C   UNK A   1      -9.748  10.990  65.437  1.00  0.00    -0.232 C  
ATOM     29  H   GLY A   2      -9.300  12.646  64.245  1.00  0.00     0.000 HD 
ATOM     30  N   GLY A   2      -9.920  11.846  64.367  1.00  0.00    -0.254 N  
HETATM   31  O   UNK A   1     -10.479  10.011  65.573  1.00  0.00    -0.167 OA 
BRANCH  30  32
ATOM     32  CA  GLY A   2     -10.995  11.598  63.414  1.00  0.00    -0.362 C  
ATOM     33  OXT GLY A   2     -13.430  11.748  63.289  1.00  0.00    -0.419 OA 
ATOM     34  C   GLY A   2     -12.372  12.213  63.698  1.00  0.00    -0.568 C  
ATOM     35  O   GLY A   2     -12.332  13.437  64.259  1.00  0.00    -0.530 OA 
ENDBRANCH  30  32
ENDBRANCH  27  28
BRANCH  27  36
HETATM   36  N   UNK A   1      -8.265  12.612  66.843  1.00  0.00    -0.373 N  
HETATM   37  H   UNK A   1      -7.368  13.058  66.648  1.00  0.00     0.000 HD 
HETATM   38  O   UNK A   1     -10.358  12.908  67.726  1.00  0.00    -0.215 OA 
HETATM   39  C   UNK A   1      -9.209  13.306  67.563  1.00  0.00    -0.213 C  
BRANCH  39  40
HETATM   40  C   UNK A   1      -8.804  14.689  68.048  1.00  0.00    -0.169 C  
BRANCH  40  41
HETATM   41  C   UNK A   1      -9.937  15.711  68.259  1.00  0.00    -0.213 C  
BRANCH  41  42
HETATM   42  C   UNK A   1     -10.673  16.226  67.014  1.00  0.00    -0.233 C  
HETATM   43  N   UNK A   1     -10.312  15.464  65.789  1.00  0.00    -0.333 NA 
HETATM   44  C   UNK A   1     -10.305  17.678  66.766  1.00  0.00    -0.331 C  
HETATM   45  O   UNK A   1     -10.731  18.674  67.322  1.00  0.00    -0.424 OA 
HETATM   46  O   UNK A   1      -9.328  17.730  65.833  1.00  0.00    -0.514 OA 
HETATM   47  H2  UNK A   1     -10.465  14.465  65.918  1.00  0.00     0.000 HD 
HETATM   48  H1  UNK A   1     -10.800  15.807  64.961  1.00  0.00     0.000 HD 
ENDBRANCH  41  42
ENDBRANCH  40  41
ENDBRANCH  39  40
ENDBRANCH  27  36
ENDBRANCH  26  27
ENDBRANCH  25  26
ENDBRANCH  24  25
ENDBRANCH  23  24
ENDBRANCH  14  23
ENDBRANCH  11  14
ENDBRANCH   9  10
ENDBRANCH   8   9
ENDBRANCH   4   8
TORSDOF 17
ENDMDL
MODEL      108
REMARK 921   NORMALIZED FREE ENERGY PREDICTED BY IDOCK:   -4.99 KCAL/MOL
REMARK 922        TOTAL FREE ENERGY PREDICTED BY IDOCK:  -12.92 KCAL/MOL
REMARK 923 INTER-LIGAND FREE ENERGY PREDICTED BY IDOCK:  -10.61 KCAL/MOL
REMARK 924 INTRA-LIGAND FREE ENERGY PREDICTED BY IDOCK:   -2.31 KCAL/MOL
REMARK 927      BINDING AFFINITY PREDICTED BY RF-SCORE:    0.00 PKD
ROOT
HETATM    1  N   UNK A   1     -10.038   4.682  65.316  1.00  0.00    -0.373 NA 
HETATM    2  H1  UNK A   1     -10.810   4.087  65.618  1.00  0.00     0.000 HD 
HETATM    3  H2  UNK A   1     -10.202   5.033  64.372  1.00  0.00     0.000 HD 
HETATM    4  C   UNK A   1      -8.708   4.024  65.409  1.00  0.00    -0.120 C  
HETATM    5  O   UNK A   1      -7.438   3.270  67.372  1.00  0.00    -0.061 OA 
HETATM    6  C   UNK A   1      -8.514   3.500  66.842  1.00  0.00    -0.106 C  
HETATM    7  O   UNK A   1      -9.710   3.321  67.459  1.00  0.00    -0.149 OA 
ENDROOT
BRANCH   4   8
HETATM    8  C   UNK A   1      -7.551   4.917  64.954  1.00  0.00    -0.077 C  
BRANCH   8   9
HETATM    9  C   UNK A   1      -7.965   6.162  64.169  1.00  0.00    -0.114 C  
BRANCH   9  10
HETATM   10  C   UNK A   1      -8.014   7.357  65.093  1.00  0.00    -0.128 C  
HETATM   11  N   UNK A   1      -9.265   7.631  65.604  1.00  0.00    -0.391 N  
HETATM   12  O   UNK A   1      -7.025   8.045  65.329  1.00  0.00    -0.061 OA 
HETATM   13  H   UNK A   1     -10.066   7.062  65.331  1.00  0.00     0.000 HD 
BRANCH  11  14
HETATM   14  C   UNK A   1      -9.436   8.747  66.544  1.00  0.00    -0.219 C  
BRANCH  14  15
HETATM   15  C   UNK A   1     -10.224   8.244  67.770  1.00  0.00    -0.223 C  
ATOM     16  H   GLY A   2     -10.323   6.360  66.919  1.00  0.00     0.000 HD 
ATOM     17  N   GLY A   2     -10.566   6.910  67.743  1.00  0.00    -0.220 N  
HETATM   18  O   UNK A   1     -10.544   8.976  68.694  1.00  0.00    -0.212 OA 
BRANCH  17  19
ATOM     19  CA  GLY A   2     -11.258   6.252  68.838  1.00  0.00    -0.309 C  
ATOM     20  C   GLY A   2     -10.378   5.914  70.031  1.00  0.00    -0.244 C  
ATOM     21  O   GLY A   2      -9.055   5.730  69.743  1.00  0.00    -0.133 OA 
ATOM     22  OXT GLY A   2     -10.806   5.747  71.163  1.00  0.00    -0.259 OA 
ENDBRANCH  17  19
ENDBRANCH  14  15
BRANCH  14  23
HETATM   23  C   UNK A   1     -10.150   9.927  65.862  1.00  0.00    -0.245 C  
BRANCH  23  24
HETATM   24  S   UNK A   1      -9.433  11.574  66.159  1.00  0.00    -0.224 SA 
BRANCH  24  25
HETATM   25  S   UNK A   1     -11.101  12.701  66.545  1.00  0.00    -0.295 SA 
BRANCH  25  26
HETATM   26  C   UNK A   1     -11.515  12.207  68.255  1.00  0.00    -0.305 C  
BRANCH  26  27
HETATM   27  C   UNK A   1     -11.721  13.368  69.246  1.00  0.00    -0.330 C  
BRANCH  27  28
HETATM   28  C   UNK A   1     -12.400  12.860  70.552  1.00  0.00    -0.283 C  
ATOM     29  H   GLY A   2     -12.521  10.910  69.815  1.00  0.00     0.000 HD 
ATOM     30  N   GLY A   2     -12.682  11.511  70.623  1.00  0.00    -0.222 N  
HETATM   31  O   UNK A   1     -12.570  13.583  71.533  1.00  0.00    -0.331 OA 
BRANCH  30  32
ATOM     32  CA  GLY A   2     -13.210  10.951  71.861  1.00  0.00    -0.403 C  
ATOM     33  OXT GLY A   2     -14.297   8.913  72.656  1.00  0.00    -0.613 OA 
ATOM     34  C   GLY A   2     -13.470   9.439  71.921  1.00  0.00    -0.426 C  
ATOM     35  O   GLY A   2     -12.569   8.692  71.255  1.00  0.00    -0.303 OA 
ENDBRANCH  30  32
ENDBRANCH  27  28
BRANCH  27  36
HETATM   36  N   UNK A   1     -10.573  14.294  69.363  1.00  0.00    -0.421 N  
HETATM   37  H   UNK A   1      -9.681  13.933  69.700  1.00  0.00     0.000 HD 
HETATM   38  O   UNK A   1     -11.656  16.116  68.495  1.00  0.00    -0.377 OA 
HETATM   39  C   UNK A   1     -10.670  15.626  69.035  1.00  0.00    -0.236 C  
BRANCH  39  40
HETATM   40  C   UNK A   1      -9.419  16.464  69.248  1.00  0.00    -0.182 C  
BRANCH  40  41
HETATM   41  C   UNK A   1      -8.858  17.199  68.016  1.00  0.00    -0.229 C  
BRANCH  41  42
HETATM   42  C   UNK A   1      -9.048  18.721  67.946  1.00  0.00    -0.291 C  
HETATM   43  N   UNK A   1     -10.130  19.197  68.848  1.00  0.00    -0.525 NA 
HETATM   44  C   UNK A   1      -9.429  19.125  66.534  1.00  0.00    -0.356 C  
HETATM   45  O   UNK A   1      -8.708  19.259  65.562  1.00  0.00    -0.192 OA 
HETATM   46  O   UNK A   1     -10.772  19.263  66.464  1.00  0.00    -0.424 OA 
HETATM   47  H2  UNK A   1      -9.971  18.890  69.807  1.00  0.00     0.000 HD 
HETATM   48  H1  UNK A   1     -10.257  20.208  68.802  1.00  0.00     0.000 HD 
ENDBRANCH  41  42
ENDBRANCH  40  41
ENDBRANCH  39  40
ENDBRANCH  27  36
ENDBRANCH  26  27
ENDBRANCH  25  26
ENDBRANCH  24  25
ENDBRANCH  23  24
ENDBRANCH  14  23
ENDBRANCH  11  14
ENDBRANCH   9  10
ENDBRANCH   8   9
ENDBRANCH   4   8
TORSDOF 17
ENDMDL
MODEL      109
REMARK 921   NORMALIZED FREE ENERGY PREDICTED BY IDOCK:   -4.99 KCAL/MOL
REMARK 922        TOTAL FREE ENERGY PREDICTED BY IDOCK:  -12.92 KCAL/MOL
REMARK 923 INTER-LIGAND FREE ENERGY PREDICTED BY IDOCK:  -11.35 KCAL/MOL
REMARK 924 INTRA-LIGAND FREE ENERGY PREDICTED BY IDOCK:   -1.57 KCAL/MOL
REMARK 927      BINDING AFFINITY PREDICTED BY RF-SCORE:    0.00 PKD
ROOT
HETATM    1  N   UNK A   1      -8.489  11.104  64.952  1.00  0.00    -0.372 NA 
HETATM    2  H1  UNK A   1      -8.309  10.772  64.005  1.00  0.00     0.000 HD 
HETATM    3  H2  UNK A   1      -8.856  12.056  64.936  1.00  0.00     0.000 HD 
HETATM    4  C   UNK A   1      -7.307  11.010  65.850  1.00  0.00     0.028 C  
HETATM    5  O   UNK A   1      -6.107   9.043  66.702  1.00  0.00    -0.058 OA 
HETATM    6  C   UNK A   1      -6.783   9.564  65.829  1.00  0.00    -0.083 C  
HETATM    7  O   UNK A   1      -7.171   8.924  64.696  1.00  0.00    -0.093 OA 
ENDROOT
BRANCH   4   8
HETATM    8  C   UNK A   1      -7.577  11.510  67.271  1.00  0.00    -0.143 C  
BRANCH   8   9
HETATM    9  C   UNK A   1      -6.910  12.839  67.627  1.00  0.00    -0.147 C  
BRANCH   9  10
HETATM   10  C   UNK A   1      -7.934  13.950  67.601  1.00  0.00    -0.175 C  
HETATM   11  N   UNK A   1      -8.561  14.117  66.384  1.00  0.00    -0.385 N  
HETATM   12  O   UNK A   1      -8.152  14.665  68.574  1.00  0.00    -0.133 OA 
HETATM   13  H   UNK A   1      -8.302  13.534  65.589  1.00  0.00     0.000 HD 
BRANCH  11  14
HETATM   14  C   UNK A   1      -9.604  15.142  66.241  1.00  0.00    -0.297 C  
BRANCH  14  15
HETATM   15  C   UNK A   1      -8.957  16.532  66.406  1.00  0.00    -0.305 C  
ATOM     16  H   GLY A   2     -10.340  16.987  67.877  1.00  0.00     0.000 HD 
ATOM     17  N   GLY A   2      -9.524  17.333  67.373  1.00  0.00    -0.243 N  
HETATM   18  O   UNK A   1      -8.021  16.909  65.718  1.00  0.00    -0.374 OA 
BRANCH  17  19
ATOM     19  CA  GLY A   2      -9.009  18.649  67.705  1.00  0.00    -0.282 C  
ATOM     20  C   GLY A   2      -9.678  19.797  66.966  1.00  0.00    -0.381 C  
ATOM     21  O   GLY A   2     -10.215  19.471  65.752  1.00  0.00    -0.418 OA 
ATOM     22  OXT GLY A   2      -9.691  20.950  67.371  1.00  0.00    -0.456 OA 
ENDBRANCH  17  19
ENDBRANCH  14  15
BRANCH  14  23
HETATM   23  C   UNK A   1     -10.729  14.919  67.266  1.00  0.00    -0.294 C  
BRANCH  23  24
HETATM   24  S   UNK A   1     -11.777  13.455  66.996  1.00  0.00    -0.393 SA 
BRANCH  24  25
HETATM   25  S   UNK A   1     -10.946  12.094  68.284  1.00  0.00    -0.252 SA 
BRANCH  25  26
HETATM   26  C   UNK A   1     -12.394  11.545  69.254  1.00  0.00    -0.056 C  
BRANCH  26  27
HETATM   27  C   UNK A   1     -12.165  11.427  70.772  1.00  0.00    -0.376 C  
BRANCH  27  28
HETATM   28  C   UNK A   1     -12.915  12.562  71.531  1.00  0.00    -0.280 C  
ATOM     29  H   GLY A   2     -12.120  14.025  70.270  1.00  0.00     0.000 HD 
ATOM     30  N   GLY A   2     -12.763  13.843  71.040  1.00  0.00    -0.350 N  
HETATM   31  O   UNK A   1     -13.708  12.336  72.443  1.00  0.00    -0.359 OA 
BRANCH  30  32
ATOM     32  CA  GLY A   2     -13.528  14.934  71.631  1.00  0.00    -0.398 C  
ATOM     33  OXT GLY A   2     -13.417  16.451  73.542  1.00  0.00    -0.608 OA 
ATOM     34  C   GLY A   2     -12.831  15.835  72.660  1.00  0.00    -0.461 C  
ATOM     35  O   GLY A   2     -11.533  16.079  72.399  1.00  0.00    -0.374 OA 
ENDBRANCH  30  32
ENDBRANCH  27  28
BRANCH  27  36
HETATM   36  N   UNK A   1     -12.249  10.050  71.307  1.00  0.00    -0.371 N  
HETATM   37  H   UNK A   1     -13.160   9.679  71.575  1.00  0.00     0.000 HD 
HETATM   38  O   UNK A   1     -10.028   9.559  71.031  1.00  0.00    -0.278 OA 
HETATM   39  C   UNK A   1     -11.138   9.253  71.454  1.00  0.00    -0.367 C  
BRANCH  39  40
HETATM   40  C   UNK A   1     -11.372   7.876  72.056  1.00  0.00    -0.343 C  
BRANCH  40  41
HETATM   41  C   UNK A   1     -11.803   6.758  71.087  1.00  0.00    -0.410 C  
BRANCH  41  42
HETATM   42  C   UNK A   1     -10.697   5.985  70.354  1.00  0.00    -0.292 C  
HETATM   43  N   UNK A   1      -9.355   6.215  70.953  1.00  0.00    -0.157 NA 
HETATM   44  C   UNK A   1     -10.628   6.437  68.907  1.00  0.00    -0.252 C  
HETATM   45  O   UNK A   1     -11.346   6.118  67.977  1.00  0.00    -0.221 OA 
HETATM   46  O   UNK A   1      -9.644   7.356  68.781  1.00  0.00    -0.147 OA 
HETATM   47  H2  UNK A   1      -9.355   6.001  71.950  1.00  0.00     0.000 HD 
HETATM   48  H1  UNK A   1      -8.620   5.701  70.466  1.00  0.00     0.000 HD 
ENDBRANCH  41  42
ENDBRANCH  40  41
ENDBRANCH  39  40
ENDBRANCH  27  36
ENDBRANCH  26  27
ENDBRANCH  25  26
ENDBRANCH  24  25
ENDBRANCH  23  24
ENDBRANCH  14  23
ENDBRANCH  11  14
ENDBRANCH   9  10
ENDBRANCH   8   9
ENDBRANCH   4   8
TORSDOF 17
ENDMDL
MODEL      110
REMARK 921   NORMALIZED FREE ENERGY PREDICTED BY IDOCK:   -4.98 KCAL/MOL
REMARK 922        TOTAL FREE ENERGY PREDICTED BY IDOCK:  -12.90 KCAL/MOL
REMARK 923 INTER-LIGAND FREE ENERGY PREDICTED BY IDOCK:  -10.88 KCAL/MOL
REMARK 924 INTRA-LIGAND FREE ENERGY PREDICTED BY IDOCK:   -2.02 KCAL/MOL
REMARK 927      BINDING AFFINITY PREDICTED BY RF-SCORE:    0.00 PKD
ROOT
HETATM    1  N   UNK A   1     -10.982  10.850  65.347  1.00  0.00    -0.046 NA 
HETATM    2  H1  UNK A   1     -10.881   9.839  65.435  1.00  0.00     0.000 HD 
HETATM    3  H2  UNK A   1     -11.842  11.167  65.796  1.00  0.00     0.000 HD 
HETATM    4  C   UNK A   1     -10.914  11.335  63.942  1.00  0.00    -0.305 C  
HETATM    5  O   UNK A   1      -9.050  11.320  62.342  1.00  0.00    -0.317 OA 
HETATM    6  C   UNK A   1      -9.611  10.821  63.304  1.00  0.00    -0.350 C  
HETATM    7  O   UNK A   1      -9.154   9.721  63.955  1.00  0.00    -0.237 OA 
ENDROOT
BRANCH   4   8
HETATM    8  C   UNK A   1     -11.067  12.851  63.810  1.00  0.00    -0.424 C  
BRANCH   8   9
HETATM    9  C   UNK A   1     -12.254  13.450  64.567  1.00  0.00    -0.450 C  
BRANCH   9  10
HETATM   10  C   UNK A   1     -11.776  14.075  65.857  1.00  0.00    -0.366 C  
HETATM   11  N   UNK A   1     -10.490  14.570  65.808  1.00  0.00    -0.306 N  
HETATM   12  O   UNK A   1     -12.468  14.097  66.871  1.00  0.00    -0.359 OA 
HETATM   13  H   UNK A   1      -9.936  14.475  64.958  1.00  0.00     0.000 HD 
BRANCH  11  14
HETATM   14  C   UNK A   1      -9.923  15.234  66.989  1.00  0.00    -0.234 C  
BRANCH  14  15
HETATM   15  C   UNK A   1      -9.658  16.714  66.644  1.00  0.00    -0.263 C  
ATOM     16  H   GLY A   2     -11.607  17.172  67.166  1.00  0.00     0.000 HD 
ATOM     17  N   GLY A   2     -10.721  17.565  66.849  1.00  0.00    -0.199 N  
HETATM   18  O   UNK A   1      -8.589  17.106  66.202  1.00  0.00    -0.406 OA 
BRANCH  17  19
ATOM     19  CA  GLY A   2     -10.634  18.999  66.633  1.00  0.00    -0.416 C  
ATOM     20  C   GLY A   2     -10.143  19.792  67.833  1.00  0.00    -0.430 C  
ATOM     21  O   GLY A   2     -10.387  19.216  69.049  1.00  0.00    -0.265 OA 
ATOM     22  OXT GLY A   2      -9.626  20.896  67.752  1.00  0.00    -0.256 OA 
ENDBRANCH  17  19
ENDBRANCH  14  15
BRANCH  14  23
HETATM   23  C   UNK A   1      -8.638  14.524  67.448  1.00  0.00    -0.201 C  
BRANCH  23  24
HETATM   24  S   UNK A   1      -8.705  12.705  67.498  1.00  0.00    -0.196 SA 
BRANCH  24  25
HETATM   25  S   UNK A   1     -10.184  12.373  68.879  1.00  0.00     0.088 SA 
BRANCH  25  26
HETATM   26  C   UNK A   1     -10.095  10.562  69.112  1.00  0.00    -0.224 C  
BRANCH  26  27
HETATM   27  C   UNK A   1     -10.851  10.018  70.338  1.00  0.00    -0.318 C  
BRANCH  27  28
HETATM   28  C   UNK A   1     -12.178  10.803  70.559  1.00  0.00    -0.366 C  
ATOM     29  H   GLY A   2     -11.680  11.224  72.543  1.00  0.00     0.000 HD 
ATOM     30  N   GLY A   2     -12.357  11.385  71.798  1.00  0.00     0.016 N  
HETATM   31  O   UNK A   1     -12.980  11.014  69.651  1.00  0.00    -0.101 OA 
BRANCH  30  32
ATOM     32  CA  GLY A   2     -13.522  12.230  72.032  1.00  0.00    -0.316 C  
ATOM     33  OXT GLY A   2     -14.043  14.549  72.594  1.00  0.00    -0.518 OA 
ATOM     34  C   GLY A   2     -13.333  13.753  71.992  1.00  0.00    -0.447 C  
ATOM     35  O   GLY A   2     -12.451  14.181  71.068  1.00  0.00    -0.323 OA 
ENDBRANCH  30  32
ENDBRANCH  27  28
BRANCH  27  36
HETATM   36  N   UNK A   1     -10.880   8.542  70.443  1.00  0.00    -0.232 N  
HETATM   37  H   UNK A   1     -11.149   7.995  69.626  1.00  0.00     0.000 HD 
HETATM   38  O   UNK A   1     -10.092   8.447  72.592  1.00  0.00    -0.292 OA 
HETATM   39  C   UNK A   1     -10.557   7.884  71.607  1.00  0.00    -0.221 C  
BRANCH  39  40
HETATM   40  C   UNK A   1     -10.675   6.368  71.577  1.00  0.00    -0.282 C  
BRANCH  40  41
HETATM   41  C   UNK A   1     -11.140   5.733  70.253  1.00  0.00    -0.300 C  
BRANCH  41  42
HETATM   42  C   UNK A   1     -10.079   5.479  69.173  1.00  0.00    -0.216 C  
HETATM   43  N   UNK A   1      -8.694   5.623  69.697  1.00  0.00    -0.109 NA 
HETATM   44  C   UNK A   1     -10.241   6.483  68.047  1.00  0.00    -0.164 C  
HETATM   45  O   UNK A   1     -11.046   6.475  67.133  1.00  0.00    -0.390 OA 
HETATM   46  O   UNK A   1      -9.366   7.497  68.233  1.00  0.00    -0.141 OA 
HETATM   47  H2  UNK A   1      -8.544   5.026  70.510  1.00  0.00     0.000 HD 
HETATM   48  H1  UNK A   1      -7.989   5.454  68.980  1.00  0.00     0.000 HD 
ENDBRANCH  41  42
ENDBRANCH  40  41
ENDBRANCH  39  40
ENDBRANCH  27  36
ENDBRANCH  26  27
ENDBRANCH  25  26
ENDBRANCH  24  25
ENDBRANCH  23  24
ENDBRANCH  14  23
ENDBRANCH  11  14
ENDBRANCH   9  10
ENDBRANCH   8   9
ENDBRANCH   4   8
TORSDOF 17
ENDMDL
MODEL      111
REMARK 921   NORMALIZED FREE ENERGY PREDICTED BY IDOCK:   -4.98 KCAL/MOL
REMARK 922        TOTAL FREE ENERGY PREDICTED BY IDOCK:  -12.90 KCAL/MOL
REMARK 923 INTER-LIGAND FREE ENERGY PREDICTED BY IDOCK:  -10.83 KCAL/MOL
REMARK 924 INTRA-LIGAND FREE ENERGY PREDICTED BY IDOCK:   -2.07 KCAL/MOL
REMARK 927      BINDING AFFINITY PREDICTED BY RF-SCORE:    0.00 PKD
ROOT
HETATM    1  N   UNK A   1     -12.734  14.037  66.222  1.00  0.00    -0.485 NA 
HETATM    2  H1  UNK A   1     -12.799  15.026  65.983  1.00  0.00     0.000 HD 
HETATM    3  H2  UNK A   1     -12.527  13.918  67.213  1.00  0.00     0.000 HD 
HETATM    4  C   UNK A   1     -11.758  13.287  65.386  1.00  0.00    -0.343 C  
HETATM    5  O   UNK A   1     -11.785  12.771  62.985  1.00  0.00    -0.363 OA 
HETATM    6  C   UNK A   1     -12.103  13.509  63.903  1.00  0.00    -0.438 C  
HETATM    7  O   UNK A   1     -12.819  14.651  63.738  1.00  0.00    -0.677 OA 
ENDROOT
BRANCH   4   8
HETATM    8  C   UNK A   1     -11.661  11.802  65.744  1.00  0.00    -0.194 C  
BRANCH   8   9
HETATM    9  C   UNK A   1     -11.169  11.510  67.163  1.00  0.00    -0.365 C  
BRANCH   9  10
HETATM   10  C   UNK A   1     -10.091  10.453  67.124  1.00  0.00    -0.208 C  
HETATM   11  N   UNK A   1      -9.293  10.411  68.248  1.00  0.00    -0.145 N  
HETATM   12  O   UNK A   1      -9.919   9.725  66.150  1.00  0.00    -0.244 OA 
HETATM   13  H   UNK A   1      -9.441  11.077  69.006  1.00  0.00     0.000 HD 
BRANCH  11  14
HETATM   14  C   UNK A   1      -8.230   9.402  68.347  1.00  0.00    -0.117 C  
BRANCH  14  15
HETATM   15  C   UNK A   1      -8.425   8.606  69.653  1.00  0.00    -0.129 C  
ATOM     16  H   GLY A   2      -9.258  10.281  70.536  1.00  0.00     0.000 HD 
ATOM     17  N   GLY A   2      -9.025   9.299  70.681  1.00  0.00    -0.236 N  
HETATM   18  O   UNK A   1      -8.056   7.448  69.780  1.00  0.00    -0.123 OA 
BRANCH  17  19
ATOM     19  CA  GLY A   2      -9.338   8.691  71.962  1.00  0.00    -0.292 C  
ATOM     20  C   GLY A   2     -10.824   8.597  72.272  1.00  0.00    -0.322 C  
ATOM     21  O   GLY A   2     -11.605   9.537  71.661  1.00  0.00    -0.377 OA 
ATOM     22  OXT GLY A   2     -11.303   7.793  73.058  1.00  0.00    -0.399 OA 
ENDBRANCH  17  19
ENDBRANCH  14  15
BRANCH  14  23
HETATM   23  C   UNK A   1      -6.844  10.066  68.294  1.00  0.00    -0.063 C  
BRANCH  23  24
HETATM   24  S   UNK A   1      -6.648  11.584  69.281  1.00  0.00    -0.121 SA 
BRANCH  24  25
HETATM   25  S   UNK A   1      -7.186  13.037  67.939  1.00  0.00    -0.149 SA 
BRANCH  25  26
HETATM   26  C   UNK A   1      -7.798  14.367  69.034  1.00  0.00    -0.077 C  
BRANCH  26  27
HETATM   27  C   UNK A   1      -8.475  15.550  68.319  1.00  0.00    -0.156 C  
BRANCH  27  28
HETATM   28  C   UNK A   1      -9.979  15.644  68.717  1.00  0.00    -0.213 C  
ATOM     29  H   GLY A   2     -10.093  13.584  69.043  1.00  0.00     0.000 HD 
ATOM     30  N   GLY A   2     -10.594  14.470  69.104  1.00  0.00    -0.247 N  
HETATM   31  O   UNK A   1     -10.571  16.717  68.811  1.00  0.00    -0.306 OA 
BRANCH  30  32
ATOM     32  CA  GLY A   2     -11.964  14.507  69.599  1.00  0.00    -0.328 C  
ATOM     33  OXT GLY A   2     -13.177  14.293  71.708  1.00  0.00    -0.328 OA 
ATOM     34  C   GLY A   2     -12.186  14.690  71.107  1.00  0.00    -0.340 C  
ATOM     35  O   GLY A   2     -11.305  15.515  71.704  1.00  0.00    -0.389 OA 
ENDBRANCH  30  32
ENDBRANCH  27  28
BRANCH  27  36
HETATM   36  N   UNK A   1      -7.677  16.795  68.287  1.00  0.00    -0.180 N  
HETATM   37  H   UNK A   1      -7.868  17.522  68.977  1.00  0.00     0.000 HD 
HETATM   38  O   UNK A   1      -6.294  16.140  66.582  1.00  0.00    -0.255 OA 
HETATM   39  C   UNK A   1      -6.686  17.006  67.357  1.00  0.00    -0.149 C  
BRANCH  39  40
HETATM   40  C   UNK A   1      -5.979  18.351  67.421  1.00  0.00    -0.170 C  
BRANCH  40  41
HETATM   41  C   UNK A   1      -6.716  19.489  68.152  1.00  0.00    -0.301 C  
BRANCH  41  42
HETATM   42  C   UNK A   1      -7.971  20.070  67.483  1.00  0.00    -0.307 C  
HETATM   43  N   UNK A   1      -9.226  19.532  68.074  1.00  0.00    -0.325 NA 
HETATM   44  C   UNK A   1      -7.978  19.712  66.008  1.00  0.00    -0.328 C  
HETATM   45  O   UNK A   1      -7.359  20.233  65.098  1.00  0.00    -0.224 OA 
HETATM   46  O   UNK A   1      -8.759  18.623  65.824  1.00  0.00    -0.420 OA 
HETATM   47  H2  UNK A   1      -9.248  19.673  69.083  1.00  0.00     0.000 HD 
HETATM   48  H1  UNK A   1     -10.059  19.917  67.630  1.00  0.00     0.000 HD 
ENDBRANCH  41  42
ENDBRANCH  40  41
ENDBRANCH  39  40
ENDBRANCH  27  36
ENDBRANCH  26  27
ENDBRANCH  25  26
ENDBRANCH  24  25
ENDBRANCH  23  24
ENDBRANCH  14  23
ENDBRANCH  11  14
ENDBRANCH   9  10
ENDBRANCH   8   9
ENDBRANCH   4   8
TORSDOF 17
ENDMDL
MODEL      112
REMARK 921   NORMALIZED FREE ENERGY PREDICTED BY IDOCK:   -4.98 KCAL/MOL
REMARK 922        TOTAL FREE ENERGY PREDICTED BY IDOCK:  -12.90 KCAL/MOL
REMARK 923 INTER-LIGAND FREE ENERGY PREDICTED BY IDOCK:  -11.42 KCAL/MOL
REMARK 924 INTRA-LIGAND FREE ENERGY PREDICTED BY IDOCK:   -1.47 KCAL/MOL
REMARK 927      BINDING AFFINITY PREDICTED BY RF-SCORE:    0.00 PKD
ROOT
HETATM    1  N   UNK A   1      -9.783   4.397  71.803  1.00  0.00    -0.162 NA 
HETATM    2  H1  UNK A   1      -9.203   4.093  72.586  1.00  0.00     0.000 HD 
HETATM    3  H2  UNK A   1      -9.427   4.022  70.924  1.00  0.00     0.000 HD 
HETATM    4  C   UNK A   1      -9.942   5.873  71.720  1.00  0.00    -0.166 C  
HETATM    5  O   UNK A   1     -11.064   7.442  73.242  1.00  0.00    -0.365 OA 
HETATM    6  C   UNK A   1     -10.466   6.391  73.071  1.00  0.00    -0.230 C  
HETATM    7  O   UNK A   1     -10.174   5.520  74.070  1.00  0.00    -0.210 OA 
ENDROOT
BRANCH   4   8
HETATM    8  C   UNK A   1     -10.812   6.329  70.546  1.00  0.00    -0.348 C  
BRANCH   8   9
HETATM    9  C   UNK A   1     -10.252   6.000  69.161  1.00  0.00    -0.258 C  
BRANCH   9  10
HETATM   10  C   UNK A   1     -10.485   7.163  68.225  1.00  0.00    -0.198 C  
HETATM   11  N   UNK A   1     -10.178   8.395  68.762  1.00  0.00    -0.204 N  
HETATM   12  O   UNK A   1     -10.947   7.016  67.097  1.00  0.00    -0.357 OA 
HETATM   13  H   UNK A   1      -9.851   8.469  69.724  1.00  0.00     0.000 HD 
BRANCH  11  14
HETATM   14  C   UNK A   1     -10.327   9.602  67.938  1.00  0.00    -0.224 C  
BRANCH  14  15
HETATM   15  C   UNK A   1      -8.952   9.966  67.341  1.00  0.00    -0.135 C  
ATOM     16  H   GLY A   2      -9.166   8.446  65.953  1.00  0.00     0.000 HD 
ATOM     17  N   GLY A   2      -8.562   9.208  66.259  1.00  0.00    -0.123 N  
HETATM   18  O   UNK A   1      -8.246  10.849  67.803  1.00  0.00    -0.114 OA 
BRANCH  17  19
ATOM     19  CA  GLY A   2      -7.325   9.447  65.536  1.00  0.00    -0.088 C  
ATOM     20  C   GLY A   2      -7.096   8.525  64.350  1.00  0.00    -0.082 C  
ATOM     21  O   GLY A   2      -7.706   7.305  64.436  1.00  0.00    -0.108 OA 
ATOM     22  OXT GLY A   2      -6.370   8.801  63.406  1.00  0.00    -0.088 OA 
ENDBRANCH  17  19
ENDBRANCH  14  15
BRANCH  14  23
HETATM   23  C   UNK A   1     -10.903  10.761  68.770  1.00  0.00    -0.221 C  
BRANCH  23  24
HETATM   24  S   UNK A   1     -11.657  12.124  67.826  1.00  0.00    -0.330 SA 
BRANCH  24  25
HETATM   25  S   UNK A   1     -10.618  13.748  68.522  1.00  0.00    -0.255 SA 
BRANCH  25  26
HETATM   26  C   UNK A   1     -11.499  15.139  67.728  1.00  0.00    -0.318 C  
BRANCH  26  27
HETATM   27  C   UNK A   1     -10.656  15.986  66.757  1.00  0.00    -0.297 C  
BRANCH  27  28
HETATM   28  C   UNK A   1     -10.685  15.372  65.326  1.00  0.00    -0.421 C  
ATOM     29  H   GLY A   2     -10.136  13.490  66.046  1.00  0.00     0.000 HD 
ATOM     30  N   GLY A   2     -10.418  14.021  65.223  1.00  0.00    -0.358 N  
HETATM   31  O   UNK A   1     -11.049  16.011  64.340  1.00  0.00    -0.560 OA 
BRANCH  30  32
ATOM     32  CA  GLY A   2     -10.543  13.361  63.930  1.00  0.00     0.089 C  
ATOM     33  OXT GLY A   2     -11.854  11.592  62.873  1.00  0.00    -0.005 OA 
ATOM     34  C   GLY A   2     -11.806  12.532  63.657  1.00  0.00    -0.530 C  
ATOM     35  O   GLY A   2     -12.933  13.044  64.185  1.00  0.00    -0.637 OA 
ENDBRANCH  30  32
ENDBRANCH  27  28
BRANCH  27  36
HETATM   36  N   UNK A   1     -10.829  17.448  66.899  1.00  0.00    -0.098 N  
HETATM   37  H   UNK A   1     -11.374  17.951  66.199  1.00  0.00     0.000 HD 
HETATM   38  O   UNK A   1      -9.728  17.619  68.901  1.00  0.00    -0.300 OA 
HETATM   39  C   UNK A   1     -10.278  18.153  67.944  1.00  0.00    -0.379 C  
BRANCH  39  40
HETATM   40  C   UNK A   1     -10.504  19.657  67.934  1.00  0.00    -0.556 C  
BRANCH  40  41
HETATM   41  C   UNK A   1      -9.560  20.495  67.051  1.00  0.00    -0.540 C  
BRANCH  41  42
HETATM   42  C   UNK A   1      -8.061  20.166  67.099  1.00  0.00    -0.329 C  
HETATM   43  N   UNK A   1      -7.211  21.378  66.958  1.00  0.00    -0.844 NA 
HETATM   44  C   UNK A   1      -7.705  19.231  65.958  1.00  0.00    -0.277 C  
HETATM   45  O   UNK A   1      -7.877  18.028  65.880  1.00  0.00    -0.511 OA 
HETATM   46  O   UNK A   1      -7.199  19.959  64.936  1.00  0.00    -0.290 OA 
HETATM   47  H2  UNK A   1      -7.455  22.082  67.654  1.00  0.00     0.000 HD 
HETATM   48  H1  UNK A   1      -6.215  21.160  66.989  1.00  0.00     0.000 HD 
ENDBRANCH  41  42
ENDBRANCH  40  41
ENDBRANCH  39  40
ENDBRANCH  27  36
ENDBRANCH  26  27
ENDBRANCH  25  26
ENDBRANCH  24  25
ENDBRANCH  23  24
ENDBRANCH  14  23
ENDBRANCH  11  14
ENDBRANCH   9  10
ENDBRANCH   8   9
ENDBRANCH   4   8
TORSDOF 17
ENDMDL
MODEL      113
REMARK 921   NORMALIZED FREE ENERGY PREDICTED BY IDOCK:   -4.97 KCAL/MOL
REMARK 922        TOTAL FREE ENERGY PREDICTED BY IDOCK:  -12.89 KCAL/MOL
REMARK 923 INTER-LIGAND FREE ENERGY PREDICTED BY IDOCK:  -10.07 KCAL/MOL
REMARK 924 INTRA-LIGAND FREE ENERGY PREDICTED BY IDOCK:   -2.82 KCAL/MOL
REMARK 927      BINDING AFFINITY PREDICTED BY RF-SCORE:    0.00 PKD
ROOT
HETATM    1  N   UNK A   1     -10.367   3.683  65.913  1.00  0.00    -0.243 NA 
HETATM    2  H1  UNK A   1     -10.965   3.407  66.691  1.00  0.00     0.000 HD 
HETATM    3  H2  UNK A   1     -10.829   3.503  65.021  1.00  0.00     0.000 HD 
HETATM    4  C   UNK A   1      -9.020   3.053  65.945  1.00  0.00    -0.145 C  
HETATM    5  O   UNK A   1      -7.173   3.325  67.542  1.00  0.00    -0.057 OA 
HETATM    6  C   UNK A   1      -8.372   3.341  67.310  1.00  0.00    -0.088 C  
HETATM    7  O   UNK A   1      -9.315   3.618  68.246  1.00  0.00    -0.154 OA 
ENDROOT
BRANCH   4   8
HETATM    8  C   UNK A   1      -8.123   3.469  64.777  1.00  0.00    -0.090 C  
BRANCH   8   9
HETATM    9  C   UNK A   1      -8.568   4.732  64.038  1.00  0.00    -0.137 C  
BRANCH   9  10
HETATM   10  C   UNK A   1      -8.049   5.956  64.757  1.00  0.00    -0.132 C  
HETATM   11  N   UNK A   1      -8.987   6.596  65.539  1.00  0.00    -0.364 N  
HETATM   12  O   UNK A   1      -6.900   6.362  64.617  1.00  0.00    -0.041 OA 
HETATM   13  H   UNK A   1      -9.946   6.251  65.577  1.00  0.00     0.000 HD 
BRANCH  11  14
HETATM   14  C   UNK A   1      -8.597   7.778  66.318  1.00  0.00    -0.150 C  
BRANCH  14  15
HETATM   15  C   UNK A   1      -8.361   7.351  67.781  1.00  0.00    -0.118 C  
ATOM     16  H   GLY A   2     -10.279   7.965  68.256  1.00  0.00     0.000 HD 
ATOM     17  N   GLY A   2      -9.433   7.532  68.627  1.00  0.00    -0.146 N  
HETATM   18  O   UNK A   1      -7.295   6.902  68.173  1.00  0.00    -0.091 OA 
BRANCH  17  19
ATOM     19  CA  GLY A   2      -9.410   7.133  70.023  1.00  0.00    -0.154 C  
ATOM     20  C   GLY A   2     -10.532   6.192  70.431  1.00  0.00    -0.230 C  
ATOM     21  O   GLY A   2     -11.672   6.287  69.683  1.00  0.00    -0.382 OA 
ATOM     22  OXT GLY A   2     -10.472   5.442  71.395  1.00  0.00    -0.223 OA 
ENDBRANCH  17  19
ENDBRANCH  14  15
BRANCH  14  23
HETATM   23  C   UNK A   1      -9.672   8.874  66.219  1.00  0.00    -0.275 C  
BRANCH  23  24
HETATM   24  S   UNK A   1      -9.063  10.567  65.935  1.00  0.00    -0.176 SA 
BRANCH  24  25
HETATM   25  S   UNK A   1     -10.590  11.702  66.698  1.00  0.00    -0.254 SA 
BRANCH  25  26
HETATM   26  C   UNK A   1      -9.701  12.848  67.810  1.00  0.00    -0.214 C  
BRANCH  26  27
HETATM   27  C   UNK A   1     -10.584  13.883  68.532  1.00  0.00    -0.252 C  
BRANCH  27  28
HETATM   28  C   UNK A   1     -10.838  15.120  67.619  1.00  0.00    -0.295 C  
ATOM     29  H   GLY A   2      -9.921  16.405  68.986  1.00  0.00     0.000 HD 
ATOM     30  N   GLY A   2     -10.349  16.332  68.064  1.00  0.00    -0.270 N  
HETATM   31  O   UNK A   1     -11.334  15.022  66.498  1.00  0.00    -0.341 OA 
BRANCH  30  32
ATOM     32  CA  GLY A   2     -10.451  17.505  67.205  1.00  0.00    -0.327 C  
ATOM     33  OXT GLY A   2      -8.993  19.041  65.988  1.00  0.00    -0.456 OA 
ATOM     34  C   GLY A   2      -9.227  17.900  66.367  1.00  0.00    -0.242 C  
ATOM     35  O   GLY A   2      -8.522  16.858  65.886  1.00  0.00    -0.501 OA 
ENDBRANCH  30  32
ENDBRANCH  27  28
BRANCH  27  36
HETATM   36  N   UNK A   1     -11.727  13.311  69.277  1.00  0.00    -0.308 N  
HETATM   37  H   UNK A   1     -12.208  12.498  68.894  1.00  0.00     0.000 HD 
HETATM   38  O   UNK A   1     -11.564  14.725  71.072  1.00  0.00    -0.300 OA 
HETATM   39  C   UNK A   1     -12.162  13.841  70.469  1.00  0.00    -0.369 C  
BRANCH  39  40
HETATM   40  C   UNK A   1     -13.376  13.173  71.098  1.00  0.00    -0.013 C  
BRANCH  40  41
HETATM   41  C   UNK A   1     -13.104  11.984  72.039  1.00  0.00    -0.456 C  
BRANCH  41  42
HETATM   42  C   UNK A   1     -13.255  10.569  71.461  1.00  0.00    -0.371 C  
HETATM   43  N   UNK A   1     -13.736   9.593  72.475  1.00  0.00    -0.684 NA 
HETATM   44  C   UNK A   1     -11.911  10.073  70.961  1.00  0.00    -0.386 C  
HETATM   45  O   UNK A   1     -11.342  10.343  69.919  1.00  0.00    -0.260 OA 
HETATM   46  O   UNK A   1     -11.350   9.292  71.912  1.00  0.00    -0.374 OA 
HETATM   47  H2  UNK A   1     -14.604   9.909  72.907  1.00  0.00     0.000 HD 
HETATM   48  H1  UNK A   1     -13.837   8.654  72.091  1.00  0.00     0.000 HD 
ENDBRANCH  41  42
ENDBRANCH  40  41
ENDBRANCH  39  40
ENDBRANCH  27  36
ENDBRANCH  26  27
ENDBRANCH  25  26
ENDBRANCH  24  25
ENDBRANCH  23  24
ENDBRANCH  14  23
ENDBRANCH  11  14
ENDBRANCH   9  10
ENDBRANCH   8   9
ENDBRANCH   4   8
TORSDOF 17
ENDMDL
MODEL      114
REMARK 921   NORMALIZED FREE ENERGY PREDICTED BY IDOCK:   -4.96 KCAL/MOL
REMARK 922        TOTAL FREE ENERGY PREDICTED BY IDOCK:  -12.87 KCAL/MOL
REMARK 923 INTER-LIGAND FREE ENERGY PREDICTED BY IDOCK:  -10.96 KCAL/MOL
REMARK 924 INTRA-LIGAND FREE ENERGY PREDICTED BY IDOCK:   -1.90 KCAL/MOL
REMARK 927      BINDING AFFINITY PREDICTED BY RF-SCORE:    0.00 PKD
ROOT
HETATM    1  N   UNK A   1     -10.987  15.514  67.961  1.00  0.00    -0.300 NA 
HETATM    2  H1  UNK A   1     -11.746  16.029  68.408  1.00  0.00     0.000 HD 
HETATM    3  H2  UNK A   1     -11.154  14.509  68.013  1.00  0.00     0.000 HD 
HETATM    4  C   UNK A   1      -9.641  15.853  68.496  1.00  0.00    -0.205 C  
HETATM    5  O   UNK A   1      -8.367  17.950  68.385  1.00  0.00    -0.288 OA 
HETATM    6  C   UNK A   1      -9.444  17.377  68.409  1.00  0.00    -0.293 C  
HETATM    7  O   UNK A   1     -10.639  18.018  68.362  1.00  0.00    -0.340 OA 
ENDROOT
BRANCH   4   8
HETATM    8  C   UNK A   1      -8.504  15.080  67.825  1.00  0.00    -0.161 C  
BRANCH   8   9
HETATM    9  C   UNK A   1      -7.345  14.703  68.749  1.00  0.00    -0.131 C  
BRANCH   9  10
HETATM   10  C   UNK A   1      -6.950  13.263  68.513  1.00  0.00    -0.103 C  
HETATM   11  N   UNK A   1      -7.856  12.339  68.989  1.00  0.00    -0.338 N  
HETATM   12  O   UNK A   1      -5.890  12.952  67.979  1.00  0.00    -0.082 OA 
HETATM   13  H   UNK A   1      -8.696  12.649  69.478  1.00  0.00     0.000 HD 
BRANCH  11  14
HETATM   14  C   UNK A   1      -7.603  10.906  68.789  1.00  0.00    -0.121 C  
BRANCH  14  15
HETATM   15  C   UNK A   1      -7.011  10.323  70.088  1.00  0.00    -0.155 C  
ATOM     16  H   GLY A   2      -8.263   8.685  69.909  1.00  0.00     0.000 HD 
ATOM     17  N   GLY A   2      -7.517   9.100  70.469  1.00  0.00    -0.100 N  
HETATM   18  O   UNK A   1      -6.166  10.909  70.748  1.00  0.00    -0.333 OA 
BRANCH  17  19
ATOM     19  CA  GLY A   2      -7.036   8.376  71.632  1.00  0.00    -0.086 C  
ATOM     20  C   GLY A   2      -8.102   8.061  72.669  1.00  0.00    -0.145 C  
ATOM     21  O   GLY A   2      -9.163   8.923  72.690  1.00  0.00    -0.301 OA 
ATOM     22  OXT GLY A   2      -8.012   7.152  73.481  1.00  0.00    -0.104 OA 
ENDBRANCH  17  19
ENDBRANCH  14  15
BRANCH  14  23
HETATM   23  C   UNK A   1      -6.664  10.682  67.592  1.00  0.00    -0.072 C  
BRANCH  23  24
HETATM   24  S   UNK A   1      -7.471  10.324  66.000  1.00  0.00    -0.133 SA 
BRANCH  24  25
HETATM   25  S   UNK A   1      -8.962   9.034  66.560  1.00  0.00    -0.155 SA 
BRANCH  25  26
HETATM   26  C   UNK A   1     -10.467   9.933  66.041  1.00  0.00    -0.042 C  
BRANCH  26  27
HETATM   27  C   UNK A   1     -10.900  11.083  66.969  1.00  0.00    -0.279 C  
BRANCH  27  28
HETATM   28  C   UNK A   1     -11.546  12.238  66.147  1.00  0.00    -0.390 C  
ATOM     29  H   GLY A   2     -10.254  11.909  64.539  1.00  0.00     0.000 HD 
ATOM     30  N   GLY A   2     -11.056  12.444  64.873  1.00  0.00    -0.294 N  
HETATM   31  O   UNK A   1     -12.528  12.863  66.544  1.00  0.00    -0.396 OA 
BRANCH  30  32
ATOM     32  CA  GLY A   2     -11.693  13.430  64.009  1.00  0.00    -0.416 C  
ATOM     33  OXT GLY A   2     -12.351  15.782  64.055  1.00  0.00    -0.696 OA 
ATOM     34  C   GLY A   2     -11.545  14.914  64.371  1.00  0.00    -0.288 C  
ATOM     35  O   GLY A   2     -10.347  15.246  64.887  1.00  0.00    -0.363 OA 
ENDBRANCH  30  32
ENDBRANCH  27  28
BRANCH  27  36
HETATM   36  N   UNK A   1     -11.563  10.654  68.220  1.00  0.00    -0.459 N  
HETATM   37  H   UNK A   1     -12.016   9.741  68.250  1.00  0.00     0.000 HD 
HETATM   38  O   UNK A   1     -10.960  12.494  69.445  1.00  0.00    -0.133 OA 
HETATM   39  C   UNK A   1     -11.590  11.447  69.344  1.00  0.00    -0.323 C  
BRANCH  39  40
HETATM   40  C   UNK A   1     -12.346  10.891  70.541  1.00  0.00    -0.463 C  
BRANCH  40  41
HETATM   41  C   UNK A   1     -11.834   9.563  71.130  1.00  0.00    -0.436 C  
BRANCH  41  42
HETATM   42  C   UNK A   1     -12.880   8.529  71.571  1.00  0.00    -0.311 C  
HETATM   43  N   UNK A   1     -13.229   8.658  73.011  1.00  0.00    -0.816 NA 
HETATM   44  C   UNK A   1     -12.334   7.128  71.363  1.00  0.00    -0.377 C  
HETATM   45  O   UNK A   1     -12.263   6.486  70.331  1.00  0.00    -0.306 OA 
HETATM   46  O   UNK A   1     -11.838   6.672  72.536  1.00  0.00    -0.223 OA 
HETATM   47  H2  UNK A   1     -13.533   9.605  73.233  1.00  0.00     0.000 HD 
HETATM   48  H1  UNK A   1     -13.924   7.970  73.304  1.00  0.00     0.000 HD 
ENDBRANCH  41  42
ENDBRANCH  40  41
ENDBRANCH  39  40
ENDBRANCH  27  36
ENDBRANCH  26  27
ENDBRANCH  25  26
ENDBRANCH  24  25
ENDBRANCH  23  24
ENDBRANCH  14  23
ENDBRANCH  11  14
ENDBRANCH   9  10
ENDBRANCH   8   9
ENDBRANCH   4   8
TORSDOF 17
ENDMDL
MODEL      115
REMARK 921   NORMALIZED FREE ENERGY PREDICTED BY IDOCK:   -4.95 KCAL/MOL
REMARK 922        TOTAL FREE ENERGY PREDICTED BY IDOCK:  -12.85 KCAL/MOL
REMARK 923 INTER-LIGAND FREE ENERGY PREDICTED BY IDOCK:  -11.55 KCAL/MOL
REMARK 924 INTRA-LIGAND FREE ENERGY PREDICTED BY IDOCK:   -1.30 KCAL/MOL
REMARK 927      BINDING AFFINITY PREDICTED BY RF-SCORE:    0.00 PKD
ROOT
HETATM    1  N   UNK A   1      -9.007  14.800  69.527  1.00  0.00    -0.427 NA 
HETATM    2  H1  UNK A   1      -9.680  15.406  69.996  1.00  0.00     0.000 HD 
HETATM    3  H2  UNK A   1      -8.813  13.972  70.090  1.00  0.00     0.000 HD 
HETATM    4  C   UNK A   1      -7.743  15.491  69.154  1.00  0.00    -0.210 C  
HETATM    5  O   UNK A   1      -7.333  17.299  67.543  1.00  0.00    -0.161 OA 
HETATM    6  C   UNK A   1      -8.088  16.737  68.320  1.00  0.00    -0.202 C  
HETATM    7  O   UNK A   1      -9.360  17.145  68.561  1.00  0.00    -0.259 OA 
ENDROOT
BRANCH   4   8
HETATM    8  C   UNK A   1      -6.734  14.582  68.450  1.00  0.00    -0.105 C  
BRANCH   8   9
HETATM    9  C   UNK A   1      -5.946  13.652  69.374  1.00  0.00    -0.099 C  
BRANCH   9  10
HETATM   10  C   UNK A   1      -6.295  12.213  69.072  1.00  0.00    -0.087 C  
HETATM   11  N   UNK A   1      -7.580  11.854  69.421  1.00  0.00    -0.329 N  
HETATM   12  O   UNK A   1      -5.483  11.426  68.595  1.00  0.00    -0.043 OA 
HETATM   13  H   UNK A   1      -8.198  12.531  69.868  1.00  0.00     0.000 HD 
BRANCH  11  14
HETATM   14  C   UNK A   1      -8.053  10.491  69.145  1.00  0.00    -0.152 C  
BRANCH  14  15
HETATM   15  C   UNK A   1      -7.489   9.545  70.225  1.00  0.00    -0.143 C  
ATOM     16  H   GLY A   2      -8.090   7.918  69.096  1.00  0.00     0.000 HD 
ATOM     17  N   GLY A   2      -7.611   8.200  69.950  1.00  0.00    -0.087 N  
HETATM   18  O   UNK A   1      -6.988   9.952  71.261  1.00  0.00    -0.318 OA 
BRANCH  17  19
ATOM     19  CA  GLY A   2      -7.085   7.168  70.826  1.00  0.00    -0.066 C  
ATOM     20  C   GLY A   2      -8.080   6.077  71.188  1.00  0.00    -0.121 C  
ATOM     21  O   GLY A   2      -9.393   6.455  71.155  1.00  0.00    -0.159 OA 
ATOM     22  OXT GLY A   2      -7.756   4.956  71.551  1.00  0.00    -0.090 OA 
ENDBRANCH  17  19
ENDBRANCH  14  15
BRANCH  14  23
HETATM   23  C   UNK A   1      -7.634  10.046  67.733  1.00  0.00    -0.090 C  
BRANCH  23  24
HETATM   24  S   UNK A   1      -8.393  10.957  66.352  1.00  0.00    -0.164 SA 
BRANCH  24  25
HETATM   25  S   UNK A   1     -10.235  10.067  66.216  1.00  0.00    -0.182 SA 
BRANCH  25  26
HETATM   26  C   UNK A   1     -11.092  10.728  67.689  1.00  0.00    -0.319 C  
BRANCH  26  27
HETATM   27  C   UNK A   1     -11.055  12.260  67.841  1.00  0.00    -0.243 C  
BRANCH  27  28
HETATM   28  C   UNK A   1     -11.489  12.954  66.516  1.00  0.00    -0.341 C  
ATOM     29  H   GLY A   2      -9.738  14.093  66.457  1.00  0.00     0.000 HD 
ATOM     30  N   GLY A   2     -10.596  13.850  65.962  1.00  0.00    -0.288 N  
HETATM   31  O   UNK A   1     -12.512  12.641  65.910  1.00  0.00    -0.584 OA 
BRANCH  30  32
ATOM     32  CA  GLY A   2     -10.888  14.446  64.664  1.00  0.00    -0.346 C  
ATOM     33  OXT GLY A   2     -11.760  16.532  63.739  1.00  0.00    -1.086 OA 
ATOM     34  C   GLY A   2     -11.086  15.967  64.592  1.00  0.00    -0.354 C  
ATOM     35  O   GLY A   2     -10.288  16.672  65.416  1.00  0.00    -0.584 OA 
ENDBRANCH  30  32
ENDBRANCH  27  28
BRANCH  27  36
HETATM   36  N   UNK A   1     -11.607  12.771  69.116  1.00  0.00    -0.301 N  
HETATM   37  H   UNK A   1     -11.617  13.777  69.281  1.00  0.00     0.000 HD 
HETATM   38  O   UNK A   1     -12.262  10.727  69.919  1.00  0.00    -0.318 OA 
HETATM   39  C   UNK A   1     -12.106  11.932  70.085  1.00  0.00    -0.302 C  
BRANCH  39  40
HETATM   40  C   UNK A   1     -12.601  12.598  71.360  1.00  0.00    -0.304 C  
BRANCH  40  41
HETATM   41  C   UNK A   1     -13.380  13.917  71.198  1.00  0.00    -0.255 C  
BRANCH  41  42
HETATM   42  C   UNK A   1     -12.651  15.222  71.550  1.00  0.00    -0.373 C  
HETATM   43  N   UNK A   1     -11.173  15.057  71.568  1.00  0.00    -0.574 NA 
HETATM   44  C   UNK A   1     -13.070  15.685  72.934  1.00  0.00    -0.520 C  
HETATM   45  O   UNK A   1     -14.087  16.267  73.264  1.00  0.00    -0.434 OA 
HETATM   46  O   UNK A   1     -12.140  15.285  73.830  1.00  0.00    -0.532 OA 
HETATM   47  H2  UNK A   1     -10.835  14.674  70.686  1.00  0.00     0.000 HD 
HETATM   48  H1  UNK A   1     -10.689  15.924  71.802  1.00  0.00     0.000 HD 
ENDBRANCH  41  42
ENDBRANCH  40  41
ENDBRANCH  39  40
ENDBRANCH  27  36
ENDBRANCH  26  27
ENDBRANCH  25  26
ENDBRANCH  24  25
ENDBRANCH  23  24
ENDBRANCH  14  23
ENDBRANCH  11  14
ENDBRANCH   9  10
ENDBRANCH   8   9
ENDBRANCH   4   8
TORSDOF 17
ENDMDL
MODEL      116
REMARK 921   NORMALIZED FREE ENERGY PREDICTED BY IDOCK:   -4.95 KCAL/MOL
REMARK 922        TOTAL FREE ENERGY PREDICTED BY IDOCK:  -12.85 KCAL/MOL
REMARK 923 INTER-LIGAND FREE ENERGY PREDICTED BY IDOCK:  -11.24 KCAL/MOL
REMARK 924 INTRA-LIGAND FREE ENERGY PREDICTED BY IDOCK:   -1.61 KCAL/MOL
REMARK 927      BINDING AFFINITY PREDICTED BY RF-SCORE:    0.00 PKD
ROOT
HETATM    1  N   UNK A   1     -11.069  14.961  71.678  1.00  0.00    -0.505 NA 
HETATM    2  H1  UNK A   1     -10.959  15.620  72.448  1.00  0.00     0.000 HD 
HETATM    3  H2  UNK A   1     -10.501  15.243  70.878  1.00  0.00     0.000 HD 
HETATM    4  C   UNK A   1     -12.485  14.755  71.270  1.00  0.00    -0.325 C  
HETATM    5  O   UNK A   1     -14.360  13.739  72.489  1.00  0.00    -0.696 OA 
HETATM    6  C   UNK A   1     -13.302  14.347  72.508  1.00  0.00    -0.486 C  
HETATM    7  O   UNK A   1     -12.690  14.756  73.649  1.00  0.00    -0.519 OA 
ENDROOT
BRANCH   4   8
HETATM    8  C   UNK A   1     -12.650  13.766  70.114  1.00  0.00    -0.253 C  
BRANCH   8   9
HETATM    9  C   UNK A   1     -12.262  12.322  70.438  1.00  0.00    -0.371 C  
BRANCH   9  10
HETATM   10  C   UNK A   1     -11.235  11.832  69.444  1.00  0.00    -0.234 C  
HETATM   11  N   UNK A   1     -10.352  12.800  69.013  1.00  0.00    -0.437 N  
HETATM   12  O   UNK A   1     -11.221  10.677  69.028  1.00  0.00    -0.230 OA 
HETATM   13  H   UNK A   1     -10.442  13.760  69.345  1.00  0.00     0.000 HD 
BRANCH  11  14
HETATM   14  C   UNK A   1      -9.283  12.440  68.072  1.00  0.00    -0.203 C  
BRANCH  14  15
HETATM   15  C   UNK A   1      -9.876  12.377  66.650  1.00  0.00    -0.223 C  
ATOM     16  H   GLY A   2      -9.968  14.443  66.610  1.00  0.00     0.000 HD 
ATOM     17  N   GLY A   2     -10.137  13.597  66.067  1.00  0.00    -0.305 N  
HETATM   18  O   UNK A   1     -10.119  11.322  66.084  1.00  0.00    -0.220 OA 
BRANCH  17  19
ATOM     19  CA  GLY A   2     -10.642  13.729  64.712  1.00  0.00    -0.428 C  
ATOM     20  C   GLY A   2     -12.086  14.195  64.617  1.00  0.00    -0.452 C  
ATOM     21  O   GLY A   2     -12.867  13.890  65.697  1.00  0.00    -0.541 OA 
ATOM     22  OXT GLY A   2     -12.560  14.743  63.632  1.00  0.00    -0.749 OA 
ENDBRANCH  17  19
ENDBRANCH  14  15
BRANCH  14  23
HETATM   23  C   UNK A   1      -8.635  11.103  68.471  1.00  0.00    -0.157 C  
BRANCH  23  24
HETATM   24  S   UNK A   1      -7.184  10.596  67.496  1.00  0.00    -0.092 SA 
BRANCH  24  25
HETATM   25  S   UNK A   1      -7.765   8.761  66.791  1.00  0.00    -0.094 SA 
BRANCH  25  26
HETATM   26  C   UNK A   1      -7.851   7.768  68.323  1.00  0.00    -0.121 C  
BRANCH  26  27
HETATM   27  C   UNK A   1      -9.222   7.133  68.621  1.00  0.00    -0.135 C  
BRANCH  27  28
HETATM   28  C   UNK A   1      -9.094   5.587  68.755  1.00  0.00    -0.118 C  
ATOM     29  H   GLY A   2      -7.980   5.762  70.514  1.00  0.00     0.000 HD 
ATOM     30  N   GLY A   2      -8.430   5.113  69.869  1.00  0.00    -0.095 N  
HETATM   31  O   UNK A   1      -9.658   4.808  67.989  1.00  0.00    -0.138 OA 
BRANCH  30  32
ATOM     32  CA  GLY A   2      -8.375   3.677  70.115  1.00  0.00    -0.059 C  
ATOM     33  OXT GLY A   2      -8.297   2.124  71.999  1.00  0.00    -0.052 OA 
ATOM     34  C   GLY A   2      -8.723   3.169  71.521  1.00  0.00    -0.077 C  
ATOM     35  O   GLY A   2      -9.711   3.850  72.131  1.00  0.00    -0.142 OA 
ENDBRANCH  30  32
ENDBRANCH  27  28
BRANCH  27  36
HETATM   36  N   UNK A   1     -10.039   7.861  69.617  1.00  0.00    -0.193 N  
HETATM   37  H   UNK A   1      -9.730   8.780  69.932  1.00  0.00     0.000 HD 
HETATM   38  O   UNK A   1     -11.721   6.309  69.715  1.00  0.00    -0.403 OA 
HETATM   39  C   UNK A   1     -11.202   7.338  70.133  1.00  0.00    -0.239 C  
BRANCH  39  40
HETATM   40  C   UNK A   1     -11.912   8.181  71.181  1.00  0.00    -0.296 C  
BRANCH  40  41
HETATM   41  C   UNK A   1     -11.448   8.010  72.641  1.00  0.00    -0.465 C  
BRANCH  41  42
HETATM   42  C   UNK A   1     -10.313   7.013  72.915  1.00  0.00    -0.239 C  
HETATM   43  N   UNK A   1     -10.508   6.272  74.190  1.00  0.00    -0.383 NA 
HETATM   44  C   UNK A   1      -8.993   7.754  73.022  1.00  0.00    -0.199 C  
HETATM   45  O   UNK A   1      -8.286   8.178  72.127  1.00  0.00    -0.124 OA 
HETATM   46  O   UNK A   1      -8.712   7.962  74.329  1.00  0.00    -0.243 OA 
HETATM   47  H2  UNK A   1     -11.417   5.811  74.213  1.00  0.00     0.000 HD 
HETATM   48  H1  UNK A   1      -9.755   5.610  74.373  1.00  0.00     0.000 HD 
ENDBRANCH  41  42
ENDBRANCH  40  41
ENDBRANCH  39  40
ENDBRANCH  27  36
ENDBRANCH  26  27
ENDBRANCH  25  26
ENDBRANCH  24  25
ENDBRANCH  23  24
ENDBRANCH  14  23
ENDBRANCH  11  14
ENDBRANCH   9  10
ENDBRANCH   8   9
ENDBRANCH   4   8
TORSDOF 17
ENDMDL
MODEL      117
REMARK 921   NORMALIZED FREE ENERGY PREDICTED BY IDOCK:   -4.95 KCAL/MOL
REMARK 922        TOTAL FREE ENERGY PREDICTED BY IDOCK:  -12.83 KCAL/MOL
REMARK 923 INTER-LIGAND FREE ENERGY PREDICTED BY IDOCK:  -10.89 KCAL/MOL
REMARK 924 INTRA-LIGAND FREE ENERGY PREDICTED BY IDOCK:   -1.94 KCAL/MOL
REMARK 927      BINDING AFFINITY PREDICTED BY RF-SCORE:    0.00 PKD
ROOT
HETATM    1  N   UNK A   1     -12.140  16.198  71.386  1.00  0.00    -0.609 NA 
HETATM    2  H1  UNK A   1     -12.802  16.972  71.437  1.00  0.00     0.000 HD 
HETATM    3  H2  UNK A   1     -11.423  16.382  70.684  1.00  0.00     0.000 HD 
HETATM    4  C   UNK A   1     -12.786  14.879  71.146  1.00  0.00    -0.342 C  
HETATM    5  O   UNK A   1     -14.305  13.570  72.564  1.00  0.00    -0.713 OA 
HETATM    6  C   UNK A   1     -13.865  14.655  72.219  1.00  0.00    -0.479 C  
HETATM    7  O   UNK A   1     -14.280  15.836  72.744  1.00  0.00    -0.539 OA 
ENDROOT
BRANCH   4   8
HETATM    8  C   UNK A   1     -11.793  13.717  71.070  1.00  0.00    -0.063 C  
BRANCH   8   9
HETATM    9  C   UNK A   1     -12.016  12.751  69.905  1.00  0.00    -0.368 C  
BRANCH   9  10
HETATM   10  C   UNK A   1     -12.091  11.334  70.422  1.00  0.00    -0.384 C  
HETATM   11  N   UNK A   1     -10.939  10.599  70.238  1.00  0.00    -0.448 N  
HETATM   12  O   UNK A   1     -13.110  10.871  70.926  1.00  0.00    -0.298 OA 
HETATM   13  H   UNK A   1     -10.138  11.012  69.762  1.00  0.00     0.000 HD 
BRANCH  11  14
HETATM   14  C   UNK A   1     -10.873   9.217  70.731  1.00  0.00    -0.268 C  
BRANCH  14  15
HETATM   15  C   UNK A   1      -9.548   9.027  71.496  1.00  0.00    -0.270 C  
ATOM     16  H   GLY A   2     -10.495   7.717  72.787  1.00  0.00     0.000 HD 
ATOM     17  N   GLY A   2      -9.600   8.146  72.554  1.00  0.00    -0.247 N  
HETATM   18  O   UNK A   1      -8.526   9.628  71.203  1.00  0.00    -0.204 OA 
BRANCH  17  19
ATOM     19  CA  GLY A   2      -8.435   7.802  73.349  1.00  0.00    -0.196 C  
ATOM     20  C   GLY A   2      -8.206   6.309  73.525  1.00  0.00    -0.117 C  
ATOM     21  O   GLY A   2      -9.330   5.536  73.441  1.00  0.00    -0.138 OA 
ATOM     22  OXT GLY A   2      -7.120   5.816  73.789  1.00  0.00    -0.084 OA 
ENDBRANCH  17  19
ENDBRANCH  14  15
BRANCH  14  23
HETATM   23  C   UNK A   1     -10.998   8.218  69.567  1.00  0.00    -0.041 C  
BRANCH  23  24
HETATM   24  S   UNK A   1     -10.563   8.856  67.918  1.00  0.00    -0.133 SA 
BRANCH  24  25
HETATM   25  S   UNK A   1      -8.568   8.401  67.799  1.00  0.00    -0.131 SA 
BRANCH  25  26
HETATM   26  C   UNK A   1      -8.487   7.415  66.262  1.00  0.00    -0.137 C  
BRANCH  26  27
HETATM   27  C   UNK A   1      -8.070   8.194  65.000  1.00  0.00    -0.155 C  
BRANCH  27  28
HETATM   28  C   UNK A   1      -7.138   7.327  64.102  1.00  0.00    -0.067 C  
ATOM     29  H   GLY A   2      -8.118   5.569  64.664  1.00  0.00     0.000 HD 
ATOM     30  N   GLY A   2      -7.400   5.972  64.062  1.00  0.00    -0.060 N  
HETATM   31  O   UNK A   1      -6.290   7.819  63.360  1.00  0.00    -0.061 OA 
BRANCH  30  32
ATOM     32  CA  GLY A   2      -6.642   5.121  63.153  1.00  0.00    -0.026 C  
ATOM     33  OXT GLY A   2      -5.918   2.795  62.965  1.00  0.00    -0.009 OA 
ATOM     34  C   GLY A   2      -6.781   3.599  63.299  1.00  0.00    -0.035 C  
ATOM     35  O   GLY A   2      -8.018   3.181  63.628  1.00  0.00    -0.079 OA 
ENDBRANCH  30  32
ENDBRANCH  27  28
BRANCH  27  36
HETATM   36  N   UNK A   1      -9.160   8.957  64.353  1.00  0.00    -0.396 N  
HETATM   37  H   UNK A   1      -9.849   8.454  63.793  1.00  0.00     0.000 HD 
HETATM   38  O   UNK A   1      -8.581  10.988  65.241  1.00  0.00    -0.151 OA 
HETATM   39  C   UNK A   1      -9.276  10.321  64.481  1.00  0.00    -0.250 C  
BRANCH  39  40
HETATM   40  C   UNK A   1     -10.423  10.973  63.724  1.00  0.00    -0.408 C  
BRANCH  40  41
HETATM   41  C   UNK A   1     -10.449  12.513  63.696  1.00  0.00    -0.418 C  
BRANCH  41  42
HETATM   42  C   UNK A   1     -11.693  13.215  64.259  1.00  0.00    -0.395 C  
HETATM   43  N   UNK A   1     -12.382  14.049  63.238  1.00  0.00    -1.145 NA 
HETATM   44  C   UNK A   1     -11.292  14.136  65.397  1.00  0.00    -0.322 C  
HETATM   45  O   UNK A   1     -11.039  13.848  66.553  1.00  0.00    -0.302 OA 
HETATM   46  O   UNK A   1     -11.175  15.396  64.921  1.00  0.00    -0.401 OA 
HETATM   47  H2  UNK A   1     -12.612  13.501  62.410  1.00  0.00     0.000 HD 
HETATM   48  H1  UNK A   1     -13.209  14.515  63.612  1.00  0.00     0.000 HD 
ENDBRANCH  41  42
ENDBRANCH  40  41
ENDBRANCH  39  40
ENDBRANCH  27  36
ENDBRANCH  26  27
ENDBRANCH  25  26
ENDBRANCH  24  25
ENDBRANCH  23  24
ENDBRANCH  14  23
ENDBRANCH  11  14
ENDBRANCH   9  10
ENDBRANCH   8   9
ENDBRANCH   4   8
TORSDOF 17
ENDMDL
MODEL      118
REMARK 921   NORMALIZED FREE ENERGY PREDICTED BY IDOCK:   -4.94 KCAL/MOL
REMARK 922        TOTAL FREE ENERGY PREDICTED BY IDOCK:  -12.82 KCAL/MOL
REMARK 923 INTER-LIGAND FREE ENERGY PREDICTED BY IDOCK:   -9.88 KCAL/MOL
REMARK 924 INTRA-LIGAND FREE ENERGY PREDICTED BY IDOCK:   -2.94 KCAL/MOL
REMARK 927      BINDING AFFINITY PREDICTED BY RF-SCORE:    0.00 PKD
ROOT
HETATM    1  N   UNK A   1     -10.146  13.370  64.030  1.00  0.00    -0.749 NA 
HETATM    2  H1  UNK A   1     -10.417  14.352  63.989  1.00  0.00     0.000 HD 
HETATM    3  H2  UNK A   1      -9.213  13.236  63.639  1.00  0.00     0.000 HD 
HETATM    4  C   UNK A   1     -11.125  12.456  63.381  1.00  0.00    -0.402 C  
HETATM    5  O   UNK A   1     -13.440  11.909  63.994  1.00  0.00    -0.600 OA 
HETATM    6  C   UNK A   1     -12.515  12.705  63.993  1.00  0.00    -0.399 C  
HETATM    7  O   UNK A   1     -12.588  13.945  64.540  1.00  0.00    -0.629 OA 
ENDROOT
BRANCH   4   8
HETATM    8  C   UNK A   1     -10.719  10.982  63.443  1.00  0.00    -0.175 C  
BRANCH   8   9
HETATM    9  C   UNK A   1     -10.091  10.539  64.766  1.00  0.00    -0.406 C  
BRANCH   9  10
HETATM   10  C   UNK A   1      -8.824   9.761  64.496  1.00  0.00    -0.216 C  
HETATM   11  N   UNK A   1      -8.240   9.217  65.621  1.00  0.00    -0.116 N  
HETATM   12  O   UNK A   1      -8.341   9.662  63.372  1.00  0.00    -0.145 OA 
HETATM   13  H   UNK A   1      -8.651   9.376  66.540  1.00  0.00     0.000 HD 
BRANCH  11  14
HETATM   14  C   UNK A   1      -7.023   8.406  65.486  1.00  0.00    -0.070 C  
BRANCH  14  15
HETATM   15  C   UNK A   1      -7.141   7.178  66.411  1.00  0.00    -0.077 C  
ATOM     16  H   GLY A   2      -9.193   7.437  66.471  1.00  0.00     0.000 HD 
ATOM     17  N   GLY A   2      -8.424   6.845  66.784  1.00  0.00    -0.115 N  
HETATM   18  O   UNK A   1      -6.168   6.554  66.805  1.00  0.00    -0.037 OA 
BRANCH  17  19
ATOM     19  CA  GLY A   2      -8.728   5.685  67.604  1.00  0.00    -0.107 C  
ATOM     20  C   GLY A   2      -9.680   4.688  66.963  1.00  0.00    -0.195 C  
ATOM     21  O   GLY A   2     -10.536   5.215  66.038  1.00  0.00    -0.252 OA 
ATOM     22  OXT GLY A   2      -9.743   3.510  67.281  1.00  0.00    -0.183 OA 
ENDBRANCH  17  19
ENDBRANCH  14  15
BRANCH  14  23
HETATM   23  C   UNK A   1      -5.774   9.242  65.817  1.00  0.00    -0.049 C  
BRANCH  23  24
HETATM   24  S   UNK A   1      -6.081  10.947  66.378  1.00  0.00    -0.141 SA 
BRANCH  24  25
HETATM   25  S   UNK A   1      -5.649  10.822  68.378  1.00  0.00    -0.043 SA 
BRANCH  25  26
HETATM   26  C   UNK A   1      -7.221  10.199  69.074  1.00  0.00    -0.076 C  
BRANCH  26  27
HETATM   27  C   UNK A   1      -8.488  10.936  68.604  1.00  0.00    -0.152 C  
BRANCH  27  28
HETATM   28  C   UNK A   1      -9.762  10.101  68.929  1.00  0.00    -0.187 C  
ATOM     29  H   GLY A   2      -9.537  10.427  70.980  1.00  0.00     0.000 HD 
ATOM     30  N   GLY A   2     -10.131  10.021  70.257  1.00  0.00    -0.232 N  
HETATM   31  O   UNK A   1     -10.488   9.634  68.053  1.00  0.00    -0.203 OA 
BRANCH  30  32
ATOM     32  CA  GLY A   2     -11.375   9.353  70.618  1.00  0.00    -0.292 C  
ATOM     33  OXT GLY A   2     -12.285   7.092  70.775  1.00  0.00    -0.353 OA 
ATOM     34  C   GLY A   2     -11.331   7.848  70.915  1.00  0.00    -0.277 C  
ATOM     35  O   GLY A   2     -10.218   7.438  71.552  1.00  0.00    -0.193 OA 
ENDBRANCH  30  32
ENDBRANCH  27  28
BRANCH  27  36
HETATM   36  N   UNK A   1      -8.505  12.387  68.894  1.00  0.00    -0.348 N  
HETATM   37  H   UNK A   1      -8.078  12.722  69.757  1.00  0.00     0.000 HD 
HETATM   38  O   UNK A   1      -9.492  13.006  66.922  1.00  0.00    -0.228 OA 
HETATM   39  C   UNK A   1      -9.080  13.298  68.039  1.00  0.00    -0.202 C  
BRANCH  39  40
HETATM   40  C   UNK A   1      -9.059  14.750  68.491  1.00  0.00    -0.187 C  
BRANCH  40  41
HETATM   41  C   UNK A   1     -10.073  15.699  67.824  1.00  0.00    -0.226 C  
BRANCH  41  42
HETATM   42  C   UNK A   1     -11.101  16.394  68.728  1.00  0.00    -0.337 C  
HETATM   43  N   UNK A   1     -10.543  17.601  69.395  1.00  0.00    -0.328 NA 
HETATM   44  C   UNK A   1     -11.548  15.441  69.822  1.00  0.00    -0.323 C  
HETATM   45  O   UNK A   1     -12.354  14.531  69.754  1.00  0.00    -0.316 OA 
HETATM   46  O   UNK A   1     -10.841  15.701  70.946  1.00  0.00    -0.315 OA 
HETATM   47  H2  UNK A   1     -10.155  18.251  68.712  1.00  0.00     0.000 HD 
HETATM   48  H1  UNK A   1     -11.226  18.062  69.996  1.00  0.00     0.000 HD 
ENDBRANCH  41  42
ENDBRANCH  40  41
ENDBRANCH  39  40
ENDBRANCH  27  36
ENDBRANCH  26  27
ENDBRANCH  25  26
ENDBRANCH  24  25
ENDBRANCH  23  24
ENDBRANCH  14  23
ENDBRANCH  11  14
ENDBRANCH   9  10
ENDBRANCH   8   9
ENDBRANCH   4   8
TORSDOF 17
ENDMDL
MODEL      119
REMARK 921   NORMALIZED FREE ENERGY PREDICTED BY IDOCK:   -4.93 KCAL/MOL
REMARK 922        TOTAL FREE ENERGY PREDICTED BY IDOCK:  -12.80 KCAL/MOL
REMARK 923 INTER-LIGAND FREE ENERGY PREDICTED BY IDOCK:  -11.58 KCAL/MOL
REMARK 924 INTRA-LIGAND FREE ENERGY PREDICTED BY IDOCK:   -1.22 KCAL/MOL
REMARK 927      BINDING AFFINITY PREDICTED BY RF-SCORE:    0.00 PKD
ROOT
HETATM    1  N   UNK A   1     -13.538  13.347  72.284  1.00  0.00    -0.566 NA 
HETATM    2  H1  UNK A   1     -13.257  12.828  73.116  1.00  0.00     0.000 HD 
HETATM    3  H2  UNK A   1     -13.714  12.712  71.505  1.00  0.00     0.000 HD 
HETATM    4  C   UNK A   1     -12.571  14.407  71.890  1.00  0.00    -0.337 C  
HETATM    5  O   UNK A   1     -11.925  16.479  73.040  1.00  0.00    -0.530 OA 
HETATM    6  C   UNK A   1     -12.327  15.328  73.098  1.00  0.00    -0.447 C  
HETATM    7  O   UNK A   1     -12.619  14.690  74.260  1.00  0.00    -0.416 OA 
ENDROOT
BRANCH   4   8
HETATM    8  C   UNK A   1     -12.993  15.185  70.641  1.00  0.00    -0.420 C  
BRANCH   8   9
HETATM    9  C   UNK A   1     -11.841  15.776  69.827  1.00  0.00    -0.352 C  
BRANCH   9  10
HETATM   10  C   UNK A   1     -11.303  14.736  68.872  1.00  0.00    -0.282 C  
HETATM   11  N   UNK A   1      -9.962  14.868  68.582  1.00  0.00    -0.218 N  
HETATM   12  O   UNK A   1     -12.018  13.874  68.369  1.00  0.00    -0.354 OA 
HETATM   13  H   UNK A   1      -9.424  15.637  68.982  1.00  0.00     0.000 HD 
BRANCH  11  14
HETATM   14  C   UNK A   1      -9.312  13.896  67.693  1.00  0.00    -0.205 C  
BRANCH  14  15
HETATM   15  C   UNK A   1      -9.730  14.199  66.239  1.00  0.00    -0.297 C  
ATOM     16  H   GLY A   2     -10.053  12.180  65.924  1.00  0.00     0.000 HD 
ATOM     17  N   GLY A   2     -10.110  13.104  65.496  1.00  0.00    -0.284 N  
HETATM   18  O   UNK A   1      -9.707  15.326  65.769  1.00  0.00    -0.327 OA 
BRANCH  17  19
ATOM     19  CA  GLY A   2     -10.588  13.209  64.129  1.00  0.00    -0.361 C  
ATOM     20  C   GLY A   2     -12.072  13.512  63.998  1.00  0.00    -0.441 C  
ATOM     21  O   GLY A   2     -12.844  13.098  65.047  1.00  0.00    -0.692 OA 
ATOM     22  OXT GLY A   2     -12.575  14.025  63.009  1.00  0.00    -0.643 OA 
ENDBRANCH  17  19
ENDBRANCH  14  15
BRANCH  14  23
HETATM   23  C   UNK A   1      -9.683  12.458  68.096  1.00  0.00    -0.214 C  
BRANCH  23  24
HETATM   24  S   UNK A   1      -8.293  11.296  68.275  1.00  0.00    -0.156 SA 
BRANCH  24  25
HETATM   25  S   UNK A   1      -9.041   9.944  69.622  1.00  0.00    -0.221 SA 
BRANCH  25  26
HETATM   26  C   UNK A   1     -10.247   9.016  68.610  1.00  0.00    -0.205 C  
BRANCH  26  27
HETATM   27  C   UNK A   1     -10.273   7.494  68.845  1.00  0.00    -0.208 C  
BRANCH  27  28
HETATM   28  C   UNK A   1      -9.312   6.769  67.857  1.00  0.00    -0.113 C  
ATOM     29  H   GLY A   2     -10.904   5.809  66.903  1.00  0.00     0.000 HD 
ATOM     30  N   GLY A   2      -9.896   5.969  66.895  1.00  0.00    -0.149 N  
HETATM   31  O   UNK A   1      -8.101   6.984  67.836  1.00  0.00    -0.113 OA 
BRANCH  30  32
ATOM     32  CA  GLY A   2      -9.063   5.355  65.869  1.00  0.00    -0.157 C  
ATOM     33  OXT GLY A   2      -8.989   3.323  64.516  1.00  0.00    -0.115 OA 
ATOM     34  C   GLY A   2      -9.656   4.202  65.047  1.00  0.00    -0.180 C  
ATOM     35  O   GLY A   2     -10.966   4.336  64.763  1.00  0.00    -0.249 OA 
ENDBRANCH  30  32
ENDBRANCH  27  28
BRANCH  27  36
HETATM   36  N   UNK A   1     -10.259   7.086  70.267  1.00  0.00    -0.191 N  
HETATM   37  H   UNK A   1      -9.362   6.927  70.726  1.00  0.00     0.000 HD 
HETATM   38  O   UNK A   1     -12.527   7.216  70.568  1.00  0.00    -0.185 OA 
HETATM   39  C   UNK A   1     -11.416   6.915  70.992  1.00  0.00    -0.314 C  
BRANCH  39  40
HETATM   40  C   UNK A   1     -11.246   6.452  72.431  1.00  0.00    -0.313 C  
BRANCH  40  41
HETATM   41  C   UNK A   1     -10.734   7.497  73.440  1.00  0.00    -0.387 C  
BRANCH  41  42
HETATM   42  C   UNK A   1      -9.227   7.524  73.735  1.00  0.00    -0.275 C  
HETATM   43  N   UNK A   1      -8.484   8.409  72.800  1.00  0.00    -0.323 NA 
HETATM   44  C   UNK A   1      -8.651   6.128  73.587  1.00  0.00    -0.124 C  
HETATM   45  O   UNK A   1      -8.700   5.199  74.373  1.00  0.00    -0.112 OA 
HETATM   46  O   UNK A   1      -8.097   6.010  72.359  1.00  0.00    -0.109 OA 
HETATM   47  H2  UNK A   1      -8.874   9.351  72.796  1.00  0.00     0.000 HD 
HETATM   48  H1  UNK A   1      -7.483   8.427  72.995  1.00  0.00     0.000 HD 
ENDBRANCH  41  42
ENDBRANCH  40  41
ENDBRANCH  39  40
ENDBRANCH  27  36
ENDBRANCH  26  27
ENDBRANCH  25  26
ENDBRANCH  24  25
ENDBRANCH  23  24
ENDBRANCH  14  23
ENDBRANCH  11  14
ENDBRANCH   9  10
ENDBRANCH   8   9
ENDBRANCH   4   8
TORSDOF 17
ENDMDL
MODEL      120
REMARK 921   NORMALIZED FREE ENERGY PREDICTED BY IDOCK:   -4.93 KCAL/MOL
REMARK 922        TOTAL FREE ENERGY PREDICTED BY IDOCK:  -12.80 KCAL/MOL
REMARK 923 INTER-LIGAND FREE ENERGY PREDICTED BY IDOCK:  -10.72 KCAL/MOL
REMARK 924 INTRA-LIGAND FREE ENERGY PREDICTED BY IDOCK:   -2.08 KCAL/MOL
REMARK 927      BINDING AFFINITY PREDICTED BY RF-SCORE:    0.00 PKD
ROOT
HETATM    1  N   UNK A   1     -11.005  17.572  64.906  1.00  0.00    -0.827 NA 
HETATM    2  H1  UNK A   1     -11.009  18.487  65.358  1.00  0.00     0.000 HD 
HETATM    3  H2  UNK A   1     -11.952  17.293  64.649  1.00  0.00     0.000 HD 
HETATM    4  C   UNK A   1     -10.344  16.512  65.715  1.00  0.00    -0.341 C  
HETATM    5  O   UNK A   1      -7.996  16.258  66.391  1.00  0.00    -0.290 OA 
HETATM    6  C   UNK A   1      -8.928  16.986  66.088  1.00  0.00    -0.208 C  
HETATM    7  O   UNK A   1      -8.841  18.339  66.040  1.00  0.00    -0.502 OA 
ENDROOT
BRANCH   4   8
HETATM    8  C   UNK A   1     -10.338  15.141  65.036  1.00  0.00    -0.377 C  
BRANCH   8   9
HETATM    9  C   UNK A   1     -11.704  14.653  64.551  1.00  0.00    -0.410 C  
BRANCH   9  10
HETATM   10  C   UNK A   1     -12.017  13.310  65.166  1.00  0.00    -0.381 C  
HETATM   11  N   UNK A   1     -11.044  12.834  66.019  1.00  0.00    -0.278 N  
HETATM   12  O   UNK A   1     -13.036  12.683  64.891  1.00  0.00    -0.850 OA 
HETATM   13  H   UNK A   1     -10.189  13.367  66.170  1.00  0.00     0.000 HD 
BRANCH  11  14
HETATM   14  C   UNK A   1     -11.248  11.553  66.709  1.00  0.00    -0.285 C  
BRANCH  14  15
HETATM   15  C   UNK A   1     -11.081  11.776  68.226  1.00  0.00    -0.240 C  
ATOM     16  H   GLY A   2     -13.104  11.424  68.487  1.00  0.00     0.000 HD 
ATOM     17  N   GLY A   2     -12.230  11.625  68.972  1.00  0.00    -0.212 N  
HETATM   18  O   UNK A   1     -10.014  12.085  68.733  1.00  0.00    -0.176 OA 
BRANCH  17  19
ATOM     19  CA  GLY A   2     -12.248  11.741  70.419  1.00  0.00    -0.330 C  
ATOM     20  C   GLY A   2     -12.756  13.076  70.942  1.00  0.00    -0.217 C  
ATOM     21  O   GLY A   2     -12.588  14.133  70.092  1.00  0.00    -0.345 OA 
ATOM     22  OXT GLY A   2     -13.223  13.233  72.060  1.00  0.00    -0.418 OA 
ENDBRANCH  17  19
ENDBRANCH  14  15
BRANCH  14  23
HETATM   23  C   UNK A   1     -10.264  10.491  66.186  1.00  0.00    -0.236 C  
BRANCH  23  24
HETATM   24  S   UNK A   1     -10.162   8.952  67.153  1.00  0.00    -0.281 SA 
BRANCH  24  25
HETATM   25  S   UNK A   1      -8.136   8.672  67.293  1.00  0.00    -0.101 SA 
BRANCH  25  26
HETATM   26  C   UNK A   1      -8.004   7.491  68.682  1.00  0.00    -0.123 C  
BRANCH  26  27
HETATM   27  C   UNK A   1      -9.344   6.967  69.231  1.00  0.00    -0.144 C  
BRANCH  27  28
HETATM   28  C   UNK A   1      -9.608   5.513  68.738  1.00  0.00    -0.135 C  
ATOM     29  H   GLY A   2      -9.405   6.080  66.738  1.00  0.00     0.000 HD 
ATOM     30  N   GLY A   2      -9.539   5.296  67.377  1.00  0.00    -0.127 N  
HETATM   31  O   UNK A   1      -9.745   4.567  69.512  1.00  0.00    -0.183 OA 
BRANCH  30  32
ATOM     32  CA  GLY A   2      -9.660   3.939  66.858  1.00  0.00    -0.200 C  
ATOM     33  OXT GLY A   2      -9.202   2.692  64.809  1.00  0.00    -0.131 OA 
ATOM     34  C   GLY A   2      -8.871   3.572  65.594  1.00  0.00    -0.129 C  
ATOM     35  O   GLY A   2      -7.655   4.145  65.510  1.00  0.00    -0.083 OA 
ENDBRANCH  30  32
ENDBRANCH  27  28
BRANCH  27  36
HETATM   36  N   UNK A   1      -9.598   7.284  70.654  1.00  0.00    -0.172 N  
HETATM   37  H   UNK A   1      -8.970   6.907  71.363  1.00  0.00     0.000 HD 
HETATM   38  O   UNK A   1     -11.375   8.678  70.266  1.00  0.00    -0.235 OA 
HETATM   39  C   UNK A   1     -10.653   8.071  71.051  1.00  0.00    -0.213 C  
BRANCH  39  40
HETATM   40  C   UNK A   1     -10.813   8.276  72.550  1.00  0.00    -0.421 C  
BRANCH  40  41
HETATM   41  C   UNK A   1     -10.285   7.153  73.464  1.00  0.00    -0.394 C  
BRANCH  41  42
HETATM   42  C   UNK A   1      -8.958   7.397  74.197  1.00  0.00    -0.225 C  
HETATM   43  N   UNK A   1      -8.501   8.808  74.084  1.00  0.00    -0.245 NA 
HETATM   44  C   UNK A   1      -7.873   6.523  73.596  1.00  0.00    -0.090 C  
HETATM   45  O   UNK A   1      -7.659   5.339  73.786  1.00  0.00    -0.096 OA 
HETATM   46  O   UNK A   1      -7.162   7.254  72.707  1.00  0.00    -0.071 OA 
HETATM   47  H2  UNK A   1      -9.222   9.455  74.403  1.00  0.00     0.000 HD 
HETATM   48  H1  UNK A   1      -7.619   8.970  74.571  1.00  0.00     0.000 HD 
ENDBRANCH  41  42
ENDBRANCH  40  41
ENDBRANCH  39  40
ENDBRANCH  27  36
ENDBRANCH  26  27
ENDBRANCH  25  26
ENDBRANCH  24  25
ENDBRANCH  23  24
ENDBRANCH  14  23
ENDBRANCH  11  14
ENDBRANCH   9  10
ENDBRANCH   8   9
ENDBRANCH   4   8
TORSDOF 17
ENDMDL
MODEL      121
REMARK 921   NORMALIZED FREE ENERGY PREDICTED BY IDOCK:   -4.93 KCAL/MOL
REMARK 922        TOTAL FREE ENERGY PREDICTED BY IDOCK:  -12.79 KCAL/MOL
REMARK 923 INTER-LIGAND FREE ENERGY PREDICTED BY IDOCK:  -10.75 KCAL/MOL
REMARK 924 INTRA-LIGAND FREE ENERGY PREDICTED BY IDOCK:   -2.04 KCAL/MOL
REMARK 927      BINDING AFFINITY PREDICTED BY RF-SCORE:    0.00 PKD
ROOT
HETATM    1  N   UNK A   1      -7.526   4.807  67.254  1.00  0.00    -0.081 NA 
HETATM    2  H1  UNK A   1      -7.808   4.331  68.111  1.00  0.00     0.000 HD 
HETATM    3  H2  UNK A   1      -6.736   5.429  67.430  1.00  0.00     0.000 HD 
HETATM    4  C   UNK A   1      -8.636   5.540  66.589  1.00  0.00    -0.116 C  
HETATM    5  O   UNK A   1     -10.685   4.701  65.524  1.00  0.00    -0.275 OA 
HETATM    6  C   UNK A   1      -9.804   4.566  66.359  1.00  0.00    -0.229 C  
HETATM    7  O   UNK A   1      -9.737   3.517  67.218  1.00  0.00    -0.183 OA 
ENDROOT
BRANCH   4   8
HETATM    8  C   UNK A   1      -8.213   6.254  65.303  1.00  0.00    -0.138 C  
BRANCH   8   9
HETATM    9  C   UNK A   1      -8.480   7.760  65.281  1.00  0.00    -0.099 C  
BRANCH   9  10
HETATM   10  C   UNK A   1      -8.150   8.358  66.629  1.00  0.00    -0.101 C  
HETATM   11  N   UNK A   1      -9.249   8.763  67.357  1.00  0.00    -0.135 N  
HETATM   12  O   UNK A   1      -6.994   8.505  67.017  1.00  0.00    -0.072 OA 
HETATM   13  H   UNK A   1     -10.185   8.671  66.965  1.00  0.00     0.000 HD 
BRANCH  11  14
HETATM   14  C   UNK A   1      -9.061   9.328  68.700  1.00  0.00    -0.132 C  
BRANCH  14  15
HETATM   15  C   UNK A   1     -10.109   8.709  69.647  1.00  0.00    -0.201 C  
ATOM     16  H   GLY A   2      -9.676  10.162  71.055  1.00  0.00     0.000 HD 
ATOM     17  N   GLY A   2     -10.271   9.359  70.850  1.00  0.00    -0.295 N  
HETATM   18  O   UNK A   1     -10.738   7.701  69.364  1.00  0.00    -0.230 OA 
BRANCH  17  19
ATOM     19  CA  GLY A   2     -11.253   8.951  71.839  1.00  0.00    -0.377 C  
ATOM     20  C   GLY A   2     -12.545   9.751  71.818  1.00  0.00    -0.416 C  
ATOM     21  O   GLY A   2     -12.431  11.025  71.335  1.00  0.00    -0.360 OA 
ATOM     22  OXT GLY A   2     -13.608   9.336  72.255  1.00  0.00    -0.438 OA 
ENDBRANCH  17  19
ENDBRANCH  14  15
BRANCH  14  23
HETATM   23  C   UNK A   1      -9.172  10.862  68.664  1.00  0.00    -0.187 C  
BRANCH  23  24
HETATM   24  S   UNK A   1      -7.599  11.777  68.704  1.00  0.00    -0.106 SA 
BRANCH  24  25
HETATM   25  S   UNK A   1      -8.064  13.469  67.645  1.00  0.00    -0.195 SA 
BRANCH  25  26
HETATM   26  C   UNK A   1      -8.529  14.639  68.970  1.00  0.00    -0.095 C  
BRANCH  26  27
HETATM   27  C   UNK A   1      -9.488  15.767  68.547  1.00  0.00    -0.201 C  
BRANCH  27  28
HETATM   28  C   UNK A   1     -10.947  15.440  68.983  1.00  0.00    -0.252 C  
ATOM     29  H   GLY A   2     -10.416  15.432  71.003  1.00  0.00     0.000 HD 
ATOM     30  N   GLY A   2     -11.188  15.361  70.340  1.00  0.00    -0.296 N  
HETATM   31  O   UNK A   1     -11.879  15.379  68.182  1.00  0.00    -0.320 OA 
BRANCH  30  32
ATOM     32  CA  GLY A   2     -12.552  15.173  70.818  1.00  0.00    -0.393 C  
ATOM     33  OXT GLY A   2     -13.728  14.192  72.721  1.00  0.00    -0.628 OA 
ATOM     34  C   GLY A   2     -12.759  14.809  72.295  1.00  0.00    -0.332 C  
ATOM     35  O   GLY A   2     -11.898  15.404  73.142  1.00  0.00    -0.443 OA 
ENDBRANCH  30  32
ENDBRANCH  27  28
BRANCH  27  36
HETATM   36  N   UNK A   1      -8.975  17.136  68.777  1.00  0.00    -0.258 N  
HETATM   37  H   UNK A   1      -9.351  17.680  69.554  1.00  0.00     0.000 HD 
HETATM   38  O   UNK A   1      -7.402  17.077  67.112  1.00  0.00    -0.147 OA 
HETATM   39  C   UNK A   1      -8.008  17.699  67.978  1.00  0.00    -0.241 C  
BRANCH  39  40
HETATM   40  C   UNK A   1      -7.611  19.130  68.310  1.00  0.00    -0.339 C  
BRANCH  40  41
HETATM   41  C   UNK A   1      -8.270  20.245  67.476  1.00  0.00    -0.358 C  
BRANCH  41  42
HETATM   42  C   UNK A   1      -9.786  20.442  67.623  1.00  0.00    -0.400 C  
HETATM   43  N   UNK A   1     -10.308  19.878  68.896  1.00  0.00    -0.586 NA 
HETATM   44  C   UNK A   1     -10.507  19.738  66.489  1.00  0.00    -0.500 C  
HETATM   45  O   UNK A   1     -10.659  20.109  65.339  1.00  0.00    -0.345 OA 
HETATM   46  O   UNK A   1     -10.933  18.530  66.922  1.00  0.00    -0.254 OA 
HETATM   47  H2  UNK A   1      -9.808  20.257  69.699  1.00  0.00     0.000 HD 
HETATM   48  H1  UNK A   1     -11.315  20.009  68.994  1.00  0.00     0.000 HD 
ENDBRANCH  41  42
ENDBRANCH  40  41
ENDBRANCH  39  40
ENDBRANCH  27  36
ENDBRANCH  26  27
ENDBRANCH  25  26
ENDBRANCH  24  25
ENDBRANCH  23  24
ENDBRANCH  14  23
ENDBRANCH  11  14
ENDBRANCH   9  10
ENDBRANCH   8   9
ENDBRANCH   4   8
TORSDOF 17
ENDMDL
MODEL      122
REMARK 921   NORMALIZED FREE ENERGY PREDICTED BY IDOCK:   -4.91 KCAL/MOL
REMARK 922        TOTAL FREE ENERGY PREDICTED BY IDOCK:  -12.76 KCAL/MOL
REMARK 923 INTER-LIGAND FREE ENERGY PREDICTED BY IDOCK:  -11.87 KCAL/MOL
REMARK 924 INTRA-LIGAND FREE ENERGY PREDICTED BY IDOCK:   -0.89 KCAL/MOL
REMARK 927      BINDING AFFINITY PREDICTED BY RF-SCORE:    0.00 PKD
ROOT
HETATM    1  N   UNK A   1     -12.951  15.946  70.615  1.00  0.00    -0.686 NA 
HETATM    2  H1  UNK A   1     -12.709  16.926  70.762  1.00  0.00     0.000 HD 
HETATM    3  H2  UNK A   1     -13.512  15.835  69.771  1.00  0.00     0.000 HD 
HETATM    4  C   UNK A   1     -13.627  15.318  71.783  1.00  0.00    -0.483 C  
HETATM    5  O   UNK A   1     -12.786  14.838  74.040  1.00  0.00    -0.455 OA 
HETATM    6  C   UNK A   1     -12.751  15.524  73.031  1.00  0.00    -0.454 C  
HETATM    7  O   UNK A   1     -11.918  16.583  72.869  1.00  0.00    -0.536 OA 
ENDROOT
BRANCH   4   8
HETATM    8  C   UNK A   1     -13.989  13.848  71.562  1.00  0.00    -0.238 C  
BRANCH   8   9
HETATM    9  C   UNK A   1     -12.811  12.875  71.632  1.00  0.00    -0.368 C  
BRANCH   9  10
HETATM   10  C   UNK A   1     -12.164  12.755  70.272  1.00  0.00    -0.277 C  
HETATM   11  N   UNK A   1     -11.179  13.689  70.025  1.00  0.00    -0.478 N  
HETATM   12  O   UNK A   1     -12.520  11.919  69.447  1.00  0.00    -0.062 OA 
HETATM   13  H   UNK A   1     -10.960  14.399  70.723  1.00  0.00     0.000 HD 
BRANCH  11  14
HETATM   14  C   UNK A   1     -10.450  13.654  68.751  1.00  0.00    -0.202 C  
BRANCH  14  15
HETATM   15  C   UNK A   1     -11.335  14.286  67.657  1.00  0.00    -0.324 C  
ATOM     16  H   GLY A   2     -11.255  12.516  66.589  1.00  0.00     0.000 HD 
ATOM     17  N   GLY A   2     -11.649  13.456  66.604  1.00  0.00    -0.344 N  
HETATM   18  O   UNK A   1     -11.715  15.445  67.706  1.00  0.00    -0.297 OA 
BRANCH  17  19
ATOM     19  CA  GLY A   2     -12.519  13.864  65.514  1.00  0.00    -0.511 C  
ATOM     20  C   GLY A   2     -12.029  13.467  64.131  1.00  0.00    -0.450 C  
ATOM     21  O   GLY A   2     -10.675  13.320  64.014  1.00  0.00    -0.377 OA 
ATOM     22  OXT GLY A   2     -12.762  13.347  63.160  1.00  0.00    -0.663 OA 
ENDBRANCH  17  19
ENDBRANCH  14  15
BRANCH  14  23
HETATM   23  C   UNK A   1     -10.053  12.212  68.391  1.00  0.00    -0.209 C  
BRANCH  23  24
HETATM   24  S   UNK A   1      -8.379  11.990  67.711  1.00  0.00    -0.167 SA 
BRANCH  24  25
HETATM   25  S   UNK A   1      -8.402  10.017  67.157  1.00  0.00    -0.121 SA 
BRANCH  25  26
HETATM   26  C   UNK A   1     -10.178   9.601  67.282  1.00  0.00    -0.233 C  
BRANCH  26  27
HETATM   27  C   UNK A   1     -10.498   8.292  68.027  1.00  0.00    -0.181 C  
BRANCH  27  28
HETATM   28  C   UNK A   1      -9.273   7.329  67.996  1.00  0.00    -0.131 C  
ATOM     29  H   GLY A   2      -9.029   7.461  70.067  1.00  0.00     0.000 HD 
ATOM     30  N   GLY A   2      -8.703   7.010  69.212  1.00  0.00    -0.136 N  
HETATM   31  O   UNK A   1      -8.898   6.770  66.967  1.00  0.00    -0.112 OA 
BRANCH  30  32
ATOM     32  CA  GLY A   2      -7.629   6.025  69.265  1.00  0.00    -0.094 C  
ATOM     33  OXT GLY A   2      -5.227   5.927  69.696  1.00  0.00    -0.004 OA 
ATOM     34  C   GLY A   2      -6.318   6.419  69.959  1.00  0.00    -0.039 C  
ATOM     35  O   GLY A   2      -6.474   7.202  71.043  1.00  0.00    -0.043 OA 
ENDBRANCH  30  32
ENDBRANCH  27  28
BRANCH  27  36
HETATM   36  N   UNK A   1     -11.223   8.467  69.305  1.00  0.00    -0.410 N  
HETATM   37  H   UNK A   1     -12.148   8.049  69.409  1.00  0.00     0.000 HD 
HETATM   38  O   UNK A   1      -9.538   9.591  70.376  1.00  0.00    -0.244 OA 
HETATM   39  C   UNK A   1     -10.691   9.174  70.358  1.00  0.00    -0.238 C  
BRANCH  39  40
HETATM   40  C   UNK A   1     -11.570   9.306  71.592  1.00  0.00    -0.463 C  
BRANCH  40  41
HETATM   41  C   UNK A   1     -11.776   8.034  72.437  1.00  0.00    -0.444 C  
BRANCH  41  42
HETATM   42  C   UNK A   1     -10.804   6.866  72.214  1.00  0.00    -0.230 C  
HETATM   43  N   UNK A   1     -11.236   5.976  71.104  1.00  0.00    -0.286 NA 
HETATM   44  C   UNK A   1     -10.728   6.017  73.470  1.00  0.00    -0.250 C  
HETATM   45  O   UNK A   1     -10.102   6.228  74.492  1.00  0.00    -0.313 OA 
HETATM   46  O   UNK A   1     -11.553   4.954  73.331  1.00  0.00    -0.313 OA 
HETATM   47  H2  UNK A   1     -11.381   6.503  70.244  1.00  0.00     0.000 HD 
HETATM   48  H1  UNK A   1     -10.591   5.200  70.957  1.00  0.00     0.000 HD 
ENDBRANCH  41  42
ENDBRANCH  40  41
ENDBRANCH  39  40
ENDBRANCH  27  36
ENDBRANCH  26  27
ENDBRANCH  25  26
ENDBRANCH  24  25
ENDBRANCH  23  24
ENDBRANCH  14  23
ENDBRANCH  11  14
ENDBRANCH   9  10
ENDBRANCH   8   9
ENDBRANCH   4   8
TORSDOF 17
ENDMDL
MODEL      123
REMARK 921   NORMALIZED FREE ENERGY PREDICTED BY IDOCK:   -4.91 KCAL/MOL
REMARK 922        TOTAL FREE ENERGY PREDICTED BY IDOCK:  -12.76 KCAL/MOL
REMARK 923 INTER-LIGAND FREE ENERGY PREDICTED BY IDOCK:  -11.12 KCAL/MOL
REMARK 924 INTRA-LIGAND FREE ENERGY PREDICTED BY IDOCK:   -1.64 KCAL/MOL
REMARK 927      BINDING AFFINITY PREDICTED BY RF-SCORE:    0.00 PKD
ROOT
HETATM    1  N   UNK A   1     -10.009   6.091  66.054  1.00  0.00    -0.394 NA 
HETATM    2  H1  UNK A   1     -10.599   5.702  65.318  1.00  0.00     0.000 HD 
HETATM    3  H2  UNK A   1     -10.200   7.085  66.183  1.00  0.00     0.000 HD 
HETATM    4  C   UNK A   1      -8.556   5.858  65.836  1.00  0.00    -0.145 C  
HETATM    5  O   UNK A   1      -7.264   3.769  65.815  1.00  0.00    -0.068 OA 
HETATM    6  C   UNK A   1      -8.321   4.351  65.633  1.00  0.00    -0.114 C  
HETATM    7  O   UNK A   1      -9.457   3.736  65.216  1.00  0.00    -0.152 OA 
ENDROOT
BRANCH   4   8
HETATM    8  C   UNK A   1      -7.671   6.441  66.940  1.00  0.00    -0.100 C  
BRANCH   8   9
HETATM    9  C   UNK A   1      -8.130   6.132  68.366  1.00  0.00    -0.108 C  
BRANCH   9  10
HETATM   10  C   UNK A   1      -8.608   7.399  69.036  1.00  0.00    -0.133 C  
HETATM   11  N   UNK A   1      -8.021   7.654  70.258  1.00  0.00    -0.100 N  
HETATM   12  O   UNK A   1      -9.477   8.114  68.545  1.00  0.00    -0.142 OA 
HETATM   13  H   UNK A   1      -7.346   6.998  70.649  1.00  0.00     0.000 HD 
BRANCH  11  14
HETATM   14  C   UNK A   1      -8.376   8.876  70.992  1.00  0.00    -0.191 C  
BRANCH  14  15
HETATM   15  C   UNK A   1      -9.644   8.600  71.826  1.00  0.00    -0.290 C  
ATOM     16  H   GLY A   2     -10.800   9.402  70.309  1.00  0.00     0.000 HD 
ATOM     17  N   GLY A   2     -10.832   8.953  71.224  1.00  0.00    -0.264 N  
HETATM   18  O   UNK A   1      -9.603   8.122  72.949  1.00  0.00    -0.257 OA 
BRANCH  17  19
ATOM     19  CA  GLY A   2     -12.126   8.714  71.837  1.00  0.00    -0.356 C  
ATOM     20  C   GLY A   2     -12.783   7.402  71.439  1.00  0.00    -0.369 C  
ATOM     21  O   GLY A   2     -12.416   6.917  70.215  1.00  0.00    -0.126 OA 
ATOM     22  OXT GLY A   2     -13.630   6.835  72.113  1.00  0.00    -0.110 OA 
ENDBRANCH  17  19
ENDBRANCH  14  15
BRANCH  14  23
HETATM   23  C   UNK A   1      -8.585  10.051  70.022  1.00  0.00    -0.090 C  
BRANCH  23  24
HETATM   24  S   UNK A   1      -7.100  11.022  69.614  1.00  0.00    -0.031 SA 
BRANCH  24  25
HETATM   25  S   UNK A   1      -7.870  12.491  68.409  1.00  0.00    -0.121 SA 
BRANCH  25  26
HETATM   26  C   UNK A   1      -9.652  12.083  68.392  1.00  0.00    -0.190 C  
BRANCH  26  27
HETATM   27  C   UNK A   1     -10.605  13.284  68.532  1.00  0.00    -0.256 C  
BRANCH  27  28
HETATM   28  C   UNK A   1     -11.447  13.471  67.235  1.00  0.00    -0.339 C  
ATOM     29  H   GLY A   2     -10.874  11.597  66.510  1.00  0.00     0.000 HD 
ATOM     30  N   GLY A   2     -11.460  12.415  66.345  1.00  0.00    -0.352 N  
HETATM   31  O   UNK A   1     -12.171  14.447  67.052  1.00  0.00    -0.400 OA 
BRANCH  30  32
ATOM     32  CA  GLY A   2     -12.319  12.478  65.169  1.00  0.00    -0.429 C  
ATOM     33  OXT GLY A   2     -12.324  13.455  62.931  1.00  0.00    -0.510 OA 
ATOM     34  C   GLY A   2     -11.696  12.925  63.839  1.00  0.00    -0.460 C  
ATOM     35  O   GLY A   2     -10.434  12.500  63.644  1.00  0.00    -0.425 OA 
ENDBRANCH  30  32
ENDBRANCH  27  28
BRANCH  27  36
HETATM   36  N   UNK A   1     -11.294  13.380  69.838  1.00  0.00    -0.494 N  
HETATM   37  H   UNK A   1     -11.191  14.232  70.389  1.00  0.00     0.000 HD 
HETATM   38  O   UNK A   1     -12.363  11.360  69.685  1.00  0.00    -0.259 OA 
HETATM   39  C   UNK A   1     -12.070  12.358  70.333  1.00  0.00    -0.297 C  
BRANCH  39  40
HETATM   40  C   UNK A   1     -12.681  12.583  71.708  1.00  0.00    -0.244 C  
BRANCH  40  41
HETATM   41  C   UNK A   1     -13.857  13.575  71.791  1.00  0.00    -0.301 C  
BRANCH  41  42
HETATM   42  C   UNK A   1     -13.523  15.073  71.843  1.00  0.00    -0.402 C  
HETATM   43  N   UNK A   1     -13.207  15.629  70.500  1.00  0.00    -0.762 NA 
HETATM   44  C   UNK A   1     -12.305  15.296  72.721  1.00  0.00    -0.396 C  
HETATM   45  O   UNK A   1     -12.241  15.330  73.936  1.00  0.00    -0.538 OA 
HETATM   46  O   UNK A   1     -11.209  15.394  71.934  1.00  0.00    -0.408 OA 
HETATM   47  H2  UNK A   1     -13.960  15.442  69.838  1.00  0.00     0.000 HD 
HETATM   48  H1  UNK A   1     -12.985  16.624  70.535  1.00  0.00     0.000 HD 
ENDBRANCH  41  42
ENDBRANCH  40  41
ENDBRANCH  39  40
ENDBRANCH  27  36
ENDBRANCH  26  27
ENDBRANCH  25  26
ENDBRANCH  24  25
ENDBRANCH  23  24
ENDBRANCH  14  23
ENDBRANCH  11  14
ENDBRANCH   9  10
ENDBRANCH   8   9
ENDBRANCH   4   8
TORSDOF 17
ENDMDL
MODEL      124
REMARK 921   NORMALIZED FREE ENERGY PREDICTED BY IDOCK:   -4.88 KCAL/MOL
REMARK 922        TOTAL FREE ENERGY PREDICTED BY IDOCK:  -12.70 KCAL/MOL
REMARK 923 INTER-LIGAND FREE ENERGY PREDICTED BY IDOCK:  -10.56 KCAL/MOL
REMARK 924 INTRA-LIGAND FREE ENERGY PREDICTED BY IDOCK:   -2.14 KCAL/MOL
REMARK 927      BINDING AFFINITY PREDICTED BY RF-SCORE:    0.00 PKD
ROOT
HETATM    1  N   UNK A   1      -9.008   7.402  71.563  1.00  0.00    -0.125 NA 
HETATM    2  H1  UNK A   1      -9.441   8.102  72.166  1.00  0.00     0.000 HD 
HETATM    3  H2  UNK A   1      -9.408   7.436  70.625  1.00  0.00     0.000 HD 
HETATM    4  C   UNK A   1      -9.071   6.022  72.113  1.00  0.00    -0.142 C  
HETATM    5  O   UNK A   1      -8.012   5.052  74.106  1.00  0.00    -0.100 OA 
HETATM    6  C   UNK A   1      -8.470   6.026  73.530  1.00  0.00    -0.119 C  
HETATM    7  O   UNK A   1      -8.515   7.270  74.072  1.00  0.00    -0.148 OA 
ENDROOT
BRANCH   4   8
HETATM    8  C   UNK A   1      -8.420   4.973  71.209  1.00  0.00    -0.124 C  
BRANCH   8   9
HETATM    9  C   UNK A   1      -9.357   4.333  70.183  1.00  0.00    -0.228 C  
BRANCH   9  10
HETATM   10  C   UNK A   1      -9.213   5.033  68.851  1.00  0.00    -0.115 C  
HETATM   11  N   UNK A   1     -10.385   5.569  68.360  1.00  0.00    -0.186 N  
HETATM   12  O   UNK A   1      -8.146   5.079  68.246  1.00  0.00    -0.086 OA 
HETATM   13  H   UNK A   1     -11.257   5.454  68.875  1.00  0.00     0.000 HD 
BRANCH  11  14
HETATM   14  C   UNK A   1     -10.369   6.307  67.090  1.00  0.00    -0.229 C  
BRANCH  14  15
HETATM   15  C   UNK A   1     -10.051   5.320  65.949  1.00  0.00    -0.066 C  
ATOM     16  H   GLY A   2      -8.558   6.588  65.284  1.00  0.00     0.000 HD 
ATOM     17  N   GLY A   2      -9.013   5.690  65.123  1.00  0.00    -0.052 N  
HETATM   18  O   UNK A   1     -10.685   4.291  65.773  1.00  0.00    -0.132 OA 
BRANCH  17  19
ATOM     19  CA  GLY A   2      -8.539   4.855  64.033  1.00  0.00    -0.133 C  
ATOM     20  C   GLY A   2      -7.392   3.927  64.398  1.00  0.00    -0.067 C  
ATOM     21  O   GLY A   2      -6.605   4.356  65.430  1.00  0.00    -0.042 OA 
ATOM     22  OXT GLY A   2      -7.128   2.902  63.788  1.00  0.00    -0.043 OA 
ENDBRANCH  17  19
ENDBRANCH  14  15
BRANCH  14  23
HETATM   23  C   UNK A   1      -9.345   7.455  67.142  1.00  0.00    -0.142 C  
BRANCH  23  24
HETATM   24  S   UNK A   1     -10.022   9.136  66.958  1.00  0.00    -0.253 SA 
BRANCH  24  25
HETATM   25  S   UNK A   1      -9.052  10.150  68.453  1.00  0.00    -0.137 SA 
BRANCH  25  26
HETATM   26  C   UNK A   1      -9.413  11.892  68.034  1.00  0.00    -0.197 C  
BRANCH  26  27
HETATM   27  C   UNK A   1     -10.721  12.454  68.621  1.00  0.00    -0.232 C  
BRANCH  27  28
HETATM   28  C   UNK A   1     -11.573  13.136  67.509  1.00  0.00    -0.352 C  
ATOM     29  H   GLY A   2     -11.283  11.530  66.205  1.00  0.00     0.000 HD 
ATOM     30  N   GLY A   2     -11.759  12.422  66.343  1.00  0.00    -0.400 N  
HETATM   31  O   UNK A   1     -12.164  14.199  67.689  1.00  0.00    -0.351 OA 
BRANCH  30  32
ATOM     32  CA  GLY A   2     -12.640  12.951  65.309  1.00  0.00    -0.439 C  
ATOM     33  OXT GLY A   2     -12.495  13.946  63.083  1.00  0.00    -0.766 OA 
ATOM     34  C   GLY A   2     -12.073  13.129  63.894  1.00  0.00    -0.470 C  
ATOM     35  O   GLY A   2     -11.206  12.172  63.516  1.00  0.00    -0.423 OA 
ENDBRANCH  30  32
ENDBRANCH  27  28
BRANCH  27  36
HETATM   36  N   UNK A   1     -11.404  11.560  69.582  1.00  0.00    -0.378 N  
HETATM   37  H   UNK A   1     -11.281  10.552  69.491  1.00  0.00     0.000 HD 
HETATM   38  O   UNK A   1     -12.294  13.236  70.865  1.00  0.00    -0.364 OA 
HETATM   39  C   UNK A   1     -12.199  12.044  70.594  1.00  0.00    -0.316 C  
BRANCH  39  40
HETATM   40  C   UNK A   1     -12.871  11.004  71.478  1.00  0.00    -0.555 C  
BRANCH  40  41
HETATM   41  C   UNK A   1     -13.451   9.764  70.771  1.00  0.00    -0.070 C  
BRANCH  41  42
HETATM   42  C   UNK A   1     -13.717   8.516  71.626  1.00  0.00    -0.372 C  
HETATM   43  N   UNK A   1     -14.015   8.856  73.044  1.00  0.00    -1.134 NA 
HETATM   44  C   UNK A   1     -12.491   7.623  71.626  1.00  0.00    -0.335 C  
HETATM   45  O   UNK A   1     -12.118   6.846  70.766  1.00  0.00    -0.374 OA 
HETATM   46  O   UNK A   1     -11.773   7.862  72.747  1.00  0.00    -0.364 OA 
HETATM   47  H2  UNK A   1     -14.788   9.518  73.109  1.00  0.00     0.000 HD 
HETATM   48  H1  UNK A   1     -14.192   8.027  73.612  1.00  0.00     0.000 HD 
ENDBRANCH  41  42
ENDBRANCH  40  41
ENDBRANCH  39  40
ENDBRANCH  27  36
ENDBRANCH  26  27
ENDBRANCH  25  26
ENDBRANCH  24  25
ENDBRANCH  23  24
ENDBRANCH  14  23
ENDBRANCH  11  14
ENDBRANCH   9  10
ENDBRANCH   8   9
ENDBRANCH   4   8
TORSDOF 17
ENDMDL
MODEL      125
REMARK 921   NORMALIZED FREE ENERGY PREDICTED BY IDOCK:   -4.88 KCAL/MOL
REMARK 922        TOTAL FREE ENERGY PREDICTED BY IDOCK:  -12.69 KCAL/MOL
REMARK 923 INTER-LIGAND FREE ENERGY PREDICTED BY IDOCK:  -11.79 KCAL/MOL
REMARK 924 INTRA-LIGAND FREE ENERGY PREDICTED BY IDOCK:   -0.90 KCAL/MOL
REMARK 927      BINDING AFFINITY PREDICTED BY RF-SCORE:    0.00 PKD
ROOT
HETATM    1  N   UNK A   1     -13.098  15.710  70.549  1.00  0.00    -0.725 NA 
HETATM    2  H1  UNK A   1     -12.902  16.709  70.613  1.00  0.00     0.000 HD 
HETATM    3  H2  UNK A   1     -13.723  15.515  69.766  1.00  0.00     0.000 HD 
HETATM    4  C   UNK A   1     -13.633  15.126  71.808  1.00  0.00    -0.455 C  
HETATM    5  O   UNK A   1     -12.574  14.841  74.006  1.00  0.00    -0.462 OA 
HETATM    6  C   UNK A   1     -12.666  15.459  72.957  1.00  0.00    -0.451 C  
HETATM    7  O   UNK A   1     -11.913  16.548  72.658  1.00  0.00    -0.533 OA 
ENDROOT
BRANCH   4   8
HETATM    8  C   UNK A   1     -13.926  13.628  71.711  1.00  0.00    -0.293 C  
BRANCH   8   9
HETATM    9  C   UNK A   1     -12.698  12.721  71.801  1.00  0.00    -0.244 C  
BRANCH   9  10
HETATM   10  C   UNK A   1     -12.145  12.467  70.418  1.00  0.00    -0.297 C  
HETATM   11  N   UNK A   1     -11.240  13.413  69.984  1.00  0.00    -0.477 N  
HETATM   12  O   UNK A   1     -12.510  11.519  69.729  1.00  0.00    -0.180 OA 
HETATM   13  H   UNK A   1     -11.014  14.214  70.572  1.00  0.00     0.000 HD 
BRANCH  11  14
HETATM   14  C   UNK A   1     -10.604  13.258  68.669  1.00  0.00    -0.246 C  
BRANCH  14  15
HETATM   15  C   UNK A   1     -11.644  13.579  67.576  1.00  0.00    -0.350 C  
ATOM     16  H   GLY A   2     -10.938  11.989  66.456  1.00  0.00     0.000 HD 
ATOM     17  N   GLY A   2     -11.638  12.730  66.491  1.00  0.00    -0.356 N  
HETATM   18  O   UNK A   1     -12.409  14.528  67.653  1.00  0.00    -0.218 OA 
BRANCH  17  19
ATOM     19  CA  GLY A   2     -12.585  12.846  65.396  1.00  0.00    -0.378 C  
ATOM     20  C   GLY A   2     -12.066  12.354  64.055  1.00  0.00    -0.475 C  
ATOM     21  O   GLY A   2     -10.709  12.411  63.901  1.00  0.00    -0.357 OA 
ATOM     22  OXT GLY A   2     -12.789  11.991  63.139  1.00  0.00    -0.661 OA 
ENDBRANCH  17  19
ENDBRANCH  14  15
BRANCH  14  23
HETATM   23  C   UNK A   1     -10.035  11.839  68.504  1.00  0.00    -0.199 C  
BRANCH  23  24
HETATM   24  S   UNK A   1      -8.230  11.722  68.290  1.00  0.00    -0.160 SA 
BRANCH  24  25
HETATM   25  S   UNK A   1      -7.974   9.722  67.921  1.00  0.00    -0.104 SA 
BRANCH  25  26
HETATM   26  C   UNK A   1      -9.310   9.376  66.723  1.00  0.00    -0.158 C  
BRANCH  26  27
HETATM   27  C   UNK A   1     -10.181   8.146  67.044  1.00  0.00    -0.308 C  
BRANCH  27  28
HETATM   28  C   UNK A   1      -9.419   6.831  66.704  1.00  0.00    -0.165 C  
ATOM     29  H   GLY A   2     -11.201   5.748  66.582  1.00  0.00     0.000 HD 
ATOM     30  N   GLY A   2     -10.190   5.712  66.458  1.00  0.00    -0.209 N  
HETATM   31  O   UNK A   1      -8.202   6.797  66.533  1.00  0.00    -0.111 OA 
BRANCH  30  32
ATOM     32  CA  GLY A   2      -9.547   4.479  66.022  1.00  0.00    -0.189 C  
ATOM     33  OXT GLY A   2      -8.145   2.699  66.933  1.00  0.00    -0.078 OA 
ATOM     34  C   GLY A   2      -9.063   3.494  67.095  1.00  0.00    -0.169 C  
ATOM     35  O   GLY A   2      -9.862   3.409  68.175  1.00  0.00    -0.063 OA 
ENDBRANCH  30  32
ENDBRANCH  27  28
BRANCH  27  36
HETATM   36  N   UNK A   1     -10.914   8.223  68.327  1.00  0.00    -0.435 N  
HETATM   37  H   UNK A   1     -11.826   8.679  68.347  1.00  0.00     0.000 HD 
HETATM   38  O   UNK A   1      -9.388   7.018  69.539  1.00  0.00    -0.149 OA 
HETATM   39  C   UNK A   1     -10.406   7.701  69.493  1.00  0.00    -0.217 C  
BRANCH  39  40
HETATM   40  C   UNK A   1     -11.253   7.894  70.742  1.00  0.00    -0.274 C  
BRANCH  40  41
HETATM   41  C   UNK A   1     -11.955   6.642  71.304  1.00  0.00    -0.409 C  
BRANCH  41  42
HETATM   42  C   UNK A   1     -11.453   6.086  72.644  1.00  0.00    -0.253 C  
HETATM   43  N   UNK A   1     -11.190   7.160  73.639  1.00  0.00    -0.504 NA 
HETATM   44  C   UNK A   1     -10.149   5.339  72.433  1.00  0.00    -0.182 C  
HETATM   45  O   UNK A   1      -9.981   4.212  72.002  1.00  0.00    -0.169 OA 
HETATM   46  O   UNK A   1      -9.118   6.159  72.739  1.00  0.00    -0.131 OA 
HETATM   47  H2  UNK A   1     -12.011   7.749  73.770  1.00  0.00     0.000 HD 
HETATM   48  H1  UNK A   1     -10.856   6.790  74.529  1.00  0.00     0.000 HD 
ENDBRANCH  41  42
ENDBRANCH  40  41
ENDBRANCH  39  40
ENDBRANCH  27  36
ENDBRANCH  26  27
ENDBRANCH  25  26
ENDBRANCH  24  25
ENDBRANCH  23  24
ENDBRANCH  14  23
ENDBRANCH  11  14
ENDBRANCH   9  10
ENDBRANCH   8   9
ENDBRANCH   4   8
TORSDOF 17
ENDMDL
MODEL      126
REMARK 921   NORMALIZED FREE ENERGY PREDICTED BY IDOCK:   -4.85 KCAL/MOL
REMARK 922        TOTAL FREE ENERGY PREDICTED BY IDOCK:  -12.64 KCAL/MOL
REMARK 923 INTER-LIGAND FREE ENERGY PREDICTED BY IDOCK:  -11.10 KCAL/MOL
REMARK 924 INTRA-LIGAND FREE ENERGY PREDICTED BY IDOCK:   -1.54 KCAL/MOL
REMARK 927      BINDING AFFINITY PREDICTED BY RF-SCORE:    0.00 PKD
ROOT
HETATM    1  N   UNK A   1      -9.403  19.105  68.044  1.00  0.00    -0.312 NA 
HETATM    2  H1  UNK A   1      -8.841  19.842  67.617  1.00  0.00     0.000 HD 
HETATM    3  H2  UNK A   1      -8.973  18.780  68.911  1.00  0.00     0.000 HD 
HETATM    4  C   UNK A   1      -9.676  17.962  67.132  1.00  0.00    -0.289 C  
HETATM    5  O   UNK A   1     -10.998  17.856  65.064  1.00  0.00    -0.776 OA 
HETATM    6  C   UNK A   1     -10.309  18.502  65.838  1.00  0.00    -0.315 C  
HETATM    7  O   UNK A   1      -9.999  19.811  65.657  1.00  0.00    -0.377 OA 
ENDROOT
BRANCH   4   8
HETATM    8  C   UNK A   1     -10.518  16.856  67.773  1.00  0.00    -0.340 C  
BRANCH   8   9
HETATM    9  C   UNK A   1      -9.955  16.288  69.077  1.00  0.00    -0.256 C  
BRANCH   9  10
HETATM   10  C   UNK A   1      -9.349  14.927  68.823  1.00  0.00    -0.203 C  
HETATM   11  N   UNK A   1     -10.272  13.925  68.607  1.00  0.00    -0.254 N  
HETATM   12  O   UNK A   1      -8.138  14.732  68.850  1.00  0.00    -0.151 OA 
HETATM   13  H   UNK A   1     -11.270  14.128  68.653  1.00  0.00     0.000 HD 
BRANCH  11  14
HETATM   14  C   UNK A   1      -9.807  12.563  68.313  1.00  0.00    -0.227 C  
BRANCH  14  15
HETATM   15  C   UNK A   1      -9.824  12.354  66.785  1.00  0.00    -0.222 C  
ATOM     16  H   GLY A   2     -11.111  13.962  66.592  1.00  0.00     0.000 HD 
ATOM     17  N   GLY A   2     -10.585  13.257  66.077  1.00  0.00    -0.282 N  
HETATM   18  O   UNK A   1      -9.223  11.442  66.239  1.00  0.00    -0.196 OA 
BRANCH  17  19
ATOM     19  CA  GLY A   2     -10.670  13.247  64.627  1.00  0.00    -0.400 C  
ATOM     20  C   GLY A   2     -12.082  13.124  64.076  1.00  0.00    -0.446 C  
ATOM     21  O   GLY A   2     -12.973  12.493  64.898  1.00  0.00    -0.821 OA 
ATOM     22  OXT GLY A   2     -12.408  13.493  62.958  1.00  0.00    -0.661 OA 
ENDBRANCH  17  19
ENDBRANCH  14  15
BRANCH  14  23
HETATM   23  C   UNK A   1     -10.683  11.522  69.033  1.00  0.00    -0.193 C  
BRANCH  23  24
HETATM   24  S   UNK A   1     -12.113  12.179  69.949  1.00  0.00    -0.204 SA 
BRANCH  24  25
HETATM   25  S   UNK A   1     -12.452  10.699  71.326  1.00  0.00    -0.413 SA 
BRANCH  25  26
HETATM   26  C   UNK A   1     -10.972   9.644  71.132  1.00  0.00    -0.360 C  
BRANCH  26  27
HETATM   27  C   UNK A   1     -11.247   8.131  71.057  1.00  0.00    -0.258 C  
BRANCH  27  28
HETATM   28  C   UNK A   1     -10.644   7.527  69.754  1.00  0.00    -0.241 C  
ATOM     29  H   GLY A   2      -9.146   8.981  69.690  1.00  0.00     0.000 HD 
ATOM     30  N   GLY A   2      -9.507   8.132  69.257  1.00  0.00    -0.158 N  
HETATM   31  O   UNK A   1     -11.068   6.489  69.248  1.00  0.00    -0.300 OA 
BRANCH  30  32
ATOM     32  CA  GLY A   2      -8.826   7.547  68.108  1.00  0.00    -0.127 C  
ATOM     33  OXT GLY A   2      -7.477   8.254  66.198  1.00  0.00    -0.079 OA 
ATOM     34  C   GLY A   2      -7.776   8.396  67.378  1.00  0.00    -0.098 C  
ATOM     35  O   GLY A   2      -7.036   9.182  68.183  1.00  0.00    -0.076 OA 
ENDBRANCH  30  32
ENDBRANCH  27  28
BRANCH  27  36
HETATM   36  N   UNK A   1     -11.047   7.400  72.328  1.00  0.00    -0.251 N  
HETATM   37  H   UNK A   1     -11.780   6.772  72.657  1.00  0.00     0.000 HD 
HETATM   38  O   UNK A   1      -8.918   8.162  72.701  1.00  0.00    -0.186 OA 
HETATM   39  C   UNK A   1      -9.905   7.541  73.082  1.00  0.00    -0.262 C  
BRANCH  39  40
HETATM   40  C   UNK A   1      -9.859   6.760  74.386  1.00  0.00    -0.318 C  
BRANCH  40  41
HETATM   41  C   UNK A   1      -9.673   5.235  74.276  1.00  0.00    -0.178 C  
BRANCH  41  42
HETATM   42  C   UNK A   1     -10.409   4.507  73.143  1.00  0.00    -0.180 C  
HETATM   43  N   UNK A   1     -11.886   4.645  73.249  1.00  0.00    -0.296 NA 
HETATM   44  C   UNK A   1     -10.091   3.024  73.193  1.00  0.00    -0.133 C  
HETATM   45  O   UNK A   1      -9.094   2.448  72.797  1.00  0.00    -0.076 OA 
HETATM   46  O   UNK A   1     -11.090   2.382  73.840  1.00  0.00    -0.186 OA 
HETATM   47  H2  UNK A   1     -12.162   5.625  73.297  1.00  0.00     0.000 HD 
HETATM   48  H1  UNK A   1     -12.376   4.161  72.496  1.00  0.00     0.000 HD 
ENDBRANCH  41  42
ENDBRANCH  40  41
ENDBRANCH  39  40
ENDBRANCH  27  36
ENDBRANCH  26  27
ENDBRANCH  25  26
ENDBRANCH  24  25
ENDBRANCH  23  24
ENDBRANCH  14  23
ENDBRANCH  11  14
ENDBRANCH   9  10
ENDBRANCH   8   9
ENDBRANCH   4   8
TORSDOF 17
ENDMDL
MODEL      127
REMARK 921   NORMALIZED FREE ENERGY PREDICTED BY IDOCK:   -4.84 KCAL/MOL
REMARK 922        TOTAL FREE ENERGY PREDICTED BY IDOCK:  -12.63 KCAL/MOL
REMARK 923 INTER-LIGAND FREE ENERGY PREDICTED BY IDOCK:  -10.90 KCAL/MOL
REMARK 924 INTRA-LIGAND FREE ENERGY PREDICTED BY IDOCK:   -1.73 KCAL/MOL
REMARK 927      BINDING AFFINITY PREDICTED BY RF-SCORE:    0.00 PKD
ROOT
HETATM    1  N   UNK A   1     -11.696  16.148  63.964  1.00  0.00    -1.351 NA 
HETATM    2  H1  UNK A   1     -11.881  15.970  62.977  1.00  0.00     0.000 HD 
HETATM    3  H2  UNK A   1     -11.132  16.991  64.079  1.00  0.00     0.000 HD 
HETATM    4  C   UNK A   1     -11.072  14.996  64.669  1.00  0.00    -0.321 C  
HETATM    5  O   UNK A   1     -11.967  12.766  65.175  1.00  0.00    -0.373 OA 
HETATM    6  C   UNK A   1     -11.950  13.751  64.454  1.00  0.00    -0.445 C  
HETATM    7  O   UNK A   1     -12.717  13.884  63.343  1.00  0.00    -0.806 OA 
ENDROOT
BRANCH   4   8
HETATM    8  C   UNK A   1     -10.794  15.264  66.150  1.00  0.00    -0.320 C  
BRANCH   8   9
HETATM    9  C   UNK A   1     -11.904  14.824  67.106  1.00  0.00    -0.307 C  
BRANCH   9  10
HETATM   10  C   UNK A   1     -11.310  14.055  68.262  1.00  0.00    -0.288 C  
HETATM   11  N   UNK A   1     -11.547  12.697  68.226  1.00  0.00    -0.311 N  
HETATM   12  O   UNK A   1     -10.703  14.608  69.176  1.00  0.00    -0.245 OA 
HETATM   13  H   UNK A   1     -12.106  12.294  67.474  1.00  0.00     0.000 HD 
BRANCH  11  14
HETATM   14  C   UNK A   1     -10.989  11.835  69.276  1.00  0.00    -0.175 C  
BRANCH  14  15
HETATM   15  C   UNK A   1      -9.725  11.142  68.728  1.00  0.00    -0.185 C  
ATOM     16  H   GLY A   2     -10.393  11.479  66.799  1.00  0.00     0.000 HD 
ATOM     17  N   GLY A   2      -9.627  11.100  67.355  1.00  0.00    -0.168 N  
HETATM   18  O   UNK A   1      -8.878  10.646  69.455  1.00  0.00    -0.127 OA 
BRANCH  17  19
ATOM     19  CA  GLY A   2      -8.478  10.538  66.665  1.00  0.00    -0.129 C  
ATOM     20  C   GLY A   2      -8.685  10.302  65.178  1.00  0.00    -0.175 C  
ATOM     21  O   GLY A   2      -9.981  10.094  64.798  1.00  0.00    -0.331 OA 
ATOM     22  OXT GLY A   2      -7.772  10.232  64.369  1.00  0.00    -0.150 OA 
ENDBRANCH  17  19
ENDBRANCH  14  15
BRANCH  14  23
HETATM   23  C   UNK A   1     -12.034  10.808  69.748  1.00  0.00    -0.325 C  
BRANCH  23  24
HETATM   24  S   UNK A   1     -12.696  11.056  71.426  1.00  0.00    -0.413 SA 
BRANCH  24  25
HETATM   25  S   UNK A   1     -12.780   9.136  72.138  1.00  0.00    -0.389 SA 
BRANCH  25  26
HETATM   26  C   UNK A   1     -11.369   8.345  71.285  1.00  0.00    -0.266 C  
BRANCH  26  27
HETATM   27  C   UNK A   1     -11.569   6.864  70.915  1.00  0.00    -0.337 C  
BRANCH  27  28
HETATM   28  C   UNK A   1     -10.686   6.481  69.690  1.00  0.00    -0.269 C  
ATOM     29  H   GLY A   2      -9.704   8.324  69.732  1.00  0.00     0.000 HD 
ATOM     30  N   GLY A   2      -9.745   7.407  69.288  1.00  0.00    -0.164 N  
HETATM   31  O   UNK A   1     -10.722   5.365  69.173  1.00  0.00    -0.220 OA 
BRANCH  30  32
ATOM     32  CA  GLY A   2      -8.810   7.065  68.223  1.00  0.00    -0.126 C  
ATOM     33  OXT GLY A   2      -8.827   6.071  65.992  1.00  0.00    -0.148 OA 
ATOM     34  C   GLY A   2      -9.374   6.786  66.823  1.00  0.00    -0.160 C  
ATOM     35  O   GLY A   2     -10.423   7.557  66.482  1.00  0.00    -0.198 OA 
ENDBRANCH  30  32
ENDBRANCH  27  28
BRANCH  27  36
HETATM   36  N   UNK A   1     -11.614   5.937  72.067  1.00  0.00    -0.268 N  
HETATM   37  H   UNK A   1     -12.404   5.298  72.156  1.00  0.00     0.000 HD 
HETATM   38  O   UNK A   1      -9.576   6.537  72.926  1.00  0.00    -0.149 OA 
HETATM   39  C   UNK A   1     -10.625   5.908  73.023  1.00  0.00    -0.243 C  
BRANCH  39  40
HETATM   40  C   UNK A   1     -10.828   4.933  74.172  1.00  0.00    -0.226 C  
BRANCH  40  41
HETATM   41  C   UNK A   1     -11.055   3.456  73.797  1.00  0.00    -0.286 C  
BRANCH  41  42
HETATM   42  C   UNK A   1      -9.816   2.561  73.649  1.00  0.00    -0.099 C  
HETATM   43  N   UNK A   1      -8.592   3.192  74.211  1.00  0.00    -0.079 NA 
HETATM   44  C   UNK A   1      -9.550   2.292  72.179  1.00  0.00    -0.118 C  
HETATM   45  O   UNK A   1     -10.104   1.498  71.441  1.00  0.00    -0.133 OA 
HETATM   46  O   UNK A   1      -8.602   3.151  71.741  1.00  0.00    -0.071 OA 
HETATM   47  H2  UNK A   1      -8.733   3.468  75.182  1.00  0.00     0.000 HD 
HETATM   48  H1  UNK A   1      -7.769   2.597  74.113  1.00  0.00     0.000 HD 
ENDBRANCH  41  42
ENDBRANCH  40  41
ENDBRANCH  39  40
ENDBRANCH  27  36
ENDBRANCH  26  27
ENDBRANCH  25  26
ENDBRANCH  24  25
ENDBRANCH  23  24
ENDBRANCH  14  23
ENDBRANCH  11  14
ENDBRANCH   9  10
ENDBRANCH   8   9
ENDBRANCH   4   8
TORSDOF 17
ENDMDL
MODEL      128
REMARK 921   NORMALIZED FREE ENERGY PREDICTED BY IDOCK:   -4.83 KCAL/MOL
REMARK 922        TOTAL FREE ENERGY PREDICTED BY IDOCK:  -12.59 KCAL/MOL
REMARK 923 INTER-LIGAND FREE ENERGY PREDICTED BY IDOCK:   -9.66 KCAL/MOL
REMARK 924 INTRA-LIGAND FREE ENERGY PREDICTED BY IDOCK:   -2.94 KCAL/MOL
REMARK 927      BINDING AFFINITY PREDICTED BY RF-SCORE:    0.00 PKD
ROOT
HETATM    1  N   UNK A   1     -11.242  15.568  66.325  1.00  0.00    -0.175 NA 
HETATM    2  H1  UNK A   1     -10.759  16.336  65.860  1.00  0.00     0.000 HD 
HETATM    3  H2  UNK A   1     -10.770  15.317  67.194  1.00  0.00     0.000 HD 
HETATM    4  C   UNK A   1     -11.425  14.371  65.461  1.00  0.00    -0.340 C  
HETATM    5  O   UNK A   1     -12.766  14.067  63.425  1.00  0.00    -0.796 OA 
HETATM    6  C   UNK A   1     -12.126  14.802  64.161  1.00  0.00    -0.299 C  
HETATM    7  O   UNK A   1     -11.941  16.126  63.926  1.00  0.00    -0.947 OA 
ENDROOT
BRANCH   4   8
HETATM    8  C   UNK A   1     -12.150  13.218  66.158  1.00  0.00    -0.477 C  
BRANCH   8   9
HETATM    9  C   UNK A   1     -11.263  12.330  67.033  1.00  0.00    -0.367 C  
BRANCH   9  10
HETATM   10  C   UNK A   1     -10.619  11.257  66.187  1.00  0.00    -0.258 C  
HETATM   11  N   UNK A   1      -9.811  10.387  66.889  1.00  0.00    -0.184 N  
HETATM   12  O   UNK A   1     -10.775  11.198  64.971  1.00  0.00    -0.289 OA 
HETATM   13  H   UNK A   1      -9.669  10.514  67.890  1.00  0.00     0.000 HD 
BRANCH  11  14
HETATM   14  C   UNK A   1      -9.156   9.277  66.184  1.00  0.00    -0.179 C  
BRANCH  14  15
HETATM   15  C   UNK A   1      -9.279   8.004  67.045  1.00  0.00    -0.147 C  
ATOM     16  H   GLY A   2     -11.314   7.966  66.677  1.00  0.00     0.000 HD 
ATOM     17  N   GLY A   2     -10.547   7.475  67.136  1.00  0.00    -0.335 N  
HETATM   18  O   UNK A   1      -8.326   7.507  67.625  1.00  0.00    -0.117 OA 
BRANCH  17  19
ATOM     19  CA  GLY A   2     -10.839   6.248  67.856  1.00  0.00    -0.333 C  
ATOM     20  C   GLY A   2     -10.201   5.001  67.266  1.00  0.00    -0.168 C  
ATOM     21  O   GLY A   2      -9.948   5.057  65.924  1.00  0.00    -0.179 OA 
ATOM     22  OXT GLY A   2      -9.981   3.983  67.907  1.00  0.00    -0.066 OA 
ENDBRANCH  17  19
ENDBRANCH  14  15
BRANCH  14  23
HETATM   23  C   UNK A   1      -7.685   9.615  65.886  1.00  0.00    -0.102 C  
BRANCH  23  24
HETATM   24  S   UNK A   1      -6.944  10.925  66.910  1.00  0.00    -0.127 SA 
BRANCH  24  25
HETATM   25  S   UNK A   1      -6.612   9.945  68.680  1.00  0.00    -0.050 SA 
BRANCH  25  26
HETATM   26  C   UNK A   1      -8.068  10.434  69.671  1.00  0.00    -0.103 C  
BRANCH  26  27
HETATM   27  C   UNK A   1      -8.647   9.333  70.579  1.00  0.00    -0.233 C  
BRANCH  27  28
HETATM   28  C   UNK A   1     -10.202   9.417  70.620  1.00  0.00    -0.288 C  
ATOM     29  H   GLY A   2     -10.274   8.455  72.472  1.00  0.00     0.000 HD 
ATOM     30  N   GLY A   2     -10.822   8.923  71.751  1.00  0.00    -0.343 N  
HETATM   31  O   UNK A   1     -10.855  10.005  69.759  1.00  0.00    -0.236 OA 
BRANCH  30  32
ATOM     32  CA  GLY A   2     -12.263   9.076  71.905  1.00  0.00    -0.381 C  
ATOM     33  OXT GLY A   2     -14.326   7.959  71.227  1.00  0.00    -0.369 OA 
ATOM     34  C   GLY A   2     -13.158   7.871  71.587  1.00  0.00    -0.332 C  
ATOM     35  O   GLY A   2     -12.636   6.680  71.937  1.00  0.00    -0.350 OA 
ENDBRANCH  30  32
ENDBRANCH  27  28
BRANCH  27  36
HETATM   36  N   UNK A   1      -8.019   8.003  70.419  1.00  0.00    -0.101 N  
HETATM   37  H   UNK A   1      -8.064   7.542  69.511  1.00  0.00     0.000 HD 
HETATM   38  O   UNK A   1      -7.152   7.901  72.537  1.00  0.00    -0.073 OA 
HETATM   39  C   UNK A   1      -7.375   7.368  71.456  1.00  0.00    -0.079 C  
BRANCH  39  40
HETATM   40  C   UNK A   1      -6.815   5.987  71.154  1.00  0.00    -0.066 C  
BRANCH  40  41
HETATM   41  C   UNK A   1      -7.576   4.785  71.747  1.00  0.00    -0.095 C  
BRANCH  41  42
HETATM   42  C   UNK A   1      -8.979   4.490  71.199  1.00  0.00    -0.125 C  
HETATM   43  N   UNK A   1      -9.986   5.483  71.659  1.00  0.00    -0.176 NA 
HETATM   44  C   UNK A   1      -9.441   3.126  71.678  1.00  0.00    -0.144 C  
HETATM   45  O   UNK A   1      -9.138   2.027  71.248  1.00  0.00    -0.075 OA 
HETATM   46  O   UNK A   1     -10.233   3.286  72.763  1.00  0.00    -0.150 OA 
HETATM   47  H2  UNK A   1      -9.695   6.434  71.434  1.00  0.00     0.000 HD 
HETATM   48  H1  UNK A   1     -10.919   5.287  71.296  1.00  0.00     0.000 HD 
ENDBRANCH  41  42
ENDBRANCH  40  41
ENDBRANCH  39  40
ENDBRANCH  27  36
ENDBRANCH  26  27
ENDBRANCH  25  26
ENDBRANCH  24  25
ENDBRANCH  23  24
ENDBRANCH  14  23
ENDBRANCH  11  14
ENDBRANCH   9  10
ENDBRANCH   8   9
ENDBRANCH   4   8
TORSDOF 17
ENDMDL
MODEL      129
REMARK 921   NORMALIZED FREE ENERGY PREDICTED BY IDOCK:   -4.81 KCAL/MOL
REMARK 922        TOTAL FREE ENERGY PREDICTED BY IDOCK:  -12.55 KCAL/MOL
REMARK 923 INTER-LIGAND FREE ENERGY PREDICTED BY IDOCK:  -10.62 KCAL/MOL
REMARK 924 INTRA-LIGAND FREE ENERGY PREDICTED BY IDOCK:   -1.93 KCAL/MOL
REMARK 927      BINDING AFFINITY PREDICTED BY RF-SCORE:    0.00 PKD
ROOT
HETATM    1  N   UNK A   1      -7.707   5.066  67.566  1.00  0.00    -0.091 NA 
HETATM    2  H1  UNK A   1      -7.196   4.642  66.792  1.00  0.00     0.000 HD 
HETATM    3  H2  UNK A   1      -7.178   5.841  67.966  1.00  0.00     0.000 HD 
HETATM    4  C   UNK A   1      -8.097   4.094  68.623  1.00  0.00    -0.072 C  
HETATM    5  O   UNK A   1      -9.661   2.201  68.545  1.00  0.00    -0.187 OA 
HETATM    6  C   UNK A   1      -8.878   2.941  67.970  1.00  0.00    -0.129 C  
HETATM    7  O   UNK A   1      -8.583   2.842  66.649  1.00  0.00    -0.096 OA 
ENDROOT
BRANCH   4   8
HETATM    8  C   UNK A   1      -8.864   4.730  69.785  1.00  0.00    -0.128 C  
BRANCH   8   9
HETATM    9  C   UNK A   1     -10.337   5.029  69.501  1.00  0.00    -0.231 C  
BRANCH   9  10
HETATM   10  C   UNK A   1     -10.456   6.307  68.703  1.00  0.00    -0.231 C  
HETATM   11  N   UNK A   1      -9.617   7.319  69.121  1.00  0.00    -0.155 N  
HETATM   12  O   UNK A   1     -11.264   6.437  67.789  1.00  0.00    -0.323 OA 
HETATM   13  H   UNK A   1      -9.005   7.179  69.924  1.00  0.00     0.000 HD 
BRANCH  11  14
HETATM   14  C   UNK A   1      -9.613   8.600  68.402  1.00  0.00    -0.147 C  
BRANCH  14  15
HETATM   15  C   UNK A   1      -8.315   8.699  67.575  1.00  0.00    -0.120 C  
ATOM     16  H   GLY A   2      -9.215  10.105  66.353  1.00  0.00     0.000 HD 
ATOM     17  N   GLY A   2      -8.347   9.602  66.535  1.00  0.00    -0.119 N  
HETATM   18  O   UNK A   1      -7.332   8.012  67.808  1.00  0.00    -0.089 OA 
BRANCH  17  19
ATOM     19  CA  GLY A   2      -7.198   9.867  65.688  1.00  0.00    -0.113 C  
ATOM     20  C   GLY A   2      -7.438   9.642  64.204  1.00  0.00    -0.128 C  
ATOM     21  O   GLY A   2      -8.413   8.731  63.906  1.00  0.00    -0.168 OA 
ATOM     22  OXT GLY A   2      -6.779  10.171  63.322  1.00  0.00    -0.131 OA 
ENDBRANCH  17  19
ENDBRANCH  14  15
BRANCH  14  23
HETATM   23  C   UNK A   1      -9.744   9.776  69.386  1.00  0.00    -0.202 C  
BRANCH  23  24
HETATM   24  S   UNK A   1     -10.983   9.579  70.705  1.00  0.00    -0.333 SA 
BRANCH  24  25
HETATM   25  S   UNK A   1     -12.346  11.034  70.228  1.00  0.00    -0.317 SA 
BRANCH  25  26
HETATM   26  C   UNK A   1     -11.384  12.113  69.109  1.00  0.00    -0.276 C  
BRANCH  26  27
HETATM   27  C   UNK A   1     -12.125  13.364  68.601  1.00  0.00    -0.246 C  
BRANCH  27  28
HETATM   28  C   UNK A   1     -12.291  14.407  69.746  1.00  0.00    -0.285 C  
ATOM     29  H   GLY A   2     -11.628  13.040  71.180  1.00  0.00     0.000 HD 
ATOM     30  N   GLY A   2     -11.916  14.004  71.012  1.00  0.00    -0.299 N  
HETATM   31  O   UNK A   1     -12.615  15.574  69.535  1.00  0.00    -0.157 OA 
BRANCH  30  32
ATOM     32  CA  GLY A   2     -11.936  14.966  72.107  1.00  0.00    -0.331 C  
ATOM     33  OXT GLY A   2     -13.547  16.287  73.382  1.00  0.00    -0.612 OA 
ATOM     34  C   GLY A   2     -13.274  15.240  72.809  1.00  0.00    -0.482 C  
ATOM     35  O   GLY A   2     -14.066  14.159  72.939  1.00  0.00    -0.546 OA 
ENDBRANCH  30  32
ENDBRANCH  27  28
BRANCH  27  36
HETATM   36  N   UNK A   1     -11.692  13.843  67.270  1.00  0.00    -0.363 N  
HETATM   37  H   UNK A   1     -12.392  13.967  66.538  1.00  0.00     0.000 HD 
HETATM   38  O   UNK A   1      -9.492  14.141  67.836  1.00  0.00    -0.199 OA 
HETATM   39  C   UNK A   1     -10.377  14.127  66.986  1.00  0.00    -0.267 C  
BRANCH  39  40
HETATM   40  C   UNK A   1     -10.076  14.570  65.563  1.00  0.00    -0.394 C  
BRANCH  40  41
HETATM   41  C   UNK A   1     -10.365  13.551  64.443  1.00  0.00    -0.306 C  
BRANCH  41  42
HETATM   42  C   UNK A   1     -11.696  13.682  63.689  1.00  0.00    -0.163 C  
HETATM   43  N   UNK A   1     -12.516  14.820  64.182  1.00  0.00    -0.912 NA 
HETATM   44  C   UNK A   1     -12.518  12.420  63.877  1.00  0.00    -0.476 C  
HETATM   45  O   UNK A   1     -12.403  11.348  63.311  1.00  0.00    -0.199 OA 
HETATM   46  O   UNK A   1     -13.414  12.623  64.869  1.00  0.00    -0.599 OA 
HETATM   47  H2  UNK A   1     -11.990  15.693  64.153  1.00  0.00     0.000 HD 
HETATM   48  H1  UNK A   1     -13.401  14.907  63.681  1.00  0.00     0.000 HD 
ENDBRANCH  41  42
ENDBRANCH  40  41
ENDBRANCH  39  40
ENDBRANCH  27  36
ENDBRANCH  26  27
ENDBRANCH  25  26
ENDBRANCH  24  25
ENDBRANCH  23  24
ENDBRANCH  14  23
ENDBRANCH  11  14
ENDBRANCH   9  10
ENDBRANCH   8   9
ENDBRANCH   4   8
TORSDOF 17
ENDMDL
MODEL      130
REMARK 921   NORMALIZED FREE ENERGY PREDICTED BY IDOCK:   -4.79 KCAL/MOL
REMARK 922        TOTAL FREE ENERGY PREDICTED BY IDOCK:  -12.52 KCAL/MOL
REMARK 923 INTER-LIGAND FREE ENERGY PREDICTED BY IDOCK:  -10.74 KCAL/MOL
REMARK 924 INTRA-LIGAND FREE ENERGY PREDICTED BY IDOCK:   -1.78 KCAL/MOL
REMARK 927      BINDING AFFINITY PREDICTED BY RF-SCORE:    0.00 PKD
ROOT
HETATM    1  N   UNK A   1      -9.715   2.695  71.320  1.00  0.00    -0.155 NA 
HETATM    2  H1  UNK A   1      -9.491   1.913  71.935  1.00  0.00     0.000 HD 
HETATM    3  H2  UNK A   1      -9.011   2.791  70.588  1.00  0.00     0.000 HD 
HETATM    4  C   UNK A   1      -9.904   3.983  72.041  1.00  0.00    -0.172 C  
HETATM    5  O   UNK A   1     -11.631   4.669  73.647  1.00  0.00    -0.225 OA 
HETATM    6  C   UNK A   1     -10.961   3.783  73.141  1.00  0.00    -0.136 C  
HETATM    7  O   UNK A   1     -11.057   2.475  73.489  1.00  0.00    -0.189 OA 
ENDROOT
BRANCH   4   8
HETATM    8  C   UNK A   1     -10.240   5.156  71.118  1.00  0.00    -0.291 C  
BRANCH   8   9
HETATM    9  C   UNK A   1      -9.573   5.109  69.743  1.00  0.00    -0.242 C  
BRANCH   9  10
HETATM   10  C   UNK A   1     -10.078   6.248  68.889  1.00  0.00    -0.168 C  
HETATM   11  N   UNK A   1      -9.306   7.389  68.946  1.00  0.00    -0.145 N  
HETATM   12  O   UNK A   1     -11.114   6.169  68.235  1.00  0.00    -0.333 OA 
HETATM   13  H   UNK A   1      -8.486   7.423  69.550  1.00  0.00     0.000 HD 
BRANCH  11  14
HETATM   14  C   UNK A   1      -9.673   8.555  68.131  1.00  0.00    -0.155 C  
BRANCH  14  15
HETATM   15  C   UNK A   1      -8.601   8.754  67.041  1.00  0.00    -0.116 C  
ATOM     16  H   GLY A   2      -9.938   8.073  65.617  1.00  0.00     0.000 HD 
ATOM     17  N   GLY A   2      -9.000   8.445  65.760  1.00  0.00    -0.177 N  
HETATM   18  O   UNK A   1      -7.469   9.139  67.293  1.00  0.00    -0.087 OA 
BRANCH  17  19
ATOM     19  CA  GLY A   2      -8.141   8.626  64.603  1.00  0.00    -0.156 C  
ATOM     20  C   GLY A   2      -8.490   9.825  63.735  1.00  0.00    -0.184 C  
ATOM     21  O   GLY A   2      -9.800  10.213  63.783  1.00  0.00    -0.252 OA 
ATOM     22  OXT GLY A   2      -7.696  10.378  62.990  1.00  0.00    -0.151 OA 
ENDBRANCH  17  19
ENDBRANCH  14  15
BRANCH  14  23
HETATM   23  C   UNK A   1      -9.821   9.808  69.011  1.00  0.00    -0.181 C  
BRANCH  23  24
HETATM   24  S   UNK A   1     -10.725  11.203  68.269  1.00  0.00    -0.213 SA 
BRANCH  24  25
HETATM   25  S   UNK A   1      -9.245  12.605  68.055  1.00  0.00    -0.211 SA 
BRANCH  25  26
HETATM   26  C   UNK A   1     -10.189  14.094  67.573  1.00  0.00    -0.241 C  
BRANCH  26  27
HETATM   27  C   UNK A   1      -9.616  14.880  66.379  1.00  0.00    -0.293 C  
BRANCH  27  28
HETATM   28  C   UNK A   1     -10.506  14.685  65.116  1.00  0.00    -0.416 C  
ATOM     29  H   GLY A   2      -9.945  12.680  64.944  1.00  0.00     0.000 HD 
ATOM     30  N   GLY A   2     -10.544  13.417  64.571  1.00  0.00    -0.413 N  
HETATM   31  O   UNK A   1     -11.244  15.569  64.685  1.00  0.00    -0.423 OA 
BRANCH  30  32
ATOM     32  CA  GLY A   2     -11.445  13.139  63.460  1.00  0.00    -0.253 C  
ATOM     33  OXT GLY A   2     -13.262  11.610  62.889  1.00  0.00    -0.299 OA 
ATOM     34  C   GLY A   2     -12.695  12.290  63.735  1.00  0.00    -0.405 C  
ATOM     35  O   GLY A   2     -13.264  12.508  64.936  1.00  0.00    -0.787 OA 
ENDBRANCH  30  32
ENDBRANCH  27  28
BRANCH  27  36
HETATM   36  N   UNK A   1      -9.144  16.244  66.704  1.00  0.00    -0.227 N  
HETATM   37  H   UNK A   1      -9.694  17.044  66.392  1.00  0.00     0.000 HD 
HETATM   38  O   UNK A   1      -7.338  15.575  67.945  1.00  0.00    -0.121 OA 
HETATM   39  C   UNK A   1      -7.987  16.469  67.413  1.00  0.00    -0.152 C  
BRANCH  39  40
HETATM   40  C   UNK A   1      -7.606  17.925  67.633  1.00  0.00    -0.215 C  
BRANCH  40  41
HETATM   41  C   UNK A   1      -7.265  18.751  66.378  1.00  0.00    -0.263 C  
BRANCH  41  42
HETATM   42  C   UNK A   1      -8.087  20.022  66.117  1.00  0.00    -0.279 C  
HETATM   43  N   UNK A   1      -7.682  21.148  67.000  1.00  0.00    -0.704 NA 
HETATM   44  C   UNK A   1      -9.555  19.746  66.383  1.00  0.00    -0.411 C  
HETATM   45  O   UNK A   1     -10.363  19.182  65.668  1.00  0.00    -0.511 OA 
HETATM   46  O   UNK A   1      -9.863  20.173  67.629  1.00  0.00    -0.387 OA 
HETATM   47  H2  UNK A   1      -6.682  21.335  66.924  1.00  0.00     0.000 HD 
HETATM   48  H1  UNK A   1      -8.228  21.992  66.826  1.00  0.00     0.000 HD 
ENDBRANCH  41  42
ENDBRANCH  40  41
ENDBRANCH  39  40
ENDBRANCH  27  36
ENDBRANCH  26  27
ENDBRANCH  25  26
ENDBRANCH  24  25
ENDBRANCH  23  24
ENDBRANCH  14  23
ENDBRANCH  11  14
ENDBRANCH   9  10
ENDBRANCH   8   9
ENDBRANCH   4   8
TORSDOF 17
ENDMDL
MODEL      131
REMARK 921   NORMALIZED FREE ENERGY PREDICTED BY IDOCK:   -4.79 KCAL/MOL
REMARK 922        TOTAL FREE ENERGY PREDICTED BY IDOCK:  -12.52 KCAL/MOL
REMARK 923 INTER-LIGAND FREE ENERGY PREDICTED BY IDOCK:  -10.81 KCAL/MOL
REMARK 924 INTRA-LIGAND FREE ENERGY PREDICTED BY IDOCK:   -1.71 KCAL/MOL
REMARK 927      BINDING AFFINITY PREDICTED BY RF-SCORE:    0.00 PKD
ROOT
HETATM    1  N   UNK A   1      -7.219   7.390  66.645  1.00  0.00    -0.078 NA 
HETATM    2  H1  UNK A   1      -6.670   7.479  65.790  1.00  0.00     0.000 HD 
HETATM    3  H2  UNK A   1      -6.920   8.075  67.339  1.00  0.00     0.000 HD 
HETATM    4  C   UNK A   1      -7.206   6.018  67.220  1.00  0.00    -0.076 C  
HETATM    5  O   UNK A   1      -8.120   3.915  66.339  1.00  0.00    -0.096 OA 
HETATM    6  C   UNK A   1      -7.650   5.023  66.134  1.00  0.00    -0.087 C  
HETATM    7  O   UNK A   1      -7.450   5.537  64.894  1.00  0.00    -0.069 OA 
ENDROOT
BRANCH   4   8
HETATM    8  C   UNK A   1      -8.031   5.885  68.502  1.00  0.00    -0.102 C  
BRANCH   8   9
HETATM    9  C   UNK A   1      -9.495   5.497  68.292  1.00  0.00    -0.137 C  
BRANCH   9  10
HETATM   10  C   UNK A   1     -10.322   6.737  68.043  1.00  0.00    -0.189 C  
HETATM   11  N   UNK A   1      -9.804   7.888  68.598  1.00  0.00    -0.166 N  
HETATM   12  O   UNK A   1     -11.386   6.704  67.432  1.00  0.00    -0.299 OA 
HETATM   13  H   UNK A   1      -8.946   7.852  69.146  1.00  0.00     0.000 HD 
BRANCH  11  14
HETATM   14  C   UNK A   1     -10.498   9.167  68.395  1.00  0.00    -0.199 C  
BRANCH  14  15
HETATM   15  C   UNK A   1      -9.928   9.844  67.132  1.00  0.00    -0.200 C  
ATOM     16  H   GLY A   2     -11.774  10.707  66.776  1.00  0.00     0.000 HD 
ATOM     17  N   GLY A   2     -10.812  10.645  66.444  1.00  0.00    -0.125 N  
HETATM   18  O   UNK A   1      -8.780   9.669  66.753  1.00  0.00    -0.132 OA 
BRANCH  17  19
ATOM     19  CA  GLY A   2     -10.432  11.405  65.266  1.00  0.00    -0.283 C  
ATOM     20  C   GLY A   2     -11.354  12.568  64.938  1.00  0.00    -0.310 C  
ATOM     21  O   GLY A   2     -12.642  12.429  65.375  1.00  0.00    -0.637 OA 
ATOM     22  OXT GLY A   2     -11.015  13.537  64.275  1.00  0.00    -0.383 OA 
ENDBRANCH  17  19
ENDBRANCH  14  15
BRANCH  14  23
HETATM   23  C   UNK A   1     -10.349  10.069  69.633  1.00  0.00    -0.247 C  
BRANCH  23  24
HETATM   24  S   UNK A   1     -11.651   9.913  70.896  1.00  0.00    -0.399 SA 
BRANCH  24  25
HETATM   25  S   UNK A   1     -12.592  11.729  70.763  1.00  0.00    -0.183 SA 
BRANCH  25  26
HETATM   26  C   UNK A   1     -11.443  12.683  69.709  1.00  0.00    -0.130 C  
BRANCH  26  27
HETATM   27  C   UNK A   1     -12.022  13.976  69.105  1.00  0.00    -0.360 C  
BRANCH  27  28
HETATM   28  C   UNK A   1     -12.423  14.976  70.231  1.00  0.00    -0.337 C  
ATOM     29  H   GLY A   2     -10.668  14.590  71.295  1.00  0.00     0.000 HD 
ATOM     30  N   GLY A   2     -11.515  15.156  71.255  1.00  0.00    -0.347 N  
HETATM   31  O   UNK A   1     -13.433  15.674  70.165  1.00  0.00    -0.048 OA 
BRANCH  30  32
ATOM     32  CA  GLY A   2     -11.776  16.162  72.277  1.00  0.00    -0.465 C  
ATOM     33  OXT GLY A   2     -13.117  16.440  74.300  1.00  0.00    -0.616 OA 
ATOM     34  C   GLY A   2     -12.441  15.710  73.585  1.00  0.00    -0.579 C  
ATOM     35  O   GLY A   2     -12.053  14.495  74.017  1.00  0.00    -0.372 OA 
ENDBRANCH  30  32
ENDBRANCH  27  28
BRANCH  27  36
HETATM   36  N   UNK A   1     -11.286  14.497  67.932  1.00  0.00    -0.282 N  
HETATM   37  H   UNK A   1     -11.791  14.643  67.058  1.00  0.00     0.000 HD 
HETATM   38  O   UNK A   1      -9.288  14.776  69.017  1.00  0.00    -0.206 OA 
HETATM   39  C   UNK A   1      -9.943  14.789  67.981  1.00  0.00    -0.218 C  
BRANCH  39  40
HETATM   40  C   UNK A   1      -9.313  15.275  66.684  1.00  0.00    -0.285 C  
BRANCH  40  41
HETATM   41  C   UNK A   1      -9.979  16.484  65.999  1.00  0.00    -0.359 C  
BRANCH  41  42
HETATM   42  C   UNK A   1      -9.378  17.872  66.263  1.00  0.00    -0.197 C  
HETATM   43  N   UNK A   1      -8.701  17.953  67.585  1.00  0.00    -0.240 NA 
HETATM   44  C   UNK A   1     -10.480  18.916  66.257  1.00  0.00    -0.445 C  
HETATM   45  O   UNK A   1     -11.031  19.433  65.302  1.00  0.00    -0.457 OA 
HETATM   46  O   UNK A   1     -10.849  19.172  67.533  1.00  0.00    -0.473 OA 
HETATM   47  H2  UNK A   1      -7.996  17.223  67.682  1.00  0.00     0.000 HD 
HETATM   48  H1  UNK A   1      -8.302  18.875  67.760  1.00  0.00     0.000 HD 
ENDBRANCH  41  42
ENDBRANCH  40  41
ENDBRANCH  39  40
ENDBRANCH  27  36
ENDBRANCH  26  27
ENDBRANCH  25  26
ENDBRANCH  24  25
ENDBRANCH  23  24
ENDBRANCH  14  23
ENDBRANCH  11  14
ENDBRANCH   9  10
ENDBRANCH   8   9
ENDBRANCH   4   8
TORSDOF 17
ENDMDL
MODEL      132
REMARK 921   NORMALIZED FREE ENERGY PREDICTED BY IDOCK:   -4.78 KCAL/MOL
REMARK 922        TOTAL FREE ENERGY PREDICTED BY IDOCK:  -12.51 KCAL/MOL
REMARK 923 INTER-LIGAND FREE ENERGY PREDICTED BY IDOCK:  -10.75 KCAL/MOL
REMARK 924 INTRA-LIGAND FREE ENERGY PREDICTED BY IDOCK:   -1.75 KCAL/MOL
REMARK 927      BINDING AFFINITY PREDICTED BY RF-SCORE:    0.00 PKD
ROOT
HETATM    1  N   UNK A   1      -9.621   9.155  62.436  1.00  0.00    -0.389 NA 
HETATM    2  H1  UNK A   1      -9.416   8.757  61.519  1.00  0.00     0.000 HD 
HETATM    3  H2  UNK A   1     -10.097  10.052  62.342  1.00  0.00     0.000 HD 
HETATM    4  C   UNK A   1      -8.423   9.283  63.309  1.00  0.00    -0.204 C  
HETATM    5  O   UNK A   1      -6.990   7.556  64.308  1.00  0.00    -0.056 OA 
HETATM    6  C   UNK A   1      -7.734   7.910  63.408  1.00  0.00    -0.140 C  
HETATM    7  O   UNK A   1      -8.061   7.127  62.349  1.00  0.00    -0.130 OA 
ENDROOT
BRANCH   4   8
HETATM    8  C   UNK A   1      -8.730   9.879  64.684  1.00  0.00    -0.215 C  
BRANCH   8   9
HETATM    9  C   UNK A   1      -9.794   9.132  65.490  1.00  0.00    -0.064 C  
BRANCH   9  10
HETATM   10  C   UNK A   1      -9.717   9.540  66.943  1.00  0.00    -0.182 C  
HETATM   11  N   UNK A   1      -8.822   8.808  67.693  1.00  0.00    -0.135 N  
HETATM   12  O   UNK A   1     -10.426  10.424  67.415  1.00  0.00    -0.216 OA 
HETATM   13  H   UNK A   1      -8.298   8.045  67.266  1.00  0.00     0.000 HD 
BRANCH  11  14
HETATM   14  C   UNK A   1      -8.629   9.133  69.113  1.00  0.00    -0.133 C  
BRANCH  14  15
HETATM   15  C   UNK A   1      -9.859   8.643  69.904  1.00  0.00    -0.183 C  
ATOM     16  H   GLY A   2      -9.636  10.232  71.210  1.00  0.00     0.000 HD 
ATOM     17  N   GLY A   2     -10.215   9.425  70.981  1.00  0.00    -0.304 N  
HETATM   18  O   UNK A   1     -10.466   7.624  69.613  1.00  0.00    -0.225 OA 
BRANCH  17  19
ATOM     19  CA  GLY A   2     -11.380   9.148  71.803  1.00  0.00    -0.381 C  
ATOM     20  C   GLY A   2     -12.666   9.799  71.319  1.00  0.00    -0.369 C  
ATOM     21  O   GLY A   2     -12.499  10.944  70.592  1.00  0.00    -0.322 OA 
ATOM     22  OXT GLY A   2     -13.782   9.389  71.602  1.00  0.00    -0.371 OA 
ENDBRANCH  17  19
ENDBRANCH  14  15
BRANCH  14  23
HETATM   23  C   UNK A   1      -8.405  10.643  69.299  1.00  0.00    -0.103 C  
BRANCH  23  24
HETATM   24  S   UNK A   1      -6.713  11.243  68.993  1.00  0.00    -0.099 SA 
BRANCH  24  25
HETATM   25  S   UNK A   1      -7.025  12.687  67.572  1.00  0.00    -0.142 SA 
BRANCH  25  26
HETATM   26  C   UNK A   1      -7.422  14.153  68.590  1.00  0.00    -0.125 C  
BRANCH  26  27
HETATM   27  C   UNK A   1      -8.474  15.105  67.992  1.00  0.00    -0.148 C  
BRANCH  27  28
HETATM   28  C   UNK A   1      -9.881  14.436  67.987  1.00  0.00    -0.221 C  
ATOM     29  H   GLY A   2     -10.212  14.988  65.999  1.00  0.00     0.000 HD 
ATOM     30  N   GLY A   2     -10.581  14.471  66.797  1.00  0.00    -0.273 N  
HETATM   31  O   UNK A   1     -10.311  13.793  68.943  1.00  0.00    -0.219 OA 
BRANCH  30  32
ATOM     32  CA  GLY A   2     -11.851  13.764  66.690  1.00  0.00    -0.412 C  
ATOM     33  OXT GLY A   2     -13.355  12.910  64.966  1.00  0.00    -0.682 OA 
ATOM     34  C   GLY A   2     -12.208  13.114  65.346  1.00  0.00    -0.461 C  
ATOM     35  O   GLY A   2     -11.161  12.579  64.690  1.00  0.00    -0.292 OA 
ENDBRANCH  30  32
ENDBRANCH  27  28
BRANCH  27  36
HETATM   36  N   UNK A   1      -8.365  16.510  68.443  1.00  0.00    -0.191 N  
HETATM   37  H   UNK A   1      -8.781  16.776  69.336  1.00  0.00     0.000 HD 
HETATM   38  O   UNK A   1      -7.077  17.218  66.686  1.00  0.00    -0.191 OA 
HETATM   39  C   UNK A   1      -7.722  17.471  67.698  1.00  0.00    -0.200 C  
BRANCH  39  40
HETATM   40  C   UNK A   1      -7.728  18.881  68.268  1.00  0.00    -0.332 C  
BRANCH  40  41
HETATM   41  C   UNK A   1      -8.432  19.966  67.431  1.00  0.00    -0.377 C  
BRANCH  41  42
HETATM   42  C   UNK A   1      -9.965  20.025  67.486  1.00  0.00    -0.427 C  
HETATM   43  N   UNK A   1     -10.487  19.860  68.869  1.00  0.00    -0.544 NA 
HETATM   44  C   UNK A   1     -10.552  18.905  66.646  1.00  0.00    -0.395 C  
HETATM   45  O   UNK A   1     -10.685  18.853  65.437  1.00  0.00    -0.536 OA 
HETATM   46  O   UNK A   1     -10.869  17.870  67.456  1.00  0.00    -0.364 OA 
HETATM   47  H2  UNK A   1     -10.070  20.539  69.504  1.00  0.00     0.000 HD 
HETATM   48  H1  UNK A   1     -11.506  19.899  68.906  1.00  0.00     0.000 HD 
ENDBRANCH  41  42
ENDBRANCH  40  41
ENDBRANCH  39  40
ENDBRANCH  27  36
ENDBRANCH  26  27
ENDBRANCH  25  26
ENDBRANCH  24  25
ENDBRANCH  23  24
ENDBRANCH  14  23
ENDBRANCH  11  14
ENDBRANCH   9  10
ENDBRANCH   8   9
ENDBRANCH   4   8
TORSDOF 17
ENDMDL
MODEL      133
REMARK 921   NORMALIZED FREE ENERGY PREDICTED BY IDOCK:   -4.76 KCAL/MOL
REMARK 922        TOTAL FREE ENERGY PREDICTED BY IDOCK:  -12.46 KCAL/MOL
REMARK 923 INTER-LIGAND FREE ENERGY PREDICTED BY IDOCK:  -10.62 KCAL/MOL
REMARK 924 INTRA-LIGAND FREE ENERGY PREDICTED BY IDOCK:   -1.85 KCAL/MOL
REMARK 927      BINDING AFFINITY PREDICTED BY RF-SCORE:    0.00 PKD
ROOT
HETATM    1  N   UNK A   1     -11.456   7.198  73.234  1.00  0.00    -0.519 NA 
HETATM    2  H1  UNK A   1     -12.111   6.790  73.901  1.00  0.00     0.000 HD 
HETATM    3  H2  UNK A   1     -11.777   8.117  72.930  1.00  0.00     0.000 HD 
HETATM    4  C   UNK A   1     -11.177   6.323  72.063  1.00  0.00    -0.281 C  
HETATM    5  O   UNK A   1     -10.047   4.146  71.937  1.00  0.00    -0.179 OA 
HETATM    6  C   UNK A   1     -10.711   4.949  72.573  1.00  0.00    -0.196 C  
HETATM    7  O   UNK A   1     -11.139   4.732  73.843  1.00  0.00    -0.294 OA 
ENDROOT
BRANCH   4   8
HETATM    8  C   UNK A   1     -10.195   6.936  71.063  1.00  0.00    -0.213 C  
BRANCH   8   9
HETATM    9  C   UNK A   1     -10.765   7.182  69.665  1.00  0.00    -0.256 C  
BRANCH   9  10
HETATM   10  C   UNK A   1     -10.339   8.544  69.170  1.00  0.00    -0.217 C  
HETATM   11  N   UNK A   1      -9.203   8.536  68.387  1.00  0.00    -0.135 N  
HETATM   12  O   UNK A   1     -10.935   9.572  69.479  1.00  0.00    -0.238 OA 
HETATM   13  H   UNK A   1      -8.711   7.662  68.207  1.00  0.00     0.000 HD 
BRANCH  11  14
HETATM   14  C   UNK A   1      -8.708   9.795  67.816  1.00  0.00    -0.129 C  
BRANCH  14  15
HETATM   15  C   UNK A   1      -8.816   9.717  66.279  1.00  0.00    -0.151 C  
ATOM     16  H   GLY A   2      -6.868  10.397  66.120  1.00  0.00     0.000 HD 
ATOM     17  N   GLY A   2      -7.677  10.072  65.591  1.00  0.00    -0.129 N  
HETATM   18  O   UNK A   1      -9.842   9.383  65.707  1.00  0.00    -0.297 OA 
BRANCH  17  19
ATOM     19  CA  GLY A   2      -7.579  10.003  64.143  1.00  0.00    -0.140 C  
ATOM     20  C   GLY A   2      -6.194  10.289  63.587  1.00  0.00    -0.118 C  
ATOM     21  O   GLY A   2      -5.409  11.091  64.369  1.00  0.00    -0.160 OA 
ATOM     22  OXT GLY A   2      -5.807   9.901  62.495  1.00  0.00    -0.090 OA 
ENDBRANCH  17  19
ENDBRANCH  14  15
BRANCH  14  23
HETATM   23  C   UNK A   1      -7.261  10.064  68.265  1.00  0.00    -0.077 C  
BRANCH  23  24
HETATM   24  S   UNK A   1      -6.959  11.670  69.066  1.00  0.00    -0.102 SA 
BRANCH  24  25
HETATM   25  S   UNK A   1      -6.954  12.950  67.465  1.00  0.00    -0.126 SA 
BRANCH  25  26
HETATM   26  C   UNK A   1      -8.576  13.778  67.627  1.00  0.00    -0.187 C  
BRANCH  26  27
HETATM   27  C   UNK A   1      -8.841  14.913  66.620  1.00  0.00    -0.254 C  
BRANCH  27  28
HETATM   28  C   UNK A   1     -10.295  14.829  66.069  1.00  0.00    -0.305 C  
ATOM     29  H   GLY A   2      -9.686  13.666  64.443  1.00  0.00     0.000 HD 
ATOM     30  N   GLY A   2     -10.486  14.072  64.930  1.00  0.00    -0.416 N  
HETATM   31  O   UNK A   1     -11.259  15.299  66.672  1.00  0.00    -0.314 OA 
BRANCH  30  32
ATOM     32  CA  GLY A   2     -11.837  13.857  64.428  1.00  0.00    -0.429 C  
ATOM     33  OXT GLY A   2     -13.378  12.013  63.990  1.00  0.00    -0.703 OA 
ATOM     34  C   GLY A   2     -12.503  12.500  64.696  1.00  0.00    -0.463 C  
ATOM     35  O   GLY A   2     -12.211  11.962  65.896  1.00  0.00    -0.435 OA 
ENDBRANCH  30  32
ENDBRANCH  27  28
BRANCH  27  36
HETATM   36  N   UNK A   1      -8.317  16.236  67.025  1.00  0.00    -0.186 N  
HETATM   37  H   UNK A   1      -7.776  16.779  66.352  1.00  0.00     0.000 HD 
HETATM   38  O   UNK A   1      -9.284  16.242  69.102  1.00  0.00    -0.251 OA 
HETATM   39  C   UNK A   1      -8.535  16.757  68.279  1.00  0.00    -0.222 C  
BRANCH  39  40
HETATM   40  C   UNK A   1      -7.898  18.108  68.565  1.00  0.00    -0.308 C  
BRANCH  40  41
HETATM   41  C   UNK A   1      -8.731  19.356  68.214  1.00  0.00    -0.376 C  
BRANCH  41  42
HETATM   42  C   UNK A   1      -8.637  19.894  66.779  1.00  0.00    -0.337 C  
HETATM   43  N   UNK A   1      -9.625  19.255  65.870  1.00  0.00    -0.423 NA 
HETATM   44  C   UNK A   1      -7.257  19.610  66.214  1.00  0.00    -0.263 C  
HETATM   45  O   UNK A   1      -6.216  20.211  66.414  1.00  0.00    -0.173 OA 
HETATM   46  O   UNK A   1      -7.313  18.488  65.462  1.00  0.00    -0.524 OA 
HETATM   47  H2  UNK A   1     -10.573  19.345  66.235  1.00  0.00     0.000 HD 
HETATM   48  H1  UNK A   1      -9.563  19.612  64.916  1.00  0.00     0.000 HD 
ENDBRANCH  41  42
ENDBRANCH  40  41
ENDBRANCH  39  40
ENDBRANCH  27  36
ENDBRANCH  26  27
ENDBRANCH  25  26
ENDBRANCH  24  25
ENDBRANCH  23  24
ENDBRANCH  14  23
ENDBRANCH  11  14
ENDBRANCH   9  10
ENDBRANCH   8   9
ENDBRANCH   4   8
TORSDOF 17
ENDMDL
MODEL      134
REMARK 921   NORMALIZED FREE ENERGY PREDICTED BY IDOCK:   -4.76 KCAL/MOL
REMARK 922        TOTAL FREE ENERGY PREDICTED BY IDOCK:  -12.46 KCAL/MOL
REMARK 923 INTER-LIGAND FREE ENERGY PREDICTED BY IDOCK:  -10.80 KCAL/MOL
REMARK 924 INTRA-LIGAND FREE ENERGY PREDICTED BY IDOCK:   -1.66 KCAL/MOL
REMARK 927      BINDING AFFINITY PREDICTED BY RF-SCORE:    0.00 PKD
ROOT
HETATM    1  N   UNK A   1     -10.177   4.243  65.837  1.00  0.00    -0.406 NA 
HETATM    2  H1  UNK A   1      -9.631   3.618  65.243  1.00  0.00     0.000 HD 
HETATM    3  H2  UNK A   1     -11.147   4.283  65.523  1.00  0.00     0.000 HD 
HETATM    4  C   UNK A   1      -9.602   5.610  65.948  1.00  0.00    -0.027 C  
HETATM    5  O   UNK A   1      -7.502   6.376  66.965  1.00  0.00    -0.081 OA 
HETATM    6  C   UNK A   1      -8.139   5.496  66.409  1.00  0.00    -0.105 C  
HETATM    7  O   UNK A   1      -7.632   4.272  66.115  1.00  0.00    -0.087 OA 
ENDROOT
BRANCH   4   8
HETATM    8  C   UNK A   1     -10.421   6.547  66.839  1.00  0.00    -0.347 C  
BRANCH   8   9
HETATM    9  C   UNK A   1     -10.928   5.922  68.140  1.00  0.00    -0.258 C  
BRANCH   9  10
HETATM   10  C   UNK A   1     -10.038   6.338  69.289  1.00  0.00    -0.175 C  
HETATM   11  N   UNK A   1      -9.546   7.622  69.191  1.00  0.00    -0.154 N  
HETATM   12  O   UNK A   1      -9.750   5.575  70.206  1.00  0.00    -0.164 OA 
HETATM   13  H   UNK A   1      -9.769   8.197  68.379  1.00  0.00     0.000 HD 
BRANCH  11  14
HETATM   14  C   UNK A   1      -8.697   8.157  70.264  1.00  0.00    -0.133 C  
BRANCH  14  15
HETATM   15  C   UNK A   1      -9.604   8.723  71.376  1.00  0.00    -0.267 C  
ATOM     16  H   GLY A   2     -11.168   8.836  70.025  1.00  0.00     0.000 HD 
ATOM     17  N   GLY A   2     -10.902   8.986  70.998  1.00  0.00    -0.252 N  
HETATM   18  O   UNK A   1      -9.199   8.944  72.507  1.00  0.00    -0.334 OA 
BRANCH  17  19
ATOM     19  CA  GLY A   2     -11.909   9.467  71.928  1.00  0.00    -0.332 C  
ATOM     20  C   GLY A   2     -12.671  10.695  71.456  1.00  0.00    -0.444 C  
ATOM     21  O   GLY A   2     -11.995  11.497  70.580  1.00  0.00    -0.359 OA 
ATOM     22  OXT GLY A   2     -13.781  11.003  71.865  1.00  0.00    -0.120 OA 
ENDBRANCH  17  19
ENDBRANCH  14  15
BRANCH  14  23
HETATM   23  C   UNK A   1      -7.741   9.231  69.717  1.00  0.00    -0.096 C  
BRANCH  23  24
HETATM   24  S   UNK A   1      -8.012   9.734  67.988  1.00  0.00    -0.097 SA 
BRANCH  24  25
HETATM   25  S   UNK A   1      -9.361  11.264  68.196  1.00  0.00    -0.187 SA 
BRANCH  25  26
HETATM   26  C   UNK A   1      -8.484  12.662  67.410  1.00  0.00    -0.186 C  
BRANCH  26  27
HETATM   27  C   UNK A   1      -9.385  13.696  66.710  1.00  0.00    -0.261 C  
BRANCH  27  28
HETATM   28  C   UNK A   1     -10.475  12.984  65.854  1.00  0.00    -0.281 C  
ATOM     29  H   GLY A   2      -9.163  12.759  64.245  1.00  0.00     0.000 HD 
ATOM     30  N   GLY A   2     -10.093  12.544  64.603  1.00  0.00    -0.265 N  
HETATM   31  O   UNK A   1     -11.587  12.705  66.300  1.00  0.00    -0.343 OA 
BRANCH  30  32
ATOM     32  CA  GLY A   2     -11.029  11.768  63.798  1.00  0.00    -0.429 C  
ATOM     33  OXT GLY A   2     -13.404  11.747  63.228  1.00  0.00    -0.510 OA 
ATOM     34  C   GLY A   2     -12.392  12.394  63.467  1.00  0.00    -0.546 C  
ATOM     35  O   GLY A   2     -12.356  13.721  63.242  1.00  0.00    -0.756 OA 
ENDBRANCH  30  32
ENDBRANCH  27  28
BRANCH  27  36
HETATM   36  N   UNK A   1      -9.791  14.839  67.557  1.00  0.00    -0.217 N  
HETATM   37  H   UNK A   1      -9.805  14.722  68.570  1.00  0.00     0.000 HD 
HETATM   38  O   UNK A   1     -10.033  16.330  65.835  1.00  0.00    -0.313 OA 
HETATM   39  C   UNK A   1     -10.151  16.054  67.024  1.00  0.00    -0.271 C  
BRANCH  39  40
HETATM   40  C   UNK A   1     -10.586  17.122  68.016  1.00  0.00    -0.374 C  
BRANCH  40  41
HETATM   41  C   UNK A   1      -9.687  18.368  68.134  1.00  0.00    -0.352 C  
BRANCH  41  42
HETATM   42  C   UNK A   1      -8.167  18.152  68.131  1.00  0.00    -0.276 C  
HETATM   43  N   UNK A   1      -7.512  18.730  69.335  1.00  0.00    -0.060 NA 
HETATM   44  C   UNK A   1      -7.555  18.826  66.917  1.00  0.00    -0.227 C  
HETATM   45  O   UNK A   1      -7.524  18.433  65.765  1.00  0.00    -0.484 OA 
HETATM   46  O   UNK A   1      -7.073  20.036  67.284  1.00  0.00    -0.226 OA 
HETATM   47  H2  UNK A   1      -7.933  18.372  70.191  1.00  0.00     0.000 HD 
HETATM   48  H1  UNK A   1      -6.502  18.587  69.333  1.00  0.00     0.000 HD 
ENDBRANCH  41  42
ENDBRANCH  40  41
ENDBRANCH  39  40
ENDBRANCH  27  36
ENDBRANCH  26  27
ENDBRANCH  25  26
ENDBRANCH  24  25
ENDBRANCH  23  24
ENDBRANCH  14  23
ENDBRANCH  11  14
ENDBRANCH   9  10
ENDBRANCH   8   9
ENDBRANCH   4   8
TORSDOF 17
ENDMDL
MODEL      135
REMARK 921   NORMALIZED FREE ENERGY PREDICTED BY IDOCK:   -4.75 KCAL/MOL
REMARK 922        TOTAL FREE ENERGY PREDICTED BY IDOCK:  -12.45 KCAL/MOL
REMARK 923 INTER-LIGAND FREE ENERGY PREDICTED BY IDOCK:  -10.15 KCAL/MOL
REMARK 924 INTRA-LIGAND FREE ENERGY PREDICTED BY IDOCK:   -2.30 KCAL/MOL
REMARK 927      BINDING AFFINITY PREDICTED BY RF-SCORE:    0.00 PKD
ROOT
HETATM    1  N   UNK A   1     -11.694  14.147  70.816  1.00  0.00    -0.500 NA 
HETATM    2  H1  UNK A   1     -12.084  14.375  71.730  1.00  0.00     0.000 HD 
HETATM    3  H2  UNK A   1     -11.505  14.995  70.282  1.00  0.00     0.000 HD 
HETATM    4  C   UNK A   1     -12.535  13.206  70.028  1.00  0.00    -0.076 C  
HETATM    5  O   UNK A   1     -13.106  10.853  70.442  1.00  0.00    -0.176 OA 
HETATM    6  C   UNK A   1     -12.804  11.952  70.879  1.00  0.00    -0.130 C  
HETATM    7  O   UNK A   1     -12.662  12.224  72.201  1.00  0.00    -0.120 OA 
ENDROOT
BRANCH   4   8
HETATM    8  C   UNK A   1     -11.950  12.864  68.657  1.00  0.00    -0.282 C  
BRANCH   8   9
HETATM    9  C   UNK A   1     -10.554  12.238  68.688  1.00  0.00    -0.249 C  
BRANCH   9  10
HETATM   10  C   UNK A   1      -9.573  13.140  67.975  1.00  0.00    -0.220 C  
HETATM   11  N   UNK A   1      -8.927  14.040  68.796  1.00  0.00    -0.360 N  
HETATM   12  O   UNK A   1      -9.404  13.096  66.760  1.00  0.00    -0.235 OA 
HETATM   13  H   UNK A   1      -9.146  14.075  69.791  1.00  0.00     0.000 HD 
BRANCH  11  14
HETATM   14  C   UNK A   1      -7.921  14.948  68.228  1.00  0.00    -0.130 C  
BRANCH  14  15
HETATM   15  C   UNK A   1      -8.624  15.916  67.255  1.00  0.00    -0.184 C  
ATOM     16  H   GLY A   2     -10.028  16.342  68.713  1.00  0.00     0.000 HD 
ATOM     17  N   GLY A   2      -9.726  16.566  67.765  1.00  0.00    -0.233 N  
HETATM   18  O   UNK A   1      -8.246  16.084  66.106  1.00  0.00    -0.268 OA 
BRANCH  17  19
ATOM     19  CA  GLY A   2     -10.475  17.556  67.011  1.00  0.00    -0.293 C  
ATOM     20  C   GLY A   2     -10.142  18.999  67.354  1.00  0.00    -0.370 C  
ATOM     21  O   GLY A   2      -9.669  19.201  68.620  1.00  0.00    -0.369 OA 
ATOM     22  OXT GLY A   2     -10.335  19.938  66.596  1.00  0.00    -0.439 OA 
ENDBRANCH  17  19
ENDBRANCH  14  15
BRANCH  14  23
HETATM   23  C   UNK A   1      -6.807  14.153  67.524  1.00  0.00    -0.130 C  
BRANCH  23  24
HETATM   24  S   UNK A   1      -5.490  13.501  68.599  1.00  0.00    -0.089 SA 
BRANCH  24  25
HETATM   25  S   UNK A   1      -6.341  11.780  69.318  1.00  0.00    -0.113 SA 
BRANCH  25  26
HETATM   26  C   UNK A   1      -5.928  10.570  68.011  1.00  0.00    -0.047 C  
BRANCH  26  27
HETATM   27  C   UNK A   1      -7.129   9.820  67.404  1.00  0.00    -0.085 C  
BRANCH  27  28
HETATM   28  C   UNK A   1      -8.016   9.205  68.528  1.00  0.00    -0.102 C  
ATOM     29  H   GLY A   2      -9.685   9.145  67.272  1.00  0.00     0.000 HD 
ATOM     30  N   GLY A   2      -9.319   8.897  68.191  1.00  0.00    -0.142 N  
HETATM   31  O   UNK A   1      -7.565   8.885  69.626  1.00  0.00    -0.068 OA 
BRANCH  30  32
ATOM     32  CA  GLY A   2     -10.168   8.213  69.160  1.00  0.00    -0.214 C  
ATOM     33  OXT GLY A   2     -11.374   6.103  69.400  1.00  0.00    -0.420 OA 
ATOM     34  C   GLY A   2     -10.386   6.703  68.995  1.00  0.00    -0.192 C  
ATOM     35  O   GLY A   2      -9.306   6.029  68.555  1.00  0.00    -0.117 OA 
ENDBRANCH  30  32
ENDBRANCH  27  28
BRANCH  27  36
HETATM   36  N   UNK A   1      -7.796  10.519  66.284  1.00  0.00    -0.135 N  
HETATM   37  H   UNK A   1      -7.916  11.530  66.335  1.00  0.00     0.000 HD 
HETATM   38  O   UNK A   1      -8.038   8.662  64.964  1.00  0.00    -0.126 OA 
HETATM   39  C   UNK A   1      -8.259   9.850  65.176  1.00  0.00    -0.144 C  
BRANCH  39  40
HETATM   40  C   UNK A   1      -8.962  10.695  64.124  1.00  0.00    -0.214 C  
BRANCH  40  41
HETATM   41  C   UNK A   1     -10.423  11.090  64.414  1.00  0.00    -0.422 C  
BRANCH  41  42
HETATM   42  C   UNK A   1     -10.986  12.319  63.686  1.00  0.00    -0.471 C  
HETATM   43  N   UNK A   1     -10.307  13.578  64.095  1.00  0.00    -0.708 NA 
HETATM   44  C   UNK A   1     -12.460  12.476  64.012  1.00  0.00    -0.435 C  
HETATM   45  O   UNK A   1     -13.409  11.874  63.544  1.00  0.00    -0.605 OA 
HETATM   46  O   UNK A   1     -12.596  13.385  65.004  1.00  0.00    -0.539 OA 
HETATM   47  H2  UNK A   1      -9.298  13.508  63.972  1.00  0.00     0.000 HD 
HETATM   48  H1  UNK A   1     -10.682  14.395  63.611  1.00  0.00     0.000 HD 
ENDBRANCH  41  42
ENDBRANCH  40  41
ENDBRANCH  39  40
ENDBRANCH  27  36
ENDBRANCH  26  27
ENDBRANCH  25  26
ENDBRANCH  24  25
ENDBRANCH  23  24
ENDBRANCH  14  23
ENDBRANCH  11  14
ENDBRANCH   9  10
ENDBRANCH   8   9
ENDBRANCH   4   8
TORSDOF 17
ENDMDL
MODEL      136
REMARK 921   NORMALIZED FREE ENERGY PREDICTED BY IDOCK:   -4.75 KCAL/MOL
REMARK 922        TOTAL FREE ENERGY PREDICTED BY IDOCK:  -12.44 KCAL/MOL
REMARK 923 INTER-LIGAND FREE ENERGY PREDICTED BY IDOCK:  -11.16 KCAL/MOL
REMARK 924 INTRA-LIGAND FREE ENERGY PREDICTED BY IDOCK:   -1.28 KCAL/MOL
REMARK 927      BINDING AFFINITY PREDICTED BY RF-SCORE:    0.00 PKD
ROOT
HETATM    1  N   UNK A   1      -8.069  10.925  69.326  1.00  0.00    -0.338 NA 
HETATM    2  H1  UNK A   1      -8.483  10.247  69.965  1.00  0.00     0.000 HD 
HETATM    3  H2  UNK A   1      -8.555  11.820  69.386  1.00  0.00     0.000 HD 
HETATM    4  C   UNK A   1      -8.007  10.454  67.917  1.00  0.00    -0.102 C  
HETATM    5  O   UNK A   1      -6.717   8.623  66.907  1.00  0.00    -0.064 OA 
HETATM    6  C   UNK A   1      -7.279   9.098  67.881  1.00  0.00    -0.080 C  
HETATM    7  O   UNK A   1      -7.342   8.483  69.089  1.00  0.00    -0.076 OA 
ENDROOT
BRANCH   4   8
HETATM    8  C   UNK A   1      -7.386  11.472  66.958  1.00  0.00    -0.145 C  
BRANCH   8   9
HETATM    9  C   UNK A   1      -6.319  12.376  67.578  1.00  0.00    -0.148 C  
BRANCH   9  10
HETATM   10  C   UNK A   1      -6.913  13.729  67.892  1.00  0.00    -0.155 C  
HETATM   11  N   UNK A   1      -6.122  14.798  67.527  1.00  0.00    -0.051 N  
HETATM   12  O   UNK A   1      -7.993  13.855  68.463  1.00  0.00    -0.137 OA 
HETATM   13  H   UNK A   1      -5.207  14.638  67.107  1.00  0.00     0.000 HD 
BRANCH  11  14
HETATM   14  C   UNK A   1      -6.606  16.167  67.747  1.00  0.00    -0.151 C  
BRANCH  14  15
HETATM   15  C   UNK A   1      -6.171  16.625  69.154  1.00  0.00    -0.184 C  
ATOM     16  H   GLY A   2      -5.904  18.546  68.432  1.00  0.00     0.000 HD 
ATOM     17  N   GLY A   2      -5.866  17.964  69.268  1.00  0.00    -0.211 N  
HETATM   18  O   UNK A   1      -6.081  15.856  70.098  1.00  0.00    -0.171 OA 
BRANCH  17  19
ATOM     19  CA  GLY A   2      -5.494  18.580  70.530  1.00  0.00    -0.229 C  
ATOM     20  C   GLY A   2      -5.934  20.027  70.682  1.00  0.00    -0.327 C  
ATOM     21  O   GLY A   2      -6.084  20.715  69.510  1.00  0.00    -0.330 OA 
ATOM     22  OXT GLY A   2      -6.085  20.581  71.761  1.00  0.00    -0.663 OA 
ENDBRANCH  17  19
ENDBRANCH  14  15
BRANCH  14  23
HETATM   23  C   UNK A   1      -8.134  16.237  67.580  1.00  0.00    -0.146 C  
BRANCH  23  24
HETATM   24  S   UNK A   1      -8.773  17.688  66.685  1.00  0.00    -0.267 SA 
BRANCH  24  25
HETATM   25  S   UNK A   1     -10.512  16.959  65.881  1.00  0.00    -0.208 SA 
BRANCH  25  26
HETATM   26  C   UNK A   1     -10.486  15.213  66.422  1.00  0.00    -0.297 C  
BRANCH  26  27
HETATM   27  C   UNK A   1     -11.854  14.504  66.430  1.00  0.00    -0.349 C  
BRANCH  27  28
HETATM   28  C   UNK A   1     -11.990  13.561  65.198  1.00  0.00    -0.368 C  
ATOM     29  H   GLY A   2      -9.918  13.469  64.951  1.00  0.00     0.000 HD 
ATOM     30  N   GLY A   2     -10.817  13.117  64.622  1.00  0.00    -0.345 N  
HETATM   31  O   UNK A   1     -13.074  13.120  64.820  1.00  0.00    -0.728 OA 
BRANCH  30  32
ATOM     32  CA  GLY A   2     -10.872  12.141  63.540  1.00  0.00    -0.458 C  
ATOM     33  OXT GLY A   2      -9.636  10.193  62.740  1.00  0.00    -0.302 OA 
ATOM     34  C   GLY A   2     -10.054  10.851  63.685  1.00  0.00    -0.355 C  
ATOM     35  O   GLY A   2     -10.001  10.361  64.939  1.00  0.00    -0.306 OA 
ENDBRANCH  30  32
ENDBRANCH  27  28
BRANCH  27  36
HETATM   36  N   UNK A   1     -12.283  14.000  67.753  1.00  0.00    -0.528 N  
HETATM   37  H   UNK A   1     -13.091  14.428  68.206  1.00  0.00     0.000 HD 
HETATM   38  O   UNK A   1     -10.741  12.311  67.869  1.00  0.00    -0.205 OA 
HETATM   39  C   UNK A   1     -11.629  12.974  68.393  1.00  0.00    -0.335 C  
BRANCH  39  40
HETATM   40  C   UNK A   1     -12.159  12.592  69.767  1.00  0.00    -0.293 C  
BRANCH  40  41
HETATM   41  C   UNK A   1     -11.547  11.339  70.423  1.00  0.00    -0.319 C  
BRANCH  41  42
HETATM   42  C   UNK A   1     -12.510  10.238  70.891  1.00  0.00    -0.370 C  
HETATM   43  N   UNK A   1     -13.144  10.561  72.198  1.00  0.00    -0.546 NA 
HETATM   44  C   UNK A   1     -11.752   8.935  71.068  1.00  0.00    -0.289 C  
HETATM   45  O   UNK A   1     -11.399   8.141  70.215  1.00  0.00    -0.236 OA 
HETATM   46  O   UNK A   1     -11.434   8.786  72.374  1.00  0.00    -0.350 OA 
HETATM   47  H2  UNK A   1     -13.608  11.468  72.167  1.00  0.00     0.000 HD 
HETATM   48  H1  UNK A   1     -13.783   9.830  72.509  1.00  0.00     0.000 HD 
ENDBRANCH  41  42
ENDBRANCH  40  41
ENDBRANCH  39  40
ENDBRANCH  27  36
ENDBRANCH  26  27
ENDBRANCH  25  26
ENDBRANCH  24  25
ENDBRANCH  23  24
ENDBRANCH  14  23
ENDBRANCH  11  14
ENDBRANCH   9  10
ENDBRANCH   8   9
ENDBRANCH   4   8
TORSDOF 17
ENDMDL
MODEL      137
REMARK 921   NORMALIZED FREE ENERGY PREDICTED BY IDOCK:   -4.75 KCAL/MOL
REMARK 922        TOTAL FREE ENERGY PREDICTED BY IDOCK:  -12.44 KCAL/MOL
REMARK 923 INTER-LIGAND FREE ENERGY PREDICTED BY IDOCK:  -10.15 KCAL/MOL
REMARK 924 INTRA-LIGAND FREE ENERGY PREDICTED BY IDOCK:   -2.28 KCAL/MOL
REMARK 927      BINDING AFFINITY PREDICTED BY RF-SCORE:    0.00 PKD
ROOT
HETATM    1  N   UNK A   1     -12.070  16.341  71.553  1.00  0.00    -0.633 NA 
HETATM    2  H1  UNK A   1     -12.670  17.127  71.802  1.00  0.00     0.000 HD 
HETATM    3  H2  UNK A   1     -11.375  16.623  70.861  1.00  0.00     0.000 HD 
HETATM    4  C   UNK A   1     -12.821  15.144  71.087  1.00  0.00    -0.401 C  
HETATM    5  O   UNK A   1     -14.364  13.664  72.296  1.00  0.00    -0.566 OA 
HETATM    6  C   UNK A   1     -13.863  14.768  72.155  1.00  0.00    -0.475 C  
HETATM    7  O   UNK A   1     -14.165  15.837  72.935  1.00  0.00    -0.478 OA 
ENDROOT
BRANCH   4   8
HETATM    8  C   UNK A   1     -11.920  13.965  70.713  1.00  0.00    -0.348 C  
BRANCH   8   9
HETATM    9  C   UNK A   1     -12.643  12.776  70.078  1.00  0.00     0.073 C  
BRANCH   9  10
HETATM   10  C   UNK A   1     -11.965  11.488  70.484  1.00  0.00    -0.344 C  
HETATM   11  N   UNK A   1     -10.834  11.186  69.756  1.00  0.00    -0.459 N  
HETATM   12  O   UNK A   1     -12.415  10.758  71.363  1.00  0.00    -0.369 OA 
HETATM   13  H   UNK A   1     -10.534  11.797  68.997  1.00  0.00     0.000 HD 
BRANCH  11  14
HETATM   14  C   UNK A   1     -10.064   9.977  70.079  1.00  0.00    -0.239 C  
BRANCH  14  15
HETATM   15  C   UNK A   1      -8.589  10.213  69.699  1.00  0.00    -0.153 C  
ATOM     16  H   GLY A   2      -9.136  11.944  68.705  1.00  0.00     0.000 HD 
ATOM     17  N   GLY A   2      -8.345  11.360  68.975  1.00  0.00    -0.028 N  
HETATM   18  O   UNK A   1      -7.698   9.433  69.998  1.00  0.00    -0.089 OA 
BRANCH  17  19
ATOM     19  CA  GLY A   2      -7.009  11.772  68.581  1.00  0.00    -0.093 C  
ATOM     20  C   GLY A   2      -6.949  13.091  67.828  1.00  0.00    -0.143 C  
ATOM     21  O   GLY A   2      -8.084  13.419  67.140  1.00  0.00    -0.163 OA 
ATOM     22  OXT GLY A   2      -5.951  13.794  67.768  1.00  0.00    -0.162 OA 
ENDBRANCH  17  19
ENDBRANCH  14  15
BRANCH  14  23
HETATM   23  C   UNK A   1     -10.644   8.752  69.350  1.00  0.00    -0.209 C  
BRANCH  23  24
HETATM   24  S   UNK A   1     -10.297   8.648  67.566  1.00  0.00    -0.272 SA 
BRANCH  24  25
HETATM   25  S   UNK A   1      -8.921   7.130  67.488  1.00  0.00    -0.121 SA 
BRANCH  25  26
HETATM   26  C   UNK A   1      -8.907   6.711  65.709  1.00  0.00    -0.077 C  
BRANCH  26  27
HETATM   27  C   UNK A   1      -7.993   7.587  64.832  1.00  0.00    -0.132 C  
BRANCH  27  28
HETATM   28  C   UNK A   1      -6.894   6.721  64.149  1.00  0.00    -0.050 C  
ATOM     29  H   GLY A   2      -7.076   5.224  65.595  1.00  0.00     0.000 HD 
ATOM     30  N   GLY A   2      -6.625   5.493  64.720  1.00  0.00    -0.042 N  
HETATM   31  O   UNK A   1      -6.371   7.038  63.082  1.00  0.00    -0.043 OA 
BRANCH  30  32
ATOM     32  CA  GLY A   2      -5.692   4.585  64.065  1.00  0.00    -0.014 C  
ATOM     33  OXT GLY A   2      -5.653   2.328  63.133  1.00  0.00    -0.008 OA 
ATOM     34  C   GLY A   2      -6.265   3.373  63.317  1.00  0.00    -0.014 C  
ATOM     35  O   GLY A   2      -7.427   3.609  62.679  1.00  0.00    -0.050 OA 
ENDBRANCH  30  32
ENDBRANCH  27  28
BRANCH  27  36
HETATM   36  N   UNK A   1      -8.700   8.599  64.016  1.00  0.00    -0.420 N  
HETATM   37  H   UNK A   1      -9.225   8.293  63.197  1.00  0.00     0.000 HD 
HETATM   38  O   UNK A   1      -8.188  10.381  65.362  1.00  0.00    -0.152 OA 
HETATM   39  C   UNK A   1      -8.674   9.938  64.326  1.00  0.00    -0.209 C  
BRANCH  39  40
HETATM   40  C   UNK A   1      -9.411  10.865  63.371  1.00  0.00    -0.339 C  
BRANCH  40  41
HETATM   41  C   UNK A   1     -10.799  11.361  63.820  1.00  0.00    -0.468 C  
BRANCH  41  42
HETATM   42  C   UNK A   1     -10.872  12.714  64.544  1.00  0.00    -0.336 C  
HETATM   43  N   UNK A   1     -10.755  12.571  66.020  1.00  0.00    -0.257 NA 
HETATM   44  C   UNK A   1     -12.208  13.376  64.259  1.00  0.00    -0.392 C  
HETATM   45  O   UNK A   1     -12.555  13.988  63.266  1.00  0.00    -0.801 OA 
HETATM   46  O   UNK A   1     -13.049  13.127  65.289  1.00  0.00    -0.678 OA 
HETATM   47  H2  UNK A   1      -9.909  12.063  66.275  1.00  0.00     0.000 HD 
HETATM   48  H1  UNK A   1     -10.804  13.469  66.501  1.00  0.00     0.000 HD 
ENDBRANCH  41  42
ENDBRANCH  40  41
ENDBRANCH  39  40
ENDBRANCH  27  36
ENDBRANCH  26  27
ENDBRANCH  25  26
ENDBRANCH  24  25
ENDBRANCH  23  24
ENDBRANCH  14  23
ENDBRANCH  11  14
ENDBRANCH   9  10
ENDBRANCH   8   9
ENDBRANCH   4   8
TORSDOF 17
ENDMDL
MODEL      138
REMARK 921   NORMALIZED FREE ENERGY PREDICTED BY IDOCK:   -4.74 KCAL/MOL
REMARK 922        TOTAL FREE ENERGY PREDICTED BY IDOCK:  -12.43 KCAL/MOL
REMARK 923 INTER-LIGAND FREE ENERGY PREDICTED BY IDOCK:  -10.79 KCAL/MOL
REMARK 924 INTRA-LIGAND FREE ENERGY PREDICTED BY IDOCK:   -1.64 KCAL/MOL
REMARK 927      BINDING AFFINITY PREDICTED BY RF-SCORE:    0.00 PKD
ROOT
HETATM    1  N   UNK A   1     -11.102  14.718  70.830  1.00  0.00    -0.512 NA 
HETATM    2  H1  UNK A   1     -11.074  15.734  70.913  1.00  0.00     0.000 HD 
HETATM    3  H2  UNK A   1     -10.665  14.415  69.959  1.00  0.00     0.000 HD 
HETATM    4  C   UNK A   1     -12.471  14.148  70.957  1.00  0.00    -0.367 C  
HETATM    5  O   UNK A   1     -14.000  14.095  72.879  1.00  0.00    -0.602 OA 
HETATM    6  C   UNK A   1     -13.091  14.643  72.275  1.00  0.00    -0.364 C  
HETATM    7  O   UNK A   1     -12.495  15.789  72.692  1.00  0.00    -0.371 OA 
ENDROOT
BRANCH   4   8
HETATM    8  C   UNK A   1     -12.512  12.624  70.832  1.00  0.00    -0.368 C  
BRANCH   8   9
HETATM    9  C   UNK A   1     -11.703  12.048  69.668  1.00  0.00    -0.405 C  
BRANCH   9  10
HETATM   10  C   UNK A   1     -11.374  10.599  69.940  1.00  0.00    -0.313 C  
HETATM   11  N   UNK A   1     -11.455  10.236  71.268  1.00  0.00    -0.257 N  
HETATM   12  O   UNK A   1     -11.024   9.827  69.052  1.00  0.00    -0.219 OA 
HETATM   13  H   UNK A   1     -11.695  10.930  71.976  1.00  0.00     0.000 HD 
BRANCH  11  14
HETATM   14  C   UNK A   1     -11.194   8.844  71.657  1.00  0.00    -0.345 C  
BRANCH  14  15
HETATM   15  C   UNK A   1      -9.694   8.696  71.985  1.00  0.00    -0.321 C  
ATOM     16  H   GLY A   2     -10.188   7.949  73.851  1.00  0.00     0.000 HD 
ATOM     17  N   GLY A   2      -9.413   8.165  73.225  1.00  0.00    -0.257 N  
HETATM   18  O   UNK A   1      -8.814   9.041  71.212  1.00  0.00    -0.215 OA 
BRANCH  17  19
ATOM     19  CA  GLY A   2      -8.059   7.901  73.679  1.00  0.00    -0.196 C  
ATOM     20  C   GLY A   2      -7.515   6.536  73.291  1.00  0.00    -0.085 C  
ATOM     21  O   GLY A   2      -8.461   5.567  73.103  1.00  0.00    -0.118 OA 
ATOM     22  OXT GLY A   2      -6.323   6.277  73.211  1.00  0.00    -0.062 OA 
ENDBRANCH  17  19
ENDBRANCH  14  15
BRANCH  14  23
HETATM   23  C   UNK A   1     -11.623   7.878  70.540  1.00  0.00    -0.144 C  
BRANCH  23  24
HETATM   24  S   UNK A   1     -11.382   6.105  70.881  1.00  0.00    -0.233 SA 
BRANCH  24  25
HETATM   25  S   UNK A   1     -10.080   5.560  69.395  1.00  0.00    -0.260 SA 
BRANCH  25  26
HETATM   26  C   UNK A   1     -10.750   6.453  67.947  1.00  0.00    -0.299 C  
BRANCH  26  27
HETATM   27  C   UNK A   1      -9.704   7.171  67.073  1.00  0.00    -0.170 C  
BRANCH  27  28
HETATM   28  C   UNK A   1      -8.817   6.137  66.318  1.00  0.00    -0.146 C  
ATOM     29  H   GLY A   2      -7.080   6.858  67.228  1.00  0.00     0.000 HD 
ATOM     30  N   GLY A   2      -7.467   6.146  66.609  1.00  0.00    -0.089 N  
HETATM   31  O   UNK A   1      -9.291   5.264  65.592  1.00  0.00    -0.161 OA 
BRANCH  30  32
ATOM     32  CA  GLY A   2      -6.600   5.130  66.026  1.00  0.00    -0.048 C  
ATOM     33  OXT GLY A   2      -5.200   3.259  66.738  1.00  0.00    -0.011 OA 
ATOM     34  C   GLY A   2      -6.224   3.916  66.887  1.00  0.00    -0.032 C  
ATOM     35  O   GLY A   2      -7.209   3.479  67.694  1.00  0.00    -0.057 OA 
ENDBRANCH  30  32
ENDBRANCH  27  28
BRANCH  27  36
HETATM   36  N   UNK A   1     -10.219   8.337  66.323  1.00  0.00    -0.435 N  
HETATM   37  H   UNK A   1     -11.170   8.308  65.957  1.00  0.00     0.000 HD 
HETATM   38  O   UNK A   1      -8.359   9.642  66.619  1.00  0.00    -0.122 OA 
HETATM   39  C   UNK A   1      -9.457   9.460  66.102  1.00  0.00    -0.226 C  
BRANCH  39  40
HETATM   40  C   UNK A   1     -10.105  10.562  65.278  1.00  0.00    -0.369 C  
BRANCH  40  41
HETATM   41  C   UNK A   1     -10.707  11.748  66.055  1.00  0.00    -0.324 C  
BRANCH  41  42
HETATM   42  C   UNK A   1     -10.616  13.140  65.414  1.00  0.00    -0.299 C  
HETATM   43  N   UNK A   1      -9.416  13.893  65.866  1.00  0.00    -0.511 NA 
HETATM   44  C   UNK A   1     -11.833  13.961  65.797  1.00  0.00    -0.378 C  
HETATM   45  O   UNK A   1     -12.957  13.916  65.330  1.00  0.00    -0.747 OA 
HETATM   46  O   UNK A   1     -11.514  14.759  66.841  1.00  0.00    -0.352 OA 
HETATM   47  H2  UNK A   1      -8.563  13.358  65.706  1.00  0.00     0.000 HD 
HETATM   48  H1  UNK A   1      -9.355  14.818  65.440  1.00  0.00     0.000 HD 
ENDBRANCH  41  42
ENDBRANCH  40  41
ENDBRANCH  39  40
ENDBRANCH  27  36
ENDBRANCH  26  27
ENDBRANCH  25  26
ENDBRANCH  24  25
ENDBRANCH  23  24
ENDBRANCH  14  23
ENDBRANCH  11  14
ENDBRANCH   9  10
ENDBRANCH   8   9
ENDBRANCH   4   8
TORSDOF 17
ENDMDL
MODEL      139
REMARK 921   NORMALIZED FREE ENERGY PREDICTED BY IDOCK:   -4.74 KCAL/MOL
REMARK 922        TOTAL FREE ENERGY PREDICTED BY IDOCK:  -12.42 KCAL/MOL
REMARK 923 INTER-LIGAND FREE ENERGY PREDICTED BY IDOCK:  -10.84 KCAL/MOL
REMARK 924 INTRA-LIGAND FREE ENERGY PREDICTED BY IDOCK:   -1.57 KCAL/MOL
REMARK 927      BINDING AFFINITY PREDICTED BY RF-SCORE:    0.00 PKD
ROOT
HETATM    1  N   UNK A   1      -9.414   9.350  62.562  1.00  0.00    -0.556 NA 
HETATM    2  H1  UNK A   1      -8.814   9.388  61.738  1.00  0.00     0.000 HD 
HETATM    3  H2  UNK A   1     -10.391   9.489  62.304  1.00  0.00     0.000 HD 
HETATM    4  C   UNK A   1      -9.012  10.301  63.633  1.00  0.00    -0.240 C  
HETATM    5  O   UNK A   1      -6.992  10.366  65.029  1.00  0.00    -0.128 OA 
HETATM    6  C   UNK A   1      -7.532  10.063  63.977  1.00  0.00    -0.135 C  
HETATM    7  O   UNK A   1      -6.885   9.464  62.945  1.00  0.00    -0.097 OA 
ENDROOT
BRANCH   4   8
HETATM    8  C   UNK A   1      -9.912  10.244  64.870  1.00  0.00    -0.393 C  
BRANCH   8   9
HETATM    9  C   UNK A   1      -9.755   8.987  65.727  1.00  0.00    -0.254 C  
BRANCH   9  10
HETATM   10  C   UNK A   1      -9.530   9.375  67.169  1.00  0.00    -0.145 C  
HETATM   11  N   UNK A   1      -8.323   8.958  67.690  1.00  0.00    -0.110 N  
HETATM   12  O   UNK A   1     -10.376   9.974  67.827  1.00  0.00    -0.186 OA 
HETATM   13  H   UNK A   1      -7.680   8.412  67.118  1.00  0.00     0.000 HD 
BRANCH  11  14
HETATM   14  C   UNK A   1      -7.972   9.305  69.073  1.00  0.00    -0.097 C  
BRANCH  14  15
HETATM   15  C   UNK A   1      -8.872   8.497  70.030  1.00  0.00    -0.141 C  
ATOM     16  H   GLY A   2      -9.171  10.200  71.166  1.00  0.00     0.000 HD 
ATOM     17  N   GLY A   2      -9.421   9.216  71.069  1.00  0.00    -0.272 N  
HETATM   18  O   UNK A   1      -9.073   7.300  69.892  1.00  0.00    -0.142 OA 
BRANCH  17  19
ATOM     19  CA  GLY A   2     -10.338   8.633  72.031  1.00  0.00    -0.346 C  
ATOM     20  C   GLY A   2     -11.805   8.935  71.772  1.00  0.00    -0.358 C  
ATOM     21  O   GLY A   2     -12.048  10.095  71.091  1.00  0.00    -0.328 OA 
ATOM     22  OXT GLY A   2     -12.724   8.244  72.187  1.00  0.00    -0.332 OA 
ENDBRANCH  17  19
ENDBRANCH  14  15
BRANCH  14  23
HETATM   23  C   UNK A   1      -8.116  10.818  69.308  1.00  0.00    -0.096 C  
BRANCH  23  24
HETATM   24  S   UNK A   1      -6.836  11.869  68.552  1.00  0.00    -0.083 SA 
BRANCH  24  25
HETATM   25  S   UNK A   1      -7.952  13.100  67.351  1.00  0.00    -0.147 SA 
BRANCH  25  26
HETATM   26  C   UNK A   1      -9.377  13.499  68.423  1.00  0.00    -0.171 C  
BRANCH  26  27
HETATM   27  C   UNK A   1     -10.021  14.876  68.178  1.00  0.00    -0.222 C  
BRANCH  27  28
HETATM   28  C   UNK A   1     -11.406  14.968  68.886  1.00  0.00    -0.297 C  
ATOM     29  H   GLY A   2     -11.067  13.192  69.932  1.00  0.00     0.000 HD 
ATOM     30  N   GLY A   2     -11.702  13.980  69.803  1.00  0.00    -0.297 N  
HETATM   31  O   UNK A   1     -12.157  15.932  68.746  1.00  0.00    -0.297 OA 
BRANCH  30  32
ATOM     32  CA  GLY A   2     -12.929  14.069  70.585  1.00  0.00    -0.196 C  
ATOM     33  OXT GLY A   2     -13.651  13.964  72.916  1.00  0.00    -0.680 OA 
ATOM     34  C   GLY A   2     -12.810  14.313  72.096  1.00  0.00    -0.344 C  
ATOM     35  O   GLY A   2     -11.806  15.137  72.450  1.00  0.00    -0.382 OA 
ENDBRANCH  30  32
ENDBRANCH  27  28
BRANCH  27  36
HETATM   36  N   UNK A   1      -9.095  16.024  68.293  1.00  0.00    -0.188 N  
HETATM   37  H   UNK A   1      -8.626  16.192  69.183  1.00  0.00     0.000 HD 
HETATM   38  O   UNK A   1      -9.253  16.670  66.101  1.00  0.00    -0.300 OA 
HETATM   39  C   UNK A   1      -8.845  16.872  67.240  1.00  0.00    -0.195 C  
BRANCH  39  40
HETATM   40  C   UNK A   1      -7.903  18.033  67.519  1.00  0.00    -0.217 C  
BRANCH  40  41
HETATM   41  C   UNK A   1      -7.453  18.869  66.306  1.00  0.00    -0.288 C  
BRANCH  41  42
HETATM   42  C   UNK A   1      -8.084  20.257  66.123  1.00  0.00    -0.123 C  
HETATM   43  N   UNK A   1      -7.454  21.283  66.997  1.00  0.00    -0.788 NA 
HETATM   44  C   UNK A   1      -9.557  20.202  66.484  1.00  0.00    -0.404 C  
HETATM   45  O   UNK A   1     -10.487  19.788  65.816  1.00  0.00    -0.511 OA 
HETATM   46  O   UNK A   1      -9.714  20.637  67.755  1.00  0.00    -0.355 OA 
HETATM   47  H2  UNK A   1      -6.444  21.317  66.856  1.00  0.00     0.000 HD 
HETATM   48  H1  UNK A   1      -7.873  22.205  66.876  1.00  0.00     0.000 HD 
ENDBRANCH  41  42
ENDBRANCH  40  41
ENDBRANCH  39  40
ENDBRANCH  27  36
ENDBRANCH  26  27
ENDBRANCH  25  26
ENDBRANCH  24  25
ENDBRANCH  23  24
ENDBRANCH  14  23
ENDBRANCH  11  14
ENDBRANCH   9  10
ENDBRANCH   8   9
ENDBRANCH   4   8
TORSDOF 17
ENDMDL
MODEL      140
REMARK 921   NORMALIZED FREE ENERGY PREDICTED BY IDOCK:   -4.73 KCAL/MOL
REMARK 922        TOTAL FREE ENERGY PREDICTED BY IDOCK:  -12.40 KCAL/MOL
REMARK 923 INTER-LIGAND FREE ENERGY PREDICTED BY IDOCK:  -10.71 KCAL/MOL
REMARK 924 INTRA-LIGAND FREE ENERGY PREDICTED BY IDOCK:   -1.68 KCAL/MOL
REMARK 927      BINDING AFFINITY PREDICTED BY RF-SCORE:    0.00 PKD
ROOT
HETATM    1  N   UNK A   1      -9.986   9.729  65.152  1.00  0.00    -0.400 NA 
HETATM    2  H1  UNK A   1      -9.678   8.773  65.330  1.00  0.00     0.000 HD 
HETATM    3  H2  UNK A   1     -10.989   9.822  65.316  1.00  0.00     0.000 HD 
HETATM    4  C   UNK A   1      -9.626  10.227  63.797  1.00  0.00    -0.284 C  
HETATM    5  O   UNK A   1      -7.427  10.682  62.800  1.00  0.00    -0.119 OA 
HETATM    6  C   UNK A   1      -8.111  10.053  63.592  1.00  0.00    -0.157 C  
HETATM    7  O   UNK A   1      -7.618   9.093  64.416  1.00  0.00    -0.108 OA 
ENDROOT
BRANCH   4   8
HETATM    8  C   UNK A   1     -10.087  11.661  63.530  1.00  0.00    -0.455 C  
BRANCH   8   9
HETATM    9  C   UNK A   1     -11.604  11.849  63.452  1.00  0.00    -0.477 C  
BRANCH   9  10
HETATM   10  C   UNK A   1     -12.048  12.862  64.481  1.00  0.00    -0.413 C  
HETATM   11  N   UNK A   1     -11.037  13.671  64.957  1.00  0.00    -0.318 N  
HETATM   12  O   UNK A   1     -13.206  12.925  64.884  1.00  0.00    -0.782 OA 
HETATM   13  H   UNK A   1     -10.080  13.540  64.633  1.00  0.00     0.000 HD 
BRANCH  11  14
HETATM   14  C   UNK A   1     -11.349  14.721  65.937  1.00  0.00    -0.331 C  
BRANCH  14  15
HETATM   15  C   UNK A   1     -10.714  16.043  65.461  1.00  0.00    -0.361 C  
ATOM     16  H   GLY A   2      -9.530  16.070  67.158  1.00  0.00     0.000 HD 
ATOM     17  N   GLY A   2      -9.738  16.557  66.287  1.00  0.00    -0.287 N  
HETATM   18  O   UNK A   1     -11.062  16.610  64.437  1.00  0.00    -0.985 OA 
BRANCH  17  19
ATOM     19  CA  GLY A   2      -8.993  17.763  65.968  1.00  0.00     0.009 C  
ATOM     20  C   GLY A   2      -8.501  18.541  67.178  1.00  0.00    -0.265 C  
ATOM     21  O   GLY A   2      -9.243  18.379  68.314  1.00  0.00    -0.298 OA 
ATOM     22  OXT GLY A   2      -7.555  19.314  67.148  1.00  0.00    -0.227 OA 
ENDBRANCH  17  19
ENDBRANCH  14  15
BRANCH  14  23
HETATM   23  C   UNK A   1     -10.845  14.326  67.336  1.00  0.00    -0.285 C  
BRANCH  23  24
HETATM   24  S   UNK A   1     -11.834  13.077  68.217  1.00  0.00    -0.300 SA 
BRANCH  24  25
HETATM   25  S   UNK A   1     -10.518  11.512  68.357  1.00  0.00    -0.214 SA 
BRANCH  25  26
HETATM   26  C   UNK A   1     -11.151  10.603  69.811  1.00  0.00    -0.295 C  
BRANCH  26  27
HETATM   27  C   UNK A   1     -10.123   9.709  70.529  1.00  0.00    -0.274 C  
BRANCH  27  28
HETATM   28  C   UNK A   1     -10.832   8.761  71.541  1.00  0.00    -0.304 C  
ATOM     29  H   GLY A   2      -9.101   7.618  71.789  1.00  0.00     0.000 HD 
ATOM     30  N   GLY A   2     -10.062   7.762  72.101  1.00  0.00    -0.198 N  
HETATM   31  O   UNK A   1     -11.982   8.953  71.932  1.00  0.00    -0.325 OA 
BRANCH  30  32
ATOM     32  CA  GLY A   2     -10.631   6.913  73.141  1.00  0.00    -0.302 C  
ATOM     33  OXT GLY A   2     -11.766   4.762  73.360  1.00  0.00    -0.284 OA 
ATOM     34  C   GLY A   2     -10.912   5.442  72.804  1.00  0.00    -0.277 C  
ATOM     35  O   GLY A   2     -10.003   4.873  71.990  1.00  0.00    -0.173 OA 
ENDBRANCH  30  32
ENDBRANCH  27  28
BRANCH  27  36
HETATM   36  N   UNK A   1      -9.074   9.144  69.652  1.00  0.00    -0.151 N  
HETATM   37  H   UNK A   1      -8.104   9.426  69.798  1.00  0.00     0.000 HD 
HETATM   38  O   UNK A   1     -10.470   7.751  68.487  1.00  0.00    -0.202 OA 
HETATM   39  C   UNK A   1      -9.362   8.251  68.647  1.00  0.00    -0.143 C  
BRANCH  39  40
HETATM   40  C   UNK A   1      -8.186   7.789  67.799  1.00  0.00    -0.126 C  
BRANCH  40  41
HETATM   41  C   UNK A   1      -7.541   6.443  68.182  1.00  0.00    -0.103 C  
BRANCH  41  42
HETATM   42  C   UNK A   1      -8.440   5.199  68.187  1.00  0.00    -0.099 C  
HETATM   43  N   UNK A   1      -7.850   4.078  68.967  1.00  0.00    -0.057 NA 
HETATM   44  C   UNK A   1      -8.637   4.703  66.766  1.00  0.00    -0.108 C  
HETATM   45  O   UNK A   1      -9.387   5.134  65.909  1.00  0.00    -0.154 OA 
HETATM   46  O   UNK A   1      -7.767   3.696  66.528  1.00  0.00    -0.083 OA 
HETATM   47  H2  UNK A   1      -7.622   4.371  69.917  1.00  0.00     0.000 HD 
HETATM   48  H1  UNK A   1      -8.447   3.251  68.970  1.00  0.00     0.000 HD 
ENDBRANCH  41  42
ENDBRANCH  40  41
ENDBRANCH  39  40
ENDBRANCH  27  36
ENDBRANCH  26  27
ENDBRANCH  25  26
ENDBRANCH  24  25
ENDBRANCH  23  24
ENDBRANCH  14  23
ENDBRANCH  11  14
ENDBRANCH   9  10
ENDBRANCH   8   9
ENDBRANCH   4   8
TORSDOF 17
ENDMDL
MODEL      141
REMARK 921   NORMALIZED FREE ENERGY PREDICTED BY IDOCK:   -4.73 KCAL/MOL
REMARK 922        TOTAL FREE ENERGY PREDICTED BY IDOCK:  -12.39 KCAL/MOL
REMARK 923 INTER-LIGAND FREE ENERGY PREDICTED BY IDOCK:   -9.61 KCAL/MOL
REMARK 924 INTRA-LIGAND FREE ENERGY PREDICTED BY IDOCK:   -2.78 KCAL/MOL
REMARK 927      BINDING AFFINITY PREDICTED BY RF-SCORE:    0.00 PKD
ROOT
HETATM    1  N   UNK A   1      -8.042   6.372  70.214  1.00  0.00    -0.118 NA 
HETATM    2  H1  UNK A   1      -7.751   6.862  71.060  1.00  0.00     0.000 HD 
HETATM    3  H2  UNK A   1      -7.925   6.968  69.394  1.00  0.00     0.000 HD 
HETATM    4  C   UNK A   1      -9.428   5.837  70.283  1.00  0.00    -0.161 C  
HETATM    5  O   UNK A   1     -10.385   4.078  71.705  1.00  0.00    -0.115 OA 
HETATM    6  C   UNK A   1      -9.556   4.959  71.540  1.00  0.00    -0.161 C  
HETATM    7  O   UNK A   1      -8.617   5.291  72.462  1.00  0.00    -0.120 OA 
ENDROOT
BRANCH   4   8
HETATM    8  C   UNK A   1      -9.864   5.102  69.013  1.00  0.00    -0.246 C  
BRANCH   8   9
HETATM    9  C   UNK A   1     -10.968   5.794  68.213  1.00  0.00    -0.152 C  
BRANCH   9  10
HETATM   10  C   UNK A   1     -10.356   6.717  67.186  1.00  0.00    -0.258 C  
HETATM   11  N   UNK A   1     -10.666   8.049  67.361  1.00  0.00    -0.489 N  
HETATM   12  O   UNK A   1      -9.674   6.302  66.253  1.00  0.00    -0.136 OA 
HETATM   13  H   UNK A   1     -11.284   8.336  68.119  1.00  0.00     0.000 HD 
BRANCH  11  14
HETATM   14  C   UNK A   1     -10.101   9.052  66.448  1.00  0.00    -0.281 C  
BRANCH  14  15
HETATM   15  C   UNK A   1      -8.649   9.346  66.875  1.00  0.00    -0.127 C  
ATOM     16  H   GLY A   2      -9.302   9.705  68.805  1.00  0.00     0.000 HD 
ATOM     17  N   GLY A   2      -8.478   9.651  68.208  1.00  0.00    -0.118 N  
HETATM   18  O   UNK A   1      -7.715   9.332  66.088  1.00  0.00    -0.095 OA 
BRANCH  17  19
ATOM     19  CA  GLY A   2      -7.174   9.899  68.797  1.00  0.00    -0.076 C  
ATOM     20  C   GLY A   2      -6.905  11.353  69.151  1.00  0.00    -0.111 C  
ATOM     21  O   GLY A   2      -7.593  12.269  68.406  1.00  0.00    -0.116 OA 
ATOM     22  OXT GLY A   2      -6.088  11.707  69.988  1.00  0.00    -0.134 OA 
ENDBRANCH  17  19
ENDBRANCH  14  15
BRANCH  14  23
HETATM   23  C   UNK A   1     -10.957  10.330  66.447  1.00  0.00     0.147 C  
BRANCH  23  24
HETATM   24  S   UNK A   1     -10.518  11.584  65.202  1.00  0.00    -0.298 SA 
BRANCH  24  25
HETATM   25  S   UNK A   1     -12.115  12.865  65.308  1.00  0.00    -0.475 SA 
BRANCH  25  26
HETATM   26  C   UNK A   1     -11.419  14.273  66.243  1.00  0.00    -0.357 C  
BRANCH  26  27
HETATM   27  C   UNK A   1     -11.289  14.056  67.762  1.00  0.00    -0.303 C  
BRANCH  27  28
HETATM   28  C   UNK A   1     -11.262  15.422  68.511  1.00  0.00    -0.318 C  
ATOM     29  H   GLY A   2      -9.539  16.025  67.495  1.00  0.00     0.000 HD 
ATOM     30  N   GLY A   2     -10.263  16.306  68.157  1.00  0.00    -0.250 N  
HETATM   31  O   UNK A   1     -12.150  15.766  69.290  1.00  0.00    -0.350 OA 
BRANCH  30  32
ATOM     32  CA  GLY A   2     -10.250  17.644  68.735  1.00  0.00    -0.373 C  
ATOM     33  OXT GLY A   2      -9.631  19.924  68.112  1.00  0.00    -0.356 OA 
ATOM     34  C   GLY A   2     -10.107  18.843  67.786  1.00  0.00    -0.369 C  
ATOM     35  O   GLY A   2     -10.742  18.699  66.607  1.00  0.00    -0.377 OA 
ENDBRANCH  30  32
ENDBRANCH  27  28
BRANCH  27  36
HETATM   36  N   UNK A   1     -12.133  12.971  68.308  1.00  0.00    -0.250 N  
HETATM   37  H   UNK A   1     -13.102  12.897  67.999  1.00  0.00     0.000 HD 
HETATM   38  O   UNK A   1     -10.472  11.983  69.540  1.00  0.00     0.131 OA 
HETATM   39  C   UNK A   1     -11.653  12.058  69.218  1.00  0.00    -0.321 C  
BRANCH  39  40
HETATM   40  C   UNK A   1     -12.649  11.024  69.723  1.00  0.00    -0.151 C  
BRANCH  40  41
HETATM   41  C   UNK A   1     -12.260  10.250  70.996  1.00  0.00    -0.487 C  
BRANCH  41  42
HETATM   42  C   UNK A   1     -11.569   8.890  70.820  1.00  0.00    -0.259 C  
HETATM   43  N   UNK A   1     -12.517   7.752  70.962  1.00  0.00    -0.499 NA 
HETATM   44  C   UNK A   1     -10.497   8.718  71.880  1.00  0.00    -0.353 C  
HETATM   45  O   UNK A   1      -9.373   9.187  71.906  1.00  0.00    -0.349 OA 
HETATM   46  O   UNK A   1     -11.000   7.984  72.898  1.00  0.00    -0.378 OA 
HETATM   47  H2  UNK A   1     -13.306   7.849  70.324  1.00  0.00     0.000 HD 
HETATM   48  H1  UNK A   1     -12.058   6.849  70.844  1.00  0.00     0.000 HD 
ENDBRANCH  41  42
ENDBRANCH  40  41
ENDBRANCH  39  40
ENDBRANCH  27  36
ENDBRANCH  26  27
ENDBRANCH  25  26
ENDBRANCH  24  25
ENDBRANCH  23  24
ENDBRANCH  14  23
ENDBRANCH  11  14
ENDBRANCH   9  10
ENDBRANCH   8   9
ENDBRANCH   4   8
TORSDOF 17
ENDMDL
MODEL      142
REMARK 921   NORMALIZED FREE ENERGY PREDICTED BY IDOCK:   -4.69 KCAL/MOL
REMARK 922        TOTAL FREE ENERGY PREDICTED BY IDOCK:  -12.31 KCAL/MOL
REMARK 923 INTER-LIGAND FREE ENERGY PREDICTED BY IDOCK:  -10.07 KCAL/MOL
REMARK 924 INTRA-LIGAND FREE ENERGY PREDICTED BY IDOCK:   -2.25 KCAL/MOL
REMARK 927      BINDING AFFINITY PREDICTED BY RF-SCORE:    0.00 PKD
ROOT
HETATM    1  N   UNK A   1      -9.270  19.907  65.707  1.00  0.00    -0.469 NA 
HETATM    2  H1  UNK A   1      -9.284  20.919  65.834  1.00  0.00     0.000 HD 
HETATM    3  H2  UNK A   1     -10.131  19.587  65.262  1.00  0.00     0.000 HD 
HETATM    4  C   UNK A   1      -9.016  19.153  66.964  1.00  0.00    -0.298 C  
HETATM    5  O   UNK A   1      -7.019  19.065  68.391  1.00  0.00    -0.244 OA 
HETATM    6  C   UNK A   1      -7.719  19.680  67.603  1.00  0.00    -0.275 C  
HETATM    7  O   UNK A   1      -7.445  20.939  67.176  1.00  0.00    -0.339 OA 
ENDROOT
BRANCH   4   8
HETATM    8  C   UNK A   1      -8.995  17.635  66.774  1.00  0.00    -0.272 C  
BRANCH   8   9
HETATM    9  C   UNK A   1      -9.999  16.862  67.631  1.00  0.00    -0.271 C  
BRANCH   9  10
HETATM   10  C   UNK A   1     -10.515  15.667  66.864  1.00  0.00    -0.307 C  
HETATM   11  N   UNK A   1     -10.576  14.502  67.599  1.00  0.00    -0.250 N  
HETATM   12  O   UNK A   1     -10.812  15.729  65.675  1.00  0.00    -0.334 OA 
HETATM   13  H   UNK A   1     -10.262  14.490  68.569  1.00  0.00     0.000 HD 
BRANCH  11  14
HETATM   14  C   UNK A   1     -11.095  13.277  66.975  1.00  0.00    -0.282 C  
BRANCH  14  15
HETATM   15  C   UNK A   1     -11.710  12.386  68.073  1.00  0.00    -0.356 C  
ATOM     16  H   GLY A   2     -11.116  13.758  69.503  1.00  0.00     0.000 HD 
ATOM     17  N   GLY A   2     -11.612  12.880  69.355  1.00  0.00    -0.300 N  
HETATM   18  O   UNK A   1     -12.230  11.307  67.831  1.00  0.00    -0.570 OA 
BRANCH  17  19
ATOM     19  CA  GLY A   2     -12.186  12.203  70.505  1.00  0.00    -0.304 C  
ATOM     20  C   GLY A   2     -12.809  13.127  71.538  1.00  0.00    -0.307 C  
ATOM     21  O   GLY A   2     -12.289  14.390  71.576  1.00  0.00    -0.336 OA 
ATOM     22  OXT GLY A   2     -13.667  12.774  72.334  1.00  0.00    -0.546 OA 
ENDBRANCH  17  19
ENDBRANCH  14  15
BRANCH  14  23
HETATM   23  C   UNK A   1      -9.980  12.541  66.212  1.00  0.00    -0.252 C  
BRANCH  23  24
HETATM   24  S   UNK A   1     -10.224  12.366  64.416  1.00  0.00    -0.294 SA 
BRANCH  24  25
HETATM   25  S   UNK A   1      -9.366  10.541  64.046  1.00  0.00    -0.290 SA 
BRANCH  25  26
HETATM   26  C   UNK A   1      -9.889   9.567  65.502  1.00  0.00    -0.234 C  
BRANCH  26  27
HETATM   27  C   UNK A   1      -8.840   8.577  66.043  1.00  0.00    -0.173 C  
BRANCH  27  28
HETATM   28  C   UNK A   1      -8.472   8.919  67.517  1.00  0.00    -0.116 C  
ATOM     29  H   GLY A   2     -10.389   9.655  67.899  1.00  0.00     0.000 HD 
ATOM     30  N   GLY A   2      -9.479   9.437  68.306  1.00  0.00    -0.137 N  
HETATM   31  O   UNK A   1      -7.382   8.632  68.009  1.00  0.00    -0.089 OA 
BRANCH  30  32
ATOM     32  CA  GLY A   2      -9.234   9.671  69.724  1.00  0.00    -0.219 C  
ATOM     33  OXT GLY A   2     -10.268   9.195  71.884  1.00  0.00    -0.332 OA 
ATOM     34  C   GLY A   2     -10.014   8.829  70.743  1.00  0.00    -0.213 C  
ATOM     35  O   GLY A   2     -10.225   7.553  70.368  1.00  0.00    -0.199 OA 
ENDBRANCH  30  32
ENDBRANCH  27  28
BRANCH  27  36
HETATM   36  N   UNK A   1      -9.084   7.161  65.690  1.00  0.00    -0.380 N  
HETATM   37  H   UNK A   1      -9.981   6.739  65.931  1.00  0.00     0.000 HD 
HETATM   38  O   UNK A   1      -7.095   6.849  64.596  1.00  0.00    -0.055 OA 
HETATM   39  C   UNK A   1      -8.141   6.394  65.046  1.00  0.00    -0.135 C  
BRANCH  39  40
HETATM   40  C   UNK A   1      -8.517   4.943  64.787  1.00  0.00    -0.145 C  
BRANCH  40  41
HETATM   41  C   UNK A   1      -9.829   4.442  65.421  1.00  0.00    -0.220 C  
BRANCH  41  42
HETATM   42  C   UNK A   1      -9.748   3.806  66.816  1.00  0.00    -0.120 C  
HETATM   43  N   UNK A   1      -9.565   4.820  67.889  1.00  0.00    -0.147 NA 
HETATM   44  C   UNK A   1      -8.562   2.862  66.882  1.00  0.00    -0.107 C  
HETATM   45  O   UNK A   1      -8.471   1.725  66.455  1.00  0.00    -0.086 OA 
HETATM   46  O   UNK A   1      -7.519   3.507  67.452  1.00  0.00    -0.065 OA 
HETATM   47  H2  UNK A   1     -10.294   5.532  67.851  1.00  0.00     0.000 HD 
HETATM   48  H1  UNK A   1      -9.512   4.398  68.816  1.00  0.00     0.000 HD 
ENDBRANCH  41  42
ENDBRANCH  40  41
ENDBRANCH  39  40
ENDBRANCH  27  36
ENDBRANCH  26  27
ENDBRANCH  25  26
ENDBRANCH  24  25
ENDBRANCH  23  24
ENDBRANCH  14  23
ENDBRANCH  11  14
ENDBRANCH   9  10
ENDBRANCH   8   9
ENDBRANCH   4   8
TORSDOF 17
ENDMDL
MODEL      143
REMARK 921   NORMALIZED FREE ENERGY PREDICTED BY IDOCK:   -4.66 KCAL/MOL
REMARK 922        TOTAL FREE ENERGY PREDICTED BY IDOCK:  -12.25 KCAL/MOL
REMARK 923 INTER-LIGAND FREE ENERGY PREDICTED BY IDOCK:   -9.98 KCAL/MOL
REMARK 924 INTRA-LIGAND FREE ENERGY PREDICTED BY IDOCK:   -2.27 KCAL/MOL
REMARK 927      BINDING AFFINITY PREDICTED BY RF-SCORE:    0.00 PKD
ROOT
HETATM    1  N   UNK A   1     -10.496  10.167  70.296  1.00  0.00    -0.394 NA 
HETATM    2  H1  UNK A   1      -9.971   9.346  70.595  1.00  0.00     0.000 HD 
HETATM    3  H2  UNK A   1      -9.885  10.981  70.229  1.00  0.00     0.000 HD 
HETATM    4  C   UNK A   1     -11.675  10.463  71.154  1.00  0.00    -0.296 C  
HETATM    5  O   UNK A   1     -13.746   9.190  71.506  1.00  0.00    -0.378 OA 
HETATM    6  C   UNK A   1     -12.556   9.204  71.234  1.00  0.00    -0.288 C  
HETATM    7  O   UNK A   1     -11.832   8.088  70.963  1.00  0.00    -0.290 OA 
ENDROOT
BRANCH   4   8
HETATM    8  C   UNK A   1     -12.463  11.696  70.705  1.00  0.00    -0.425 C  
BRANCH   8   9
HETATM    9  C   UNK A   1     -12.050  12.269  69.348  1.00  0.00    -0.234 C  
BRANCH   9  10
HETATM   10  C   UNK A   1     -11.289  13.559  69.547  1.00  0.00    -0.202 C  
HETATM   11  N   UNK A   1     -10.146  13.670  68.784  1.00  0.00    -0.388 N  
HETATM   12  O   UNK A   1     -11.644  14.413  70.355  1.00  0.00    -0.270 OA 
HETATM   13  H   UNK A   1      -9.864  12.906  68.170  1.00  0.00     0.000 HD 
BRANCH  11  14
HETATM   14  C   UNK A   1      -9.338  14.894  68.861  1.00  0.00    -0.197 C  
BRANCH  14  15
HETATM   15  C   UNK A   1      -9.914  15.929  67.872  1.00  0.00    -0.221 C  
ATOM     16  H   GLY A   2      -9.996  17.323  69.399  1.00  0.00     0.000 HD 
ATOM     17  N   GLY A   2     -10.162  17.175  68.404  1.00  0.00    -0.317 N  
HETATM   18  O   UNK A   1     -10.154  15.662  66.705  1.00  0.00    -0.257 OA 
BRANCH  17  19
ATOM     19  CA  GLY A   2     -10.649  18.287  67.607  1.00  0.00    -0.405 C  
ATOM     20  C   GLY A   2      -9.593  19.321  67.249  1.00  0.00    -0.320 C  
ATOM     21  O   GLY A   2      -8.546  19.408  68.123  1.00  0.00    -0.315 OA 
ATOM     22  OXT GLY A   2      -9.681  20.077  66.293  1.00  0.00    -0.409 OA 
ENDBRANCH  17  19
ENDBRANCH  14  15
BRANCH  14  23
HETATM   23  C   UNK A   1      -7.861  14.590  68.560  1.00  0.00    -0.136 C  
BRANCH  23  24
HETATM   24  S   UNK A   1      -7.304  12.896  68.926  1.00  0.00     0.049 SA 
BRANCH  24  25
HETATM   25  S   UNK A   1      -6.209  12.437  67.255  1.00  0.00    -0.090 SA 
BRANCH  25  26
HETATM   26  C   UNK A   1      -7.326  11.299  66.361  1.00  0.00    -0.058 C  
BRANCH  26  27
HETATM   27  C   UNK A   1      -8.326  10.530  67.243  1.00  0.00    -0.122 C  
BRANCH  27  28
HETATM   28  C   UNK A   1      -9.791  10.905  66.868  1.00  0.00    -0.189 C  
ATOM     29  H   GLY A   2      -9.179  12.697  65.985  1.00  0.00     0.000 HD 
ATOM     30  N   GLY A   2      -9.971  12.080  66.165  1.00  0.00    -0.225 N  
HETATM   31  O   UNK A   1     -10.739  10.147  67.065  1.00  0.00    -0.244 OA 
BRANCH  30  32
ATOM     32  CA  GLY A   2     -11.300  12.432  65.682  1.00  0.00    -0.347 C  
ATOM     33  OXT GLY A   2     -12.420  12.994  63.585  1.00  0.00    -0.666 OA 
ATOM     34  C   GLY A   2     -11.575  12.331  64.175  1.00  0.00    -0.388 C  
ATOM     35  O   GLY A   2     -10.964  11.298  63.565  1.00  0.00    -0.381 OA 
ENDBRANCH  30  32
ENDBRANCH  27  28
BRANCH  27  36
HETATM   36  N   UNK A   1      -7.998   9.102  67.454  1.00  0.00    -0.103 N  
HETATM   37  H   UNK A   1      -7.649   8.805  68.364  1.00  0.00     0.000 HD 
HETATM   38  O   UNK A   1      -8.689   8.399  65.385  1.00  0.00    -0.175 OA 
HETATM   39  C   UNK A   1      -8.149   8.162  66.461  1.00  0.00    -0.106 C  
BRANCH  39  40
HETATM   40  C   UNK A   1      -7.730   6.742  66.810  1.00  0.00    -0.106 C  
BRANCH  40  41
HETATM   41  C   UNK A   1      -8.358   6.125  68.074  1.00  0.00    -0.117 C  
BRANCH  41  42
HETATM   42  C   UNK A   1      -9.418   5.030  67.881  1.00  0.00    -0.134 C  
HETATM   43  N   UNK A   1      -8.832   3.759  67.379  1.00  0.00    -0.113 NA 
HETATM   44  C   UNK A   1     -10.446   5.486  66.862  1.00  0.00    -0.287 C  
HETATM   45  O   UNK A   1     -11.385   6.245  67.019  1.00  0.00    -0.263 OA 
HETATM   46  O   UNK A   1     -10.130   4.963  65.656  1.00  0.00    -0.177 OA 
HETATM   47  H2  UNK A   1      -8.077   3.437  67.983  1.00  0.00     0.000 HD 
HETATM   48  H1  UNK A   1      -9.536   3.032  67.250  1.00  0.00     0.000 HD 
ENDBRANCH  41  42
ENDBRANCH  40  41
ENDBRANCH  39  40
ENDBRANCH  27  36
ENDBRANCH  26  27
ENDBRANCH  25  26
ENDBRANCH  24  25
ENDBRANCH  23  24
ENDBRANCH  14  23
ENDBRANCH  11  14
ENDBRANCH   9  10
ENDBRANCH   8   9
ENDBRANCH   4   8
TORSDOF 17
ENDMDL
MODEL      144
REMARK 921   NORMALIZED FREE ENERGY PREDICTED BY IDOCK:   -4.65 KCAL/MOL
REMARK 922        TOTAL FREE ENERGY PREDICTED BY IDOCK:  -12.24 KCAL/MOL
REMARK 923 INTER-LIGAND FREE ENERGY PREDICTED BY IDOCK:  -10.80 KCAL/MOL
REMARK 924 INTRA-LIGAND FREE ENERGY PREDICTED BY IDOCK:   -1.44 KCAL/MOL
REMARK 927      BINDING AFFINITY PREDICTED BY RF-SCORE:    0.00 PKD
ROOT
HETATM    1  N   UNK A   1     -11.256  14.595  70.918  1.00  0.00    -0.517 NA 
HETATM    2  H1  UNK A   1     -11.401  15.600  70.832  1.00  0.00     0.000 HD 
HETATM    3  H2  UNK A   1     -10.614  14.260  70.199  1.00  0.00     0.000 HD 
HETATM    4  C   UNK A   1     -12.519  13.808  70.903  1.00  0.00    -0.377 C  
HETATM    5  O   UNK A   1     -14.371  13.742  72.516  1.00  0.00    -0.696 OA 
HETATM    6  C   UNK A   1     -13.456  14.358  71.993  1.00  0.00    -0.402 C  
HETATM    7  O   UNK A   1     -13.137  15.640  72.305  1.00  0.00    -0.401 OA 
ENDROOT
BRANCH   4   8
HETATM    8  C   UNK A   1     -12.301  12.299  71.032  1.00  0.00    -0.320 C  
BRANCH   8   9
HETATM    9  C   UNK A   1     -12.018  11.572  69.716  1.00  0.00    -0.415 C  
BRANCH   9  10
HETATM   10  C   UNK A   1     -11.431  10.209  70.000  1.00  0.00    -0.277 C  
HETATM   11  N   UNK A   1     -11.350   9.891  71.340  1.00  0.00    -0.340 N  
HETATM   12  O   UNK A   1     -11.024   9.471  69.108  1.00  0.00    -0.210 OA 
HETATM   13  H   UNK A   1     -11.649  10.564  72.045  1.00  0.00     0.000 HD 
BRANCH  11  14
HETATM   14  C   UNK A   1     -10.830   8.578  71.744  1.00  0.00    -0.304 C  
BRANCH  14  15
HETATM   15  C   UNK A   1      -9.298   8.679  71.893  1.00  0.00    -0.287 C  
ATOM     16  H   GLY A   2      -9.121   8.844  69.838  1.00  0.00     0.000 HD 
ATOM     17  N   GLY A   2      -8.602   8.842  70.716  1.00  0.00    -0.180 N  
HETATM   18  O   UNK A   1      -8.735   8.599  72.974  1.00  0.00    -0.380 OA 
BRANCH  17  19
ATOM     19  CA  GLY A   2      -7.160   9.012  70.672  1.00  0.00    -0.084 C  
ATOM     20  C   GLY A   2      -6.470   8.282  69.531  1.00  0.00    -0.037 C  
ATOM     21  O   GLY A   2      -7.123   7.171  69.074  1.00  0.00    -0.078 OA 
ATOM     22  OXT GLY A   2      -5.380   8.602  69.081  1.00  0.00    -0.034 OA 
ENDBRANCH  17  19
ENDBRANCH  14  15
BRANCH  14  23
HETATM   23  C   UNK A   1     -11.226   7.499  70.721  1.00  0.00    -0.270 C  
BRANCH  23  24
HETATM   24  S   UNK A   1     -10.843   5.781  71.186  1.00  0.00    -0.217 SA 
BRANCH  24  25
HETATM   25  S   UNK A   1      -9.980   5.058  69.473  1.00  0.00    -0.233 SA 
BRANCH  25  26
HETATM   26  C   UNK A   1     -10.761   6.090  68.182  1.00  0.00    -0.278 C  
BRANCH  26  27
HETATM   27  C   UNK A   1      -9.791   6.720  67.165  1.00  0.00    -0.161 C  
BRANCH  27  28
HETATM   28  C   UNK A   1      -9.075   5.614  66.333  1.00  0.00    -0.147 C  
ATOM     29  H   GLY A   2     -10.757   4.377  66.398  1.00  0.00     0.000 HD 
ATOM     30  N   GLY A   2      -9.816   4.492  66.021  1.00  0.00    -0.207 N  
HETATM   31  O   UNK A   1      -7.950   5.768  65.860  1.00  0.00    -0.102 OA 
BRANCH  30  32
ATOM     32  CA  GLY A   2      -9.244   3.474  65.149  1.00  0.00    -0.151 C  
ATOM     33  OXT GLY A   2      -9.954   1.926  63.397  1.00  0.00    -0.110 OA 
ATOM     34  C   GLY A   2     -10.057   3.027  63.926  1.00  0.00    -0.171 C  
ATOM     35  O   GLY A   2     -10.754   4.012  63.329  1.00  0.00    -0.193 OA 
ENDBRANCH  30  32
ENDBRANCH  27  28
BRANCH  27  36
HETATM   36  N   UNK A   1     -10.322   7.903  66.452  1.00  0.00    -0.452 N  
HETATM   37  H   UNK A   1     -11.266   7.865  66.067  1.00  0.00     0.000 HD 
HETATM   38  O   UNK A   1      -8.501   9.239  66.835  1.00  0.00    -0.125 OA 
HETATM   39  C   UNK A   1      -9.584   9.052  66.291  1.00  0.00    -0.260 C  
BRANCH  39  40
HETATM   40  C   UNK A   1     -10.245  10.170  65.499  1.00  0.00    -0.288 C  
BRANCH  40  41
HETATM   41  C   UNK A   1     -10.156  11.589  66.095  1.00  0.00    -0.266 C  
BRANCH  41  42
HETATM   42  C   UNK A   1     -11.472  12.345  66.333  1.00  0.00    -0.373 C  
HETATM   43  N   UNK A   1     -12.287  12.463  65.094  1.00  0.00    -0.570 NA 
HETATM   44  C   UNK A   1     -11.174  13.753  66.812  1.00  0.00    -0.316 C  
HETATM   45  O   UNK A   1     -10.860  14.125  67.928  1.00  0.00    -0.240 OA 
HETATM   46  O   UNK A   1     -11.236  14.598  65.758  1.00  0.00    -0.326 OA 
HETATM   47  H2  UNK A   1     -12.459  11.548  64.678  1.00  0.00     0.000 HD 
HETATM   48  H1  UNK A   1     -13.161  12.965  65.252  1.00  0.00     0.000 HD 
ENDBRANCH  41  42
ENDBRANCH  40  41
ENDBRANCH  39  40
ENDBRANCH  27  36
ENDBRANCH  26  27
ENDBRANCH  25  26
ENDBRANCH  24  25
ENDBRANCH  23  24
ENDBRANCH  14  23
ENDBRANCH  11  14
ENDBRANCH   9  10
ENDBRANCH   8   9
ENDBRANCH   4   8
TORSDOF 17
ENDMDL
MODEL      145
REMARK 921   NORMALIZED FREE ENERGY PREDICTED BY IDOCK:   -4.65 KCAL/MOL
REMARK 922        TOTAL FREE ENERGY PREDICTED BY IDOCK:  -12.24 KCAL/MOL
REMARK 923 INTER-LIGAND FREE ENERGY PREDICTED BY IDOCK:   -9.30 KCAL/MOL
REMARK 924 INTRA-LIGAND FREE ENERGY PREDICTED BY IDOCK:   -2.94 KCAL/MOL
REMARK 927      BINDING AFFINITY PREDICTED BY RF-SCORE:    0.00 PKD
ROOT
HETATM    1  N   UNK A   1     -13.231  10.315  70.588  1.00  0.00    -0.521 NA 
HETATM    2  H1  UNK A   1     -14.199   9.994  70.598  1.00  0.00     0.000 HD 
HETATM    3  H2  UNK A   1     -12.996  10.724  69.683  1.00  0.00     0.000 HD 
HETATM    4  C   UNK A   1     -12.250   9.259  70.959  1.00  0.00    -0.255 C  
HETATM    5  O   UNK A   1     -11.906   8.086  73.089  1.00  0.00    -0.233 OA 
HETATM    6  C   UNK A   1     -12.655   8.665  72.320  1.00  0.00    -0.395 C  
HETATM    7  O   UNK A   1     -13.975   8.866  72.563  1.00  0.00    -0.462 OA 
ENDROOT
BRANCH   4   8
HETATM    8  C   UNK A   1     -10.798   9.741  70.945  1.00  0.00    -0.399 C  
BRANCH   8   9
HETATM    9  C   UNK A   1     -10.231  10.044  69.556  1.00  0.00    -0.255 C  
BRANCH   9  10
HETATM   10  C   UNK A   1      -9.974   8.752  68.816  1.00  0.00    -0.185 C  
HETATM   11  N   UNK A   1      -8.999   7.957  69.380  1.00  0.00    -0.145 N  
HETATM   12  O   UNK A   1     -10.560   8.464  67.776  1.00  0.00    -0.229 OA 
HETATM   13  H   UNK A   1      -8.501   8.269  70.212  1.00  0.00     0.000 HD 
BRANCH  11  14
HETATM   14  C   UNK A   1      -8.682   6.658  68.772  1.00  0.00    -0.128 C  
BRANCH  14  15
HETATM   15  C   UNK A   1      -9.314   5.543  69.631  1.00  0.00    -0.134 C  
ATOM     16  H   GLY A   2      -9.459   6.865  71.217  1.00  0.00     0.000 HD 
ATOM     17  N   GLY A   2      -9.669   5.916  70.909  1.00  0.00    -0.170 N  
HETATM   18  O   UNK A   1      -9.473   4.405  69.219  1.00  0.00    -0.148 OA 
BRANCH  17  19
ATOM     19  CA  GLY A   2     -10.328   5.014  71.836  1.00  0.00    -0.204 C  
ATOM     20  C   GLY A   2     -10.031   5.283  73.303  1.00  0.00    -0.165 C  
ATOM     21  O   GLY A   2      -8.831   5.890  73.549  1.00  0.00    -0.126 OA 
ATOM     22  OXT GLY A   2     -10.761   4.934  74.219  1.00  0.00    -0.292 OA 
ENDBRANCH  17  19
ENDBRANCH  14  15
BRANCH  14  23
HETATM   23  C   UNK A   1      -7.160   6.474  68.645  1.00  0.00    -0.083 C  
BRANCH  23  24
HETATM   24  S   UNK A   1      -6.562   5.860  67.038  1.00  0.00    -0.058 SA 
BRANCH  24  25
HETATM   25  S   UNK A   1      -8.220   6.083  65.854  1.00  0.00    -0.135 SA 
BRANCH  25  26
HETATM   26  C   UNK A   1      -7.877   7.663  65.002  1.00  0.00    -0.126 C  
BRANCH  26  27
HETATM   27  C   UNK A   1      -8.257   8.932  65.788  1.00  0.00    -0.115 C  
BRANCH  27  28
HETATM   28  C   UNK A   1      -6.996   9.572  66.441  1.00  0.00    -0.088 C  
ATOM     29  H   GLY A   2      -8.056  10.059  68.174  1.00  0.00     0.000 HD 
ATOM     30  N   GLY A   2      -7.140  10.055  67.726  1.00  0.00    -0.085 N  
HETATM   31  O   UNK A   1      -5.889   9.543  65.908  1.00  0.00    -0.052 OA 
BRANCH  30  32
ATOM     32  CA  GLY A   2      -5.972  10.561  68.438  1.00  0.00    -0.043 C  
ATOM     33  OXT GLY A   2      -5.440  11.827  70.458  1.00  0.00    -0.121 OA 
ATOM     34  C   GLY A   2      -6.146  10.995  69.900  1.00  0.00    -0.115 C  
ATOM     35  O   GLY A   2      -7.005  10.238  70.608  1.00  0.00    -0.323 OA 
ENDBRANCH  30  32
ENDBRANCH  27  28
BRANCH  27  36
HETATM   36  N   UNK A   1      -9.222   9.820  65.102  1.00  0.00    -0.223 N  
HETATM   37  H   UNK A   1     -10.139   9.969  65.522  1.00  0.00     0.000 HD 
HETATM   38  O   UNK A   1      -7.805  10.441  63.413  1.00  0.00    -0.152 OA 
HETATM   39  C   UNK A   1      -8.922  10.450  63.917  1.00  0.00    -0.227 C  
BRANCH  39  40
HETATM   40  C   UNK A   1     -10.029  11.298  63.308  1.00  0.00    -0.428 C  
BRANCH  40  41
HETATM   41  C   UNK A   1     -11.184  11.706  64.241  1.00  0.00    -0.392 C  
BRANCH  41  42
HETATM   42  C   UNK A   1     -10.979  12.941  65.131  1.00  0.00    -0.289 C  
HETATM   43  N   UNK A   1     -10.093  12.660  66.292  1.00  0.00    -0.248 NA 
HETATM   44  C   UNK A   1     -12.315  13.401  65.685  1.00  0.00    -0.470 C  
HETATM   45  O   UNK A   1     -13.182  14.052  65.132  1.00  0.00    -0.768 OA 
HETATM   46  O   UNK A   1     -12.465  12.907  66.935  1.00  0.00    -0.308 OA 
HETATM   47  H2  UNK A   1      -9.200  12.273  65.988  1.00  0.00     0.000 HD 
HETATM   48  H1  UNK A   1      -9.957  13.480  66.883  1.00  0.00     0.000 HD 
ENDBRANCH  41  42
ENDBRANCH  40  41
ENDBRANCH  39  40
ENDBRANCH  27  36
ENDBRANCH  26  27
ENDBRANCH  25  26
ENDBRANCH  24  25
ENDBRANCH  23  24
ENDBRANCH  14  23
ENDBRANCH  11  14
ENDBRANCH   9  10
ENDBRANCH   8   9
ENDBRANCH   4   8
TORSDOF 17
ENDMDL
MODEL      146
REMARK 921   NORMALIZED FREE ENERGY PREDICTED BY IDOCK:   -4.63 KCAL/MOL
REMARK 922        TOTAL FREE ENERGY PREDICTED BY IDOCK:  -12.19 KCAL/MOL
REMARK 923 INTER-LIGAND FREE ENERGY PREDICTED BY IDOCK:   -9.91 KCAL/MOL
REMARK 924 INTRA-LIGAND FREE ENERGY PREDICTED BY IDOCK:   -2.29 KCAL/MOL
REMARK 927      BINDING AFFINITY PREDICTED BY RF-SCORE:    0.00 PKD
ROOT
HETATM    1  N   UNK A   1      -9.248  18.966  66.063  1.00  0.00    -0.464 NA 
HETATM    2  H1  UNK A   1      -8.974  19.329  65.151  1.00  0.00     0.000 HD 
HETATM    3  H2  UNK A   1     -10.119  19.396  66.376  1.00  0.00     0.000 HD 
HETATM    4  C   UNK A   1      -8.190  19.105  67.100  1.00  0.00    -0.270 C  
HETATM    5  O   UNK A   1      -5.981  18.045  67.272  1.00  0.00    -0.134 OA 
HETATM    6  C   UNK A   1      -6.897  18.455  66.578  1.00  0.00    -0.208 C  
HETATM    7  O   UNK A   1      -6.899  18.395  65.222  1.00  0.00    -0.520 OA 
ENDROOT
BRANCH   4   8
HETATM    8  C   UNK A   1      -8.602  18.560  68.470  1.00  0.00    -0.349 C  
BRANCH   8   9
HETATM    9  C   UNK A   1      -8.762  17.041  68.540  1.00  0.00    -0.253 C  
BRANCH   9  10
HETATM   10  C   UNK A   1     -10.212  16.668  68.337  1.00  0.00    -0.284 C  
HETATM   11  N   UNK A   1     -10.496  15.339  68.570  1.00  0.00    -0.230 N  
HETATM   12  O   UNK A   1     -11.051  17.479  67.956  1.00  0.00    -0.241 OA 
HETATM   13  H   UNK A   1      -9.752  14.693  68.829  1.00  0.00     0.000 HD 
BRANCH  11  14
HETATM   14  C   UNK A   1     -11.879  14.860  68.441  1.00  0.00    -0.278 C  
BRANCH  14  15
HETATM   15  C   UNK A   1     -12.395  14.459  69.838  1.00  0.00    -0.314 C  
ATOM     16  H   GLY A   2     -12.884  16.435  70.211  1.00  0.00     0.000 HD 
ATOM     17  N   GLY A   2     -12.912  15.490  70.592  1.00  0.00    -0.440 N  
HETATM   18  O   UNK A   1     -12.334  13.315  70.259  1.00  0.00    -0.315 OA 
BRANCH  17  19
ATOM     19  CA  GLY A   2     -13.495  15.287  71.907  1.00  0.00    -0.450 C  
ATOM     20  C   GLY A   2     -12.654  15.811  73.060  1.00  0.00    -0.483 C  
ATOM     21  O   GLY A   2     -11.309  15.865  72.821  1.00  0.00    -0.187 OA 
ATOM     22  OXT GLY A   2     -13.112  16.105  74.154  1.00  0.00    -0.626 OA 
ENDBRANCH  17  19
ENDBRANCH  14  15
BRANCH  14  23
HETATM   23  C   UNK A   1     -11.957  13.683  67.454  1.00  0.00    -0.376 C  
BRANCH  23  24
HETATM   24  S   UNK A   1     -10.479  12.623  67.357  1.00  0.00    -0.225 SA 
BRANCH  24  25
HETATM   25  S   UNK A   1     -11.234  10.792  67.884  1.00  0.00    -0.298 SA 
BRANCH  25  26
HETATM   26  C   UNK A   1      -9.845   9.672  67.487  1.00  0.00    -0.169 C  
BRANCH  26  27
HETATM   27  C   UNK A   1      -9.136   9.045  68.702  1.00  0.00    -0.137 C  
BRANCH  27  28
HETATM   28  C   UNK A   1      -9.234   7.491  68.653  1.00  0.00    -0.144 C  
ATOM     29  H   GLY A   2      -7.266   7.319  67.974  1.00  0.00     0.000 HD 
ATOM     30  N   GLY A   2      -8.094   6.808  68.280  1.00  0.00    -0.114 N  
HETATM   31  O   UNK A   1     -10.225   6.879  69.045  1.00  0.00    -0.168 OA 
BRANCH  30  32
ATOM     32  CA  GLY A   2      -8.082   5.351  68.325  1.00  0.00    -0.095 C  
ATOM     33  OXT GLY A   2      -8.937   3.452  67.048  1.00  0.00    -0.131 OA 
ATOM     34  C   GLY A   2      -8.465   4.582  67.052  1.00  0.00    -0.104 C  
ATOM     35  O   GLY A   2      -8.045   5.155  65.908  1.00  0.00    -0.106 OA 
ENDBRANCH  30  32
ENDBRANCH  27  28
BRANCH  27  36
HETATM   36  N   UNK A   1      -7.833   9.657  69.044  1.00  0.00    -0.076 N  
HETATM   37  H   UNK A   1      -7.231   9.989  68.291  1.00  0.00     0.000 HD 
HETATM   38  O   UNK A   1      -8.116   9.551  71.315  1.00  0.00    -0.284 OA 
HETATM   39  C   UNK A   1      -7.406   9.793  70.344  1.00  0.00    -0.141 C  
BRANCH  39  40
HETATM   40  C   UNK A   1      -6.026  10.402  70.540  1.00  0.00    -0.113 C  
BRANCH  40  41
HETATM   41  C   UNK A   1      -5.523  11.350  69.434  1.00  0.00    -0.049 C  
BRANCH  41  42
HETATM   42  C   UNK A   1      -5.476  12.852  69.751  1.00  0.00    -0.095 C  
HETATM   43  N   UNK A   1      -6.078  13.170  71.073  1.00  0.00    -0.541 NA 
HETATM   44  C   UNK A   1      -6.258  13.621  68.703  1.00  0.00    -0.088 C  
HETATM   45  O   UNK A   1      -5.913  13.937  67.578  1.00  0.00    -0.326 OA 
HETATM   46  O   UNK A   1      -7.499  13.874  69.179  1.00  0.00    -0.081 OA 
HETATM   47  H2  UNK A   1      -5.644  12.623  71.816  1.00  0.00     0.000 HD 
HETATM   48  H1  UNK A   1      -6.047  14.167  71.284  1.00  0.00     0.000 HD 
ENDBRANCH  41  42
ENDBRANCH  40  41
ENDBRANCH  39  40
ENDBRANCH  27  36
ENDBRANCH  26  27
ENDBRANCH  25  26
ENDBRANCH  24  25
ENDBRANCH  23  24
ENDBRANCH  14  23
ENDBRANCH  11  14
ENDBRANCH   9  10
ENDBRANCH   8   9
ENDBRANCH   4   8
TORSDOF 17
ENDMDL
MODEL      147
REMARK 921   NORMALIZED FREE ENERGY PREDICTED BY IDOCK:   -4.63 KCAL/MOL
REMARK 922        TOTAL FREE ENERGY PREDICTED BY IDOCK:  -12.19 KCAL/MOL
REMARK 923 INTER-LIGAND FREE ENERGY PREDICTED BY IDOCK:   -9.60 KCAL/MOL
REMARK 924 INTRA-LIGAND FREE ENERGY PREDICTED BY IDOCK:   -2.59 KCAL/MOL
REMARK 927      BINDING AFFINITY PREDICTED BY RF-SCORE:    0.00 PKD
ROOT
HETATM    1  N   UNK A   1      -7.854  14.809  69.473  1.00  0.00    -0.378 NA 
HETATM    2  H1  UNK A   1      -8.079  15.803  69.429  1.00  0.00     0.000 HD 
HETATM    3  H2  UNK A   1      -6.979  14.659  69.977  1.00  0.00     0.000 HD 
HETATM    4  C   UNK A   1      -7.814  14.148  68.141  1.00  0.00    -0.142 C  
HETATM    5  O   UNK A   1      -9.608  13.733  66.516  1.00  0.00    -0.274 OA 
HETATM    6  C   UNK A   1      -9.145  14.414  67.417  1.00  0.00    -0.198 C  
HETATM    7  O   UNK A   1      -9.754  15.522  67.913  1.00  0.00    -0.210 OA 
ENDROOT
BRANCH   4   8
HETATM    8  C   UNK A   1      -7.476  12.657  68.208  1.00  0.00    -0.123 C  
BRANCH   8   9
HETATM    9  C   UNK A   1      -6.393  12.195  67.231  1.00  0.00    -0.152 C  
BRANCH   9  10
HETATM   10  C   UNK A   1      -6.928  11.080  66.363  1.00  0.00    -0.122 C  
HETATM   11  N   UNK A   1      -8.295  10.910  66.433  1.00  0.00    -0.157 N  
HETATM   12  O   UNK A   1      -6.195  10.364  65.688  1.00  0.00    -0.106 OA 
HETATM   13  H   UNK A   1      -8.853  11.494  67.054  1.00  0.00     0.000 HD 
BRANCH  11  14
HETATM   14  C   UNK A   1      -8.941   9.880  65.608  1.00  0.00    -0.171 C  
BRANCH  14  15
HETATM   15  C   UNK A   1      -9.438  10.534  64.303  1.00  0.00    -0.285 C  
ATOM     16  H   GLY A   2     -11.149  11.161  65.284  1.00  0.00     0.000 HD 
ATOM     17  N   GLY A   2     -10.648  11.185  64.396  1.00  0.00    -0.348 N  
HETATM   18  O   UNK A   1      -8.818  10.464  63.253  1.00  0.00    -0.177 OA 
BRANCH  17  19
ATOM     19  CA  GLY A   2     -11.241  11.905  63.282  1.00  0.00    -0.294 C  
ATOM     20  C   GLY A   2     -12.333  12.888  63.673  1.00  0.00    -0.434 C  
ATOM     21  O   GLY A   2     -12.997  12.589  64.830  1.00  0.00    -0.827 OA 
ATOM     22  OXT GLY A   2     -12.661  13.846  62.989  1.00  0.00    -0.694 OA 
ENDBRANCH  17  19
ENDBRANCH  14  15
BRANCH  14  23
HETATM   23  C   UNK A   1     -10.093   9.211  66.377  1.00  0.00    -0.274 C  
BRANCH  23  24
HETATM   24  S   UNK A   1     -10.763  10.150  67.786  1.00  0.00    -0.290 SA 
BRANCH  24  25
HETATM   25  S   UNK A   1     -10.059   9.077  69.385  1.00  0.00    -0.205 SA 
BRANCH  25  26
HETATM   26  C   UNK A   1      -9.006   7.822  68.575  1.00  0.00    -0.133 C  
BRANCH  26  27
HETATM   27  C   UNK A   1      -9.506   6.370  68.687  1.00  0.00    -0.122 C  
BRANCH  27  28
HETATM   28  C   UNK A   1      -9.019   5.526  67.472  1.00  0.00    -0.107 C  
ATOM     29  H   GLY A   2      -8.096   7.185  66.601  1.00  0.00     0.000 HD 
ATOM     30  N   GLY A   2      -8.253   6.180  66.528  1.00  0.00    -0.109 N  
HETATM   31  O   UNK A   1      -9.189   4.310  67.401  1.00  0.00    -0.129 OA 
BRANCH  30  32
ATOM     32  CA  GLY A   2      -7.669   5.423  65.427  1.00  0.00    -0.092 C  
ATOM     33  OXT GLY A   2      -7.987   5.103  63.027  1.00  0.00    -0.077 OA 
ATOM     34  C   GLY A   2      -8.000   5.857  63.993  1.00  0.00    -0.121 C  
ATOM     35  O   GLY A   2      -8.105   7.188  63.823  1.00  0.00    -0.099 OA 
ENDBRANCH  30  32
ENDBRANCH  27  28
BRANCH  27  36
HETATM   36  N   UNK A   1      -9.400   5.781  70.040  1.00  0.00    -0.145 N  
HETATM   37  H   UNK A   1      -8.499   5.415  70.350  1.00  0.00     0.000 HD 
HETATM   38  O   UNK A   1     -11.555   6.243  70.664  1.00  0.00    -0.353 OA 
HETATM   39  C   UNK A   1     -10.475   5.709  70.894  1.00  0.00    -0.256 C  
BRANCH  39  40
HETATM   40  C   UNK A   1     -10.225   5.038  72.236  1.00  0.00    -0.257 C  
BRANCH  40  41
HETATM   41  C   UNK A   1      -9.197   5.709  73.167  1.00  0.00    -0.132 C  
BRANCH  41  42
HETATM   42  C   UNK A   1      -9.642   6.962  73.934  1.00  0.00    -0.248 C  
HETATM   43  N   UNK A   1     -11.064   7.309  73.674  1.00  0.00    -0.554 NA 
HETATM   44  C   UNK A   1      -8.802   8.151  73.505  1.00  0.00    -0.241 C  
HETATM   45  O   UNK A   1      -7.673   8.447  73.850  1.00  0.00    -0.279 OA 
HETATM   46  O   UNK A   1      -9.483   8.855  72.573  1.00  0.00    -0.287 OA 
HETATM   47  H2  UNK A   1     -11.678   6.519  73.871  1.00  0.00     0.000 HD 
HETATM   48  H1  UNK A   1     -11.360   8.141  74.183  1.00  0.00     0.000 HD 
ENDBRANCH  41  42
ENDBRANCH  40  41
ENDBRANCH  39  40
ENDBRANCH  27  36
ENDBRANCH  26  27
ENDBRANCH  25  26
ENDBRANCH  24  25
ENDBRANCH  23  24
ENDBRANCH  14  23
ENDBRANCH  11  14
ENDBRANCH   9  10
ENDBRANCH   8   9
ENDBRANCH   4   8
TORSDOF 17
ENDMDL
MODEL      148
REMARK 921   NORMALIZED FREE ENERGY PREDICTED BY IDOCK:   -4.62 KCAL/MOL
REMARK 922        TOTAL FREE ENERGY PREDICTED BY IDOCK:  -12.18 KCAL/MOL
REMARK 923 INTER-LIGAND FREE ENERGY PREDICTED BY IDOCK:   -9.40 KCAL/MOL
REMARK 924 INTRA-LIGAND FREE ENERGY PREDICTED BY IDOCK:   -2.78 KCAL/MOL
REMARK 927      BINDING AFFINITY PREDICTED BY RF-SCORE:    0.00 PKD
ROOT
HETATM    1  N   UNK A   1     -12.137   8.082  70.525  1.00  0.00    -0.480 NA 
HETATM    2  H1  UNK A   1     -12.593   7.417  71.149  1.00  0.00     0.000 HD 
HETATM    3  H2  UNK A   1     -12.401   7.906  69.555  1.00  0.00     0.000 HD 
HETATM    4  C   UNK A   1     -10.657   8.115  70.670  1.00  0.00    -0.215 C  
HETATM    5  O   UNK A   1      -9.259   8.832  72.559  1.00  0.00    -0.347 OA 
HETATM    6  C   UNK A   1     -10.311   8.369  72.148  1.00  0.00    -0.327 C  
HETATM    7  O   UNK A   1     -11.339   8.004  72.956  1.00  0.00    -0.386 OA 
ENDROOT
BRANCH   4   8
HETATM    8  C   UNK A   1      -9.973   9.114  69.734  1.00  0.00    -0.204 C  
BRANCH   8   9
HETATM    9  C   UNK A   1     -10.481   9.099  68.291  1.00  0.00    -0.254 C  
BRANCH   9  10
HETATM   10  C   UNK A   1      -9.845   7.956  67.535  1.00  0.00    -0.170 C  
HETATM   11  N   UNK A   1      -8.497   7.793  67.777  1.00  0.00    -0.121 N  
HETATM   12  O   UNK A   1     -10.475   7.262  66.743  1.00  0.00    -0.286 OA 
HETATM   13  H   UNK A   1      -8.007   8.433  68.402  1.00  0.00     0.000 HD 
BRANCH  11  14
HETATM   14  C   UNK A   1      -7.772   6.693  67.129  1.00  0.00    -0.100 C  
BRANCH  14  15
HETATM   15  C   UNK A   1      -7.576   5.558  68.155  1.00  0.00    -0.081 C  
ATOM     16  H   GLY A   2      -8.930   6.483  69.418  1.00  0.00     0.000 HD 
ATOM     17  N   GLY A   2      -8.334   5.664  69.301  1.00  0.00    -0.106 N  
HETATM   18  O   UNK A   1      -6.790   4.640  67.980  1.00  0.00    -0.053 OA 
BRANCH  17  19
ATOM     19  CA  GLY A   2      -8.321   4.658  70.348  1.00  0.00    -0.075 C  
ATOM     20  C   GLY A   2      -7.824   5.153  71.696  1.00  0.00    -0.109 C  
ATOM     21  O   GLY A   2      -6.962   6.213  71.644  1.00  0.00    -0.072 OA 
ATOM     22  OXT GLY A   2      -8.105   4.621  72.760  1.00  0.00    -0.097 OA 
ENDBRANCH  17  19
ENDBRANCH  14  15
BRANCH  14  23
HETATM   23  C   UNK A   1      -6.426   7.184  66.570  1.00  0.00    -0.051 C  
BRANCH  23  24
HETATM   24  S   UNK A   1      -6.199   7.016  64.771  1.00  0.00    -0.037 SA 
BRANCH  24  25
HETATM   25  S   UNK A   1      -8.130   7.108  64.089  1.00  0.00     0.042 SA 
BRANCH  25  26
HETATM   26  C   UNK A   1      -8.310   8.880  63.678  1.00  0.00    -0.162 C  
BRANCH  26  27
HETATM   27  C   UNK A   1      -8.803   9.777  64.829  1.00  0.00    -0.207 C  
BRANCH  27  28
HETATM   28  C   UNK A   1      -7.612  10.550  65.471  1.00  0.00    -0.120 C  
ATOM     29  H   GLY A   2      -8.748  11.042  67.154  1.00  0.00     0.000 HD 
ATOM     30  N   GLY A   2      -7.824  11.087  66.725  1.00  0.00    -0.142 N  
HETATM   31  O   UNK A   1      -6.493  10.581  64.962  1.00  0.00    -0.110 OA 
BRANCH  30  32
ATOM     32  CA  GLY A   2      -6.717  11.721  67.431  1.00  0.00    -0.120 C  
ATOM     33  OXT GLY A   2      -5.625  13.900  67.584  1.00  0.00    -0.298 OA 
ATOM     34  C   GLY A   2      -6.658  13.255  67.460  1.00  0.00    -0.143 C  
ATOM     35  O   GLY A   2      -7.859  13.857  67.553  1.00  0.00    -0.161 OA 
ENDBRANCH  30  32
ENDBRANCH  27  28
BRANCH  27  36
HETATM   36  N   UNK A   1     -10.052  10.519  64.546  1.00  0.00    -0.346 N  
HETATM   37  H   UNK A   1     -10.862  10.367  65.147  1.00  0.00     0.000 HD 
HETATM   38  O   UNK A   1      -9.201  11.754  62.814  1.00  0.00    -0.331 OA 
HETATM   39  C   UNK A   1     -10.156  11.405  63.500  1.00  0.00    -0.395 C  
BRANCH  39  40
HETATM   40  C   UNK A   1     -11.515  12.061  63.307  1.00  0.00    -0.398 C  
BRANCH  40  41
HETATM   41  C   UNK A   1     -12.322  12.374  64.581  1.00  0.00    -0.518 C  
BRANCH  41  42
HETATM   42  C   UNK A   1     -12.484  13.849  64.978  1.00  0.00    -0.419 C  
HETATM   43  N   UNK A   1     -12.230  14.771  63.839  1.00  0.00    -1.018 NA 
HETATM   44  C   UNK A   1     -11.489  14.198  66.070  1.00  0.00    -0.342 C  
HETATM   45  O   UNK A   1     -11.557  13.961  67.262  1.00  0.00    -0.325 OA 
HETATM   46  O   UNK A   1     -10.409  14.786  65.508  1.00  0.00    -0.315 OA 
HETATM   47  H2  UNK A   1     -12.818  14.539  63.039  1.00  0.00     0.000 HD 
HETATM   48  H1  UNK A   1     -12.338  15.751  64.102  1.00  0.00     0.000 HD 
ENDBRANCH  41  42
ENDBRANCH  40  41
ENDBRANCH  39  40
ENDBRANCH  27  36
ENDBRANCH  26  27
ENDBRANCH  25  26
ENDBRANCH  24  25
ENDBRANCH  23  24
ENDBRANCH  14  23
ENDBRANCH  11  14
ENDBRANCH   9  10
ENDBRANCH   8   9
ENDBRANCH   4   8
TORSDOF 17
ENDMDL
MODEL      149
REMARK 921   NORMALIZED FREE ENERGY PREDICTED BY IDOCK:   -4.60 KCAL/MOL
REMARK 922        TOTAL FREE ENERGY PREDICTED BY IDOCK:  -12.13 KCAL/MOL
REMARK 923 INTER-LIGAND FREE ENERGY PREDICTED BY IDOCK:   -9.60 KCAL/MOL
REMARK 924 INTRA-LIGAND FREE ENERGY PREDICTED BY IDOCK:   -2.53 KCAL/MOL
REMARK 927      BINDING AFFINITY PREDICTED BY RF-SCORE:    0.00 PKD
ROOT
HETATM    1  N   UNK A   1     -13.192   6.241  72.316  1.00  0.00    -0.366 NA 
HETATM    2  H1  UNK A   1     -13.380   5.245  72.203  1.00  0.00     0.000 HD 
HETATM    3  H2  UNK A   1     -13.762   6.791  71.673  1.00  0.00     0.000 HD 
HETATM    4  C   UNK A   1     -11.754   6.595  72.179  1.00  0.00    -0.304 C  
HETATM    5  O   UNK A   1      -9.829   6.008  73.589  1.00  0.00    -0.159 OA 
HETATM    6  C   UNK A   1     -10.937   5.732  73.157  1.00  0.00    -0.271 C  
HETATM    7  O   UNK A   1     -11.612   4.601  73.486  1.00  0.00    -0.285 OA 
ENDROOT
BRANCH   4   8
HETATM    8  C   UNK A   1     -11.473   8.089  72.349  1.00  0.00    -0.449 C  
BRANCH   8   9
HETATM    9  C   UNK A   1     -12.712   8.959  72.568  1.00  0.00    -0.382 C  
BRANCH   9  10
HETATM   10  C   UNK A   1     -13.091   9.645  71.276  1.00  0.00    -0.357 C  
HETATM   11  N   UNK A   1     -12.137  10.516  70.793  1.00  0.00    -0.337 N  
HETATM   12  O   UNK A   1     -14.177   9.467  70.733  1.00  0.00     0.071 OA 
HETATM   13  H   UNK A   1     -11.274  10.672  71.313  1.00  0.00     0.000 HD 
BRANCH  11  14
HETATM   14  C   UNK A   1     -12.372  11.217  69.524  1.00  0.00    -0.175 C  
BRANCH  14  15
HETATM   15  C   UNK A   1     -11.600  10.489  68.405  1.00  0.00    -0.128 C  
ATOM     16  H   GLY A   2     -10.666   9.316  69.832  1.00  0.00     0.000 HD 
ATOM     17  N   GLY A   2     -10.758   9.484  68.830  1.00  0.00    -0.217 N  
HETATM   18  O   UNK A   1     -11.707  10.790  67.227  1.00  0.00    -0.396 OA 
BRANCH  17  19
ATOM     19  CA  GLY A   2      -9.997   8.655  67.913  1.00  0.00    -0.188 C  
ATOM     20  C   GLY A   2     -10.561   7.259  67.704  1.00  0.00    -0.246 C  
ATOM     21  O   GLY A   2     -11.297   6.768  68.745  1.00  0.00    -0.151 OA 
ATOM     22  OXT GLY A   2     -10.333   6.576  66.716  1.00  0.00    -0.212 OA 
ENDBRANCH  17  19
ENDBRANCH  14  15
BRANCH  14  23
HETATM   23  C   UNK A   1     -11.948  12.692  69.631  1.00  0.00    -0.286 C  
BRANCH  23  24
HETATM   24  S   UNK A   1     -12.604  13.609  71.061  1.00  0.00    -0.340 SA 
BRANCH  24  25
HETATM   25  S   UNK A   1     -12.230  15.553  70.528  1.00  0.00    -0.411 SA 
BRANCH  25  26
HETATM   26  C   UNK A   1     -10.421  15.541  70.268  1.00  0.00    -0.263 C  
BRANCH  26  27
HETATM   27  C   UNK A   1      -9.967  15.513  68.797  1.00  0.00    -0.214 C  
BRANCH  27  28
HETATM   28  C   UNK A   1      -9.776  16.960  68.253  1.00  0.00    -0.256 C  
ATOM     29  H   GLY A   2      -9.197  16.254  66.375  1.00  0.00     0.000 HD 
ATOM     30  N   GLY A   2      -9.409  17.084  66.928  1.00  0.00    -0.243 N  
HETATM   31  O   UNK A   1     -10.056  17.957  68.916  1.00  0.00    -0.368 OA 
BRANCH  30  32
ATOM     32  CA  GLY A   2      -9.327  18.409  66.326  1.00  0.00    -0.224 C  
ATOM     33  OXT GLY A   2      -7.809  20.321  66.261  1.00  0.00    -0.262 OA 
ATOM     34  C   GLY A   2      -7.959  19.106  66.291  1.00  0.00    -0.300 C  
ATOM     35  O   GLY A   2      -6.917  18.280  66.080  1.00  0.00    -0.240 OA 
ENDBRANCH  30  32
ENDBRANCH  27  28
BRANCH  27  36
HETATM   36  N   UNK A   1      -8.931  14.503  68.486  1.00  0.00    -0.185 N  
HETATM   37  H   UNK A   1      -8.094  14.459  69.068  1.00  0.00     0.000 HD 
HETATM   38  O   UNK A   1     -10.084  13.506  66.776  1.00  0.00    -0.257 OA 
HETATM   39  C   UNK A   1      -9.059  13.620  67.439  1.00  0.00    -0.222 C  
BRANCH  39  40
HETATM   40  C   UNK A   1      -7.895  12.668  67.216  1.00  0.00    -0.155 C  
BRANCH  40  41
HETATM   41  C   UNK A   1      -8.245  11.239  66.757  1.00  0.00    -0.158 C  
BRANCH  41  42
HETATM   42  C   UNK A   1      -8.531  11.020  65.265  1.00  0.00     0.004 C  
HETATM   43  N   UNK A   1      -9.984  10.872  64.984  1.00  0.00    -0.275 NA 
HETATM   44  C   UNK A   1      -7.849   9.748  64.794  1.00  0.00    -0.134 C  
HETATM   45  O   UNK A   1      -6.679   9.576  64.505  1.00  0.00    -0.087 OA 
HETATM   46  O   UNK A   1      -8.750   8.740  64.799  1.00  0.00    -0.173 OA 
HETATM   47  H2  UNK A   1     -10.511  11.665  65.347  1.00  0.00     0.000 HD 
HETATM   48  H1  UNK A   1     -10.174  10.726  63.992  1.00  0.00     0.000 HD 
ENDBRANCH  41  42
ENDBRANCH  40  41
ENDBRANCH  39  40
ENDBRANCH  27  36
ENDBRANCH  26  27
ENDBRANCH  25  26
ENDBRANCH  24  25
ENDBRANCH  23  24
ENDBRANCH  14  23
ENDBRANCH  11  14
ENDBRANCH   9  10
ENDBRANCH   8   9
ENDBRANCH   4   8
TORSDOF 17
ENDMDL
MODEL      150
REMARK 921   NORMALIZED FREE ENERGY PREDICTED BY IDOCK:   -4.59 KCAL/MOL
REMARK 922        TOTAL FREE ENERGY PREDICTED BY IDOCK:  -12.12 KCAL/MOL
REMARK 923 INTER-LIGAND FREE ENERGY PREDICTED BY IDOCK:   -9.02 KCAL/MOL
REMARK 924 INTRA-LIGAND FREE ENERGY PREDICTED BY IDOCK:   -3.10 KCAL/MOL
REMARK 927      BINDING AFFINITY PREDICTED BY RF-SCORE:    0.00 PKD
ROOT
HETATM    1  N   UNK A   1      -7.316  14.686  69.941  1.00  0.00    -0.393 NA 
HETATM    2  H1  UNK A   1      -7.362  15.705  69.939  1.00  0.00     0.000 HD 
HETATM    3  H2  UNK A   1      -6.476  14.364  70.422  1.00  0.00     0.000 HD 
HETATM    4  C   UNK A   1      -7.411  14.083  68.585  1.00  0.00    -0.120 C  
HETATM    5  O   UNK A   1      -9.270  14.057  66.980  1.00  0.00    -0.233 OA 
HETATM    6  C   UNK A   1      -8.683  14.608  67.898  1.00  0.00    -0.169 C  
HETATM    7  O   UNK A   1      -9.079  15.785  68.446  1.00  0.00    -0.180 OA 
ENDROOT
BRANCH   4   8
HETATM    8  C   UNK A   1      -7.341  12.554  68.589  1.00  0.00    -0.099 C  
BRANCH   8   9
HETATM    9  C   UNK A   1      -6.564  11.939  67.425  1.00  0.00    -0.124 C  
BRANCH   9  10
HETATM   10  C   UNK A   1      -7.399  10.870  66.759  1.00  0.00    -0.134 C  
HETATM   11  N   UNK A   1      -8.738  11.180  66.649  1.00  0.00    -0.160 N  
HETATM   12  O   UNK A   1      -6.924   9.800  66.389  1.00  0.00    -0.089 OA 
HETATM   13  H   UNK A   1      -9.094  12.059  67.024  1.00  0.00     0.000 HD 
BRANCH  11  14
HETATM   14  C   UNK A   1      -9.649  10.237  65.987  1.00  0.00    -0.206 C  
BRANCH  14  15
HETATM   15  C   UNK A   1     -10.263  10.926  64.752  1.00  0.00    -0.333 C  
ATOM     16  H   GLY A   2     -11.199  12.291  65.994  1.00  0.00     0.000 HD 
ATOM     17  N   GLY A   2     -11.043  12.029  65.021  1.00  0.00    -0.310 N  
HETATM   18  O   UNK A   1     -10.091  10.516  63.614  1.00  0.00    -0.301 OA 
BRANCH  17  19
ATOM     19  CA  GLY A   2     -11.653  12.835  63.978  1.00  0.00    -0.424 C  
ATOM     20  C   GLY A   2     -12.339  14.098  64.472  1.00  0.00    -0.392 C  
ATOM     21  O   GLY A   2     -12.793  14.046  65.760  1.00  0.00    -0.516 OA 
ATOM     22  OXT GLY A   2     -12.544  15.078  63.771  1.00  0.00    -0.776 OA 
ENDBRANCH  17  19
ENDBRANCH  14  15
BRANCH  14  23
HETATM   23  C   UNK A   1     -10.738   9.758  66.963  1.00  0.00    -0.166 C  
BRANCH  23  24
HETATM   24  S   UNK A   1     -11.171  10.910  68.304  1.00  0.00    -0.305 SA 
BRANCH  24  25
HETATM   25  S   UNK A   1     -10.504   9.904  69.961  1.00  0.00    -0.298 SA 
BRANCH  25  26
HETATM   26  C   UNK A   1      -9.587   8.506  69.221  1.00  0.00    -0.170 C  
BRANCH  26  27
HETATM   27  C   UNK A   1     -10.203   7.115  69.458  1.00  0.00    -0.195 C  
BRANCH  27  28
HETATM   28  C   UNK A   1      -9.756   6.120  68.345  1.00  0.00    -0.122 C  
ATOM     29  H   GLY A   2      -8.296   7.444  67.652  1.00  0.00     0.000 HD 
ATOM     30  N   GLY A   2      -8.696   6.511  67.552  1.00  0.00    -0.115 N  
HETATM   31  O   UNK A   1     -10.224   4.988  68.244  1.00  0.00    -0.145 OA 
BRANCH  30  32
ATOM     32  CA  GLY A   2      -8.152   5.581  66.570  1.00  0.00    -0.105 C  
ATOM     33  OXT GLY A   2      -8.390   5.043  64.199  1.00  0.00    -0.123 OA 
ATOM     34  C   GLY A   2      -8.361   5.893  65.082  1.00  0.00    -0.143 C  
ATOM     35  O   GLY A   2      -8.300   7.202  64.773  1.00  0.00    -0.091 OA 
ENDBRANCH  30  32
ENDBRANCH  27  28
BRANCH  27  36
HETATM   36  N   UNK A   1     -10.177   6.656  70.864  1.00  0.00    -0.195 N  
HETATM   37  H   UNK A   1      -9.282   6.410  71.286  1.00  0.00     0.000 HD 
HETATM   38  O   UNK A   1     -12.416   6.952  71.246  1.00  0.00    -0.367 OA 
HETATM   39  C   UNK A   1     -11.320   6.550  71.621  1.00  0.00    -0.285 C  
BRANCH  39  40
HETATM   40  C   UNK A   1     -11.143   6.023  73.037  1.00  0.00    -0.271 C  
BRANCH  40  41
HETATM   41  C   UNK A   1     -11.159   4.493  73.215  1.00  0.00    -0.389 C  
BRANCH  41  42
HETATM   42  C   UNK A   1      -9.810   3.759  73.186  1.00  0.00    -0.127 C  
HETATM   43  N   UNK A   1      -8.666   4.668  73.461  1.00  0.00    -0.104 NA 
HETATM   44  C   UNK A   1      -9.585   3.155  71.812  1.00  0.00    -0.157 C  
HETATM   45  O   UNK A   1     -10.053   2.131  71.347  1.00  0.00    -0.104 OA 
HETATM   46  O   UNK A   1      -8.799   3.986  71.090  1.00  0.00    -0.086 OA 
HETATM   47  H2  UNK A   1      -8.795   5.166  74.341  1.00  0.00     0.000 HD 
HETATM   48  H1  UNK A   1      -7.770   4.181  73.441  1.00  0.00     0.000 HD 
ENDBRANCH  41  42
ENDBRANCH  40  41
ENDBRANCH  39  40
ENDBRANCH  27  36
ENDBRANCH  26  27
ENDBRANCH  25  26
ENDBRANCH  24  25
ENDBRANCH  23  24
ENDBRANCH  14  23
ENDBRANCH  11  14
ENDBRANCH   9  10
ENDBRANCH   8   9
ENDBRANCH   4   8
TORSDOF 17
ENDMDL
MODEL      151
REMARK 921   NORMALIZED FREE ENERGY PREDICTED BY IDOCK:   -4.58 KCAL/MOL
REMARK 922        TOTAL FREE ENERGY PREDICTED BY IDOCK:  -12.09 KCAL/MOL
REMARK 923 INTER-LIGAND FREE ENERGY PREDICTED BY IDOCK:  -10.27 KCAL/MOL
REMARK 924 INTRA-LIGAND FREE ENERGY PREDICTED BY IDOCK:   -1.83 KCAL/MOL
REMARK 927      BINDING AFFINITY PREDICTED BY RF-SCORE:    0.00 PKD
ROOT
HETATM    1  N   UNK A   1      -8.170   4.967  66.247  1.00  0.00    -0.108 NA 
HETATM    2  H1  UNK A   1      -7.582   4.551  65.525  1.00  0.00     0.000 HD 
HETATM    3  H2  UNK A   1      -7.674   5.004  67.138  1.00  0.00     0.000 HD 
HETATM    4  C   UNK A   1      -9.486   4.292  66.405  1.00  0.00    -0.183 C  
HETATM    5  O   UNK A   1     -11.389   4.135  64.860  1.00  0.00    -0.242 OA 
HETATM    6  C   UNK A   1     -10.187   4.248  65.036  1.00  0.00    -0.196 C  
HETATM    7  O   UNK A   1      -9.285   4.352  64.026  1.00  0.00    -0.152 OA 
ENDROOT
BRANCH   4   8
HETATM    8  C   UNK A   1     -10.367   4.917  67.489  1.00  0.00    -0.105 C  
BRANCH   8   9
HETATM    9  C   UNK A   1     -10.675   6.403  67.295  1.00  0.00    -0.426 C  
BRANCH   9  10
HETATM   10  C   UNK A   1      -9.691   7.237  68.082  1.00  0.00    -0.145 C  
HETATM   11  N   UNK A   1      -9.897   7.224  69.445  1.00  0.00    -0.162 N  
HETATM   12  O   UNK A   1      -8.811   7.900  67.540  1.00  0.00    -0.127 OA 
HETATM   13  H   UNK A   1     -10.678   6.703  69.841  1.00  0.00     0.000 HD 
BRANCH  11  14
HETATM   14  C   UNK A   1      -8.984   7.968  70.323  1.00  0.00    -0.147 C  
BRANCH  14  15
HETATM   15  C   UNK A   1      -8.692   7.111  71.572  1.00  0.00    -0.119 C  
ATOM     16  H   GLY A   2     -10.711   6.695  71.743  1.00  0.00     0.000 HD 
ATOM     17  N   GLY A   2      -9.792   6.509  72.142  1.00  0.00    -0.159 N  
HETATM   18  O   UNK A   1      -7.570   6.988  72.038  1.00  0.00    -0.090 OA 
BRANCH  17  19
ATOM     19  CA  GLY A   2      -9.697   5.622  73.288  1.00  0.00    -0.151 C  
ATOM     20  C   GLY A   2     -10.906   4.725  73.497  1.00  0.00    -0.300 C  
ATOM     21  O   GLY A   2     -12.084   5.215  73.005  1.00  0.00    -0.176 OA 
ATOM     22  OXT GLY A   2     -10.871   3.670  74.113  1.00  0.00    -0.202 OA 
ENDBRANCH  17  19
ENDBRANCH  14  15
BRANCH  14  23
HETATM   23  C   UNK A   1      -9.586   9.331  70.705  1.00  0.00    -0.275 C  
BRANCH  23  24
HETATM   24  S   UNK A   1     -11.405   9.426  70.712  1.00  0.00    -0.322 SA 
BRANCH  24  25
HETATM   25  S   UNK A   1     -11.783  10.461  68.983  1.00  0.00    -0.006 SA 
BRANCH  25  26
HETATM   26  C   UNK A   1     -11.501  12.192  69.499  1.00  0.00    -0.265 C  
BRANCH  26  27
HETATM   27  C   UNK A   1     -10.708  13.057  68.502  1.00  0.00    -0.255 C  
BRANCH  27  28
HETATM   28  C   UNK A   1     -11.601  13.451  67.287  1.00  0.00    -0.360 C  
ATOM     29  H   GLY A   2     -10.985  11.775  66.203  1.00  0.00     0.000 HD 
ATOM     30  N   GLY A   2     -11.607  12.583  66.213  1.00  0.00    -0.374 N  
HETATM   31  O   UNK A   1     -12.366  14.413  67.314  1.00  0.00    -0.322 OA 
BRANCH  30  32
ATOM     32  CA  GLY A   2     -12.507  12.832  65.094  1.00  0.00    -0.501 C  
ATOM     33  OXT GLY A   2     -12.441  13.757  62.835  1.00  0.00    -0.601 OA 
ATOM     34  C   GLY A   2     -11.892  13.105  63.715  1.00  0.00    -0.486 C  
ATOM     35  O   GLY A   2     -10.780  12.393  63.450  1.00  0.00    -0.446 OA 
ENDBRANCH  30  32
ENDBRANCH  27  28
BRANCH  27  36
HETATM   36  N   UNK A   1      -9.863  14.101  69.122  1.00  0.00    -0.426 N  
HETATM   37  H   UNK A   1     -10.120  14.463  70.040  1.00  0.00     0.000 HD 
HETATM   38  O   UNK A   1      -8.280  14.130  67.466  1.00  0.00    -0.160 OA 
HETATM   39  C   UNK A   1      -8.742  14.599  68.501  1.00  0.00    -0.176 C  
BRANCH  39  40
HETATM   40  C   UNK A   1      -7.996  15.700  69.240  1.00  0.00    -0.237 C  
BRANCH  40  41
HETATM   41  C   UNK A   1      -7.802  17.032  68.489  1.00  0.00    -0.251 C  
BRANCH  41  42
HETATM   42  C   UNK A   1      -9.060  17.832  68.121  1.00  0.00    -0.274 C  
HETATM   43  N   UNK A   1     -10.291  17.260  68.728  1.00  0.00    -0.346 NA 
HETATM   44  C   UNK A   1      -9.252  17.819  66.615  1.00  0.00    -0.269 C  
HETATM   45  O   UNK A   1      -8.686  18.489  65.772  1.00  0.00    -0.429 OA 
HETATM   46  O   UNK A   1     -10.145  16.855  66.295  1.00  0.00    -0.297 OA 
HETATM   47  H2  UNK A   1     -10.196  17.170  69.739  1.00  0.00     0.000 HD 
HETATM   48  H1  UNK A   1     -11.127  17.791  68.483  1.00  0.00     0.000 HD 
ENDBRANCH  41  42
ENDBRANCH  40  41
ENDBRANCH  39  40
ENDBRANCH  27  36
ENDBRANCH  26  27
ENDBRANCH  25  26
ENDBRANCH  24  25
ENDBRANCH  23  24
ENDBRANCH  14  23
ENDBRANCH  11  14
ENDBRANCH   9  10
ENDBRANCH   8   9
ENDBRANCH   4   8
TORSDOF 17
ENDMDL
MODEL      152
REMARK 921   NORMALIZED FREE ENERGY PREDICTED BY IDOCK:   -4.57 KCAL/MOL
REMARK 922        TOTAL FREE ENERGY PREDICTED BY IDOCK:  -12.08 KCAL/MOL
REMARK 923 INTER-LIGAND FREE ENERGY PREDICTED BY IDOCK:  -10.51 KCAL/MOL
REMARK 924 INTRA-LIGAND FREE ENERGY PREDICTED BY IDOCK:   -1.57 KCAL/MOL
REMARK 927      BINDING AFFINITY PREDICTED BY RF-SCORE:    0.00 PKD
ROOT
HETATM    1  N   UNK A   1     -12.118  12.413  65.869  1.00  0.00    -0.623 NA 
HETATM    2  H1  UNK A   1     -12.334  13.361  65.561  1.00  0.00     0.000 HD 
HETATM    3  H2  UNK A   1     -12.132  12.353  66.888  1.00  0.00     0.000 HD 
HETATM    4  C   UNK A   1     -10.834  11.890  65.329  1.00  0.00    -0.297 C  
HETATM    5  O   UNK A   1     -10.177  11.357  63.023  1.00  0.00    -0.324 OA 
HETATM    6  C   UNK A   1     -10.856  12.015  63.796  1.00  0.00    -0.420 C  
HETATM    7  O   UNK A   1     -11.737  12.968  63.400  1.00  0.00    -0.504 OA 
ENDROOT
BRANCH   4   8
HETATM    8  C   UNK A   1     -10.511  10.467  65.792  1.00  0.00    -0.214 C  
BRANCH   8   9
HETATM    9  C   UNK A   1     -10.153  10.335  67.273  1.00  0.00    -0.249 C  
BRANCH   9  10
HETATM   10  C   UNK A   1      -8.673  10.068  67.421  1.00  0.00    -0.125 C  
HETATM   11  N   UNK A   1      -8.108  10.608  68.556  1.00  0.00    -0.118 N  
HETATM   12  O   UNK A   1      -8.029   9.455  66.574  1.00  0.00    -0.106 OA 
HETATM   13  H   UNK A   1      -8.675  11.159  69.200  1.00  0.00     0.000 HD 
BRANCH  11  14
HETATM   14  C   UNK A   1      -6.682  10.387  68.832  1.00  0.00    -0.058 C  
BRANCH  14  15
HETATM   15  C   UNK A   1      -6.509  10.092  70.336  1.00  0.00    -0.131 C  
ATOM     16  H   GLY A   2      -7.537   8.313  70.092  1.00  0.00     0.000 HD 
ATOM     17  N   GLY A   2      -7.039   8.895  70.765  1.00  0.00    -0.068 N  
HETATM   18  O   UNK A   1      -5.960  10.870  71.101  1.00  0.00    -0.351 OA 
BRANCH  17  19
ATOM     19  CA  GLY A   2      -6.919   8.428  72.134  1.00  0.00    -0.090 C  
ATOM     20  C   GLY A   2      -8.239   8.079  72.803  1.00  0.00    -0.158 C  
ATOM     21  O   GLY A   2      -9.330   8.742  72.315  1.00  0.00    -0.314 OA 
ATOM     22  OXT GLY A   2      -8.338   7.316  73.753  1.00  0.00    -0.128 OA 
ENDBRANCH  17  19
ENDBRANCH  14  15
BRANCH  14  23
HETATM   23  C   UNK A   1      -5.849  11.606  68.399  1.00  0.00    -0.045 C  
BRANCH  23  24
HETATM   24  S   UNK A   1      -6.391  13.216  69.053  1.00  0.00    -0.104 SA 
BRANCH  24  25
HETATM   25  S   UNK A   1      -7.788  13.790  67.668  1.00  0.00    -0.190 SA 
BRANCH  25  26
HETATM   26  C   UNK A   1      -9.046  14.615  68.706  1.00  0.00    -0.178 C  
BRANCH  26  27
HETATM   27  C   UNK A   1     -10.436  14.770  68.061  1.00  0.00    -0.246 C  
BRANCH  27  28
HETATM   28  C   UNK A   1     -11.543  14.206  69.000  1.00  0.00    -0.304 C  
ATOM     29  H   GLY A   2     -10.721  12.287  68.933  1.00  0.00     0.000 HD 
ATOM     30  N   GLY A   2     -11.444  12.874  69.349  1.00  0.00    -0.275 N  
HETATM   31  O   UNK A   1     -12.398  14.922  69.519  1.00  0.00    -0.254 OA 
BRANCH  30  32
ATOM     32  CA  GLY A   2     -12.379  12.313  70.316  1.00  0.00    -0.189 C  
ATOM     33  OXT GLY A   2     -13.307  10.145  70.951  1.00  0.00    -0.388 OA 
ATOM     34  C   GLY A   2     -12.347  10.798  70.562  1.00  0.00    -0.369 C  
ATOM     35  O   GLY A   2     -11.116  10.254  70.526  1.00  0.00    -0.302 OA 
ENDBRANCH  30  32
ENDBRANCH  27  28
BRANCH  27  36
HETATM   36  N   UNK A   1     -10.671  16.072  67.399  1.00  0.00    -0.316 N  
HETATM   37  H   UNK A   1     -10.938  16.084  66.414  1.00  0.00     0.000 HD 
HETATM   38  O   UNK A   1     -10.359  17.346  69.276  1.00  0.00    -0.334 OA 
HETATM   39  C   UNK A   1     -10.540  17.267  68.066  1.00  0.00    -0.394 C  
BRANCH  39  40
HETATM   40  C   UNK A   1     -10.771  18.526  67.244  1.00  0.00    -0.417 C  
BRANCH  40  41
HETATM   41  C   UNK A   1      -9.535  19.150  66.569  1.00  0.00    -0.395 C  
BRANCH  41  42
HETATM   42  C   UNK A   1      -8.453  19.750  67.478  1.00  0.00    -0.322 C  
HETATM   43  N   UNK A   1      -7.937  21.046  66.963  1.00  0.00    -0.601 NA 
HETATM   44  C   UNK A   1      -7.273  18.799  67.567  1.00  0.00    -0.215 C  
HETATM   45  O   UNK A   1      -7.159  17.793  68.242  1.00  0.00    -0.213 OA 
HETATM   46  O   UNK A   1      -6.323  19.197  66.691  1.00  0.00    -0.185 OA 
HETATM   47  H2  UNK A   1      -8.696  21.709  66.808  1.00  0.00     0.000 HD 
HETATM   48  H1  UNK A   1      -7.218  21.445  67.567  1.00  0.00     0.000 HD 
ENDBRANCH  41  42
ENDBRANCH  40  41
ENDBRANCH  39  40
ENDBRANCH  27  36
ENDBRANCH  26  27
ENDBRANCH  25  26
ENDBRANCH  24  25
ENDBRANCH  23  24
ENDBRANCH  14  23
ENDBRANCH  11  14
ENDBRANCH   9  10
ENDBRANCH   8   9
ENDBRANCH   4   8
TORSDOF 17
ENDMDL
MODEL      153
REMARK 921   NORMALIZED FREE ENERGY PREDICTED BY IDOCK:   -4.56 KCAL/MOL
REMARK 922        TOTAL FREE ENERGY PREDICTED BY IDOCK:  -12.07 KCAL/MOL
REMARK 923 INTER-LIGAND FREE ENERGY PREDICTED BY IDOCK:  -10.49 KCAL/MOL
REMARK 924 INTRA-LIGAND FREE ENERGY PREDICTED BY IDOCK:   -1.58 KCAL/MOL
REMARK 927      BINDING AFFINITY PREDICTED BY RF-SCORE:    0.00 PKD
ROOT
HETATM    1  N   UNK A   1     -11.583   6.455  69.329  1.00  0.00    -0.607 NA 
HETATM    2  H1  UNK A   1     -11.793   6.028  70.231  1.00  0.00     0.000 HD 
HETATM    3  H2  UNK A   1     -12.416   6.891  68.933  1.00  0.00     0.000 HD 
HETATM    4  C   UNK A   1     -10.969   5.513  68.355  1.00  0.00     0.172 C  
HETATM    5  O   UNK A   1      -8.791   4.376  68.396  1.00  0.00    -0.098 OA 
HETATM    6  C   UNK A   1      -9.728   4.872  69.001  1.00  0.00    -0.175 C  
HETATM    7  O   UNK A   1      -9.806   4.924  70.355  1.00  0.00    -0.193 OA 
ENDROOT
BRANCH   4   8
HETATM    8  C   UNK A   1     -10.653   6.153  67.001  1.00  0.00    -0.384 C  
BRANCH   8   9
HETATM    9  C   UNK A   1     -10.460   7.670  67.033  1.00  0.00    -0.419 C  
BRANCH   9  10
HETATM   10  C   UNK A   1      -9.060   7.999  67.496  1.00  0.00    -0.137 C  
HETATM   11  N   UNK A   1      -9.001   8.657  68.707  1.00  0.00    -0.138 N  
HETATM   12  O   UNK A   1      -8.067   7.736  66.824  1.00  0.00    -0.111 OA 
HETATM   13  H   UNK A   1      -9.859   8.905  69.199  1.00  0.00     0.000 HD 
BRANCH  11  14
HETATM   14  C   UNK A   1      -7.694   9.001  69.283  1.00  0.00    -0.090 C  
BRANCH  14  15
HETATM   15  C   UNK A   1      -7.800   8.941  70.820  1.00  0.00    -0.119 C  
ATOM     16  H   GLY A   2      -9.789   8.397  70.649  1.00  0.00     0.000 HD 
ATOM     17  N   GLY A   2      -9.032   8.566  71.310  1.00  0.00    -0.173 N  
HETATM   18  O   UNK A   1      -6.868   9.226  71.556  1.00  0.00    -0.260 OA 
BRANCH  17  19
ATOM     19  CA  GLY A   2      -9.297   8.401  72.729  1.00  0.00    -0.242 C  
ATOM     20  C   GLY A   2     -10.461   7.479  73.053  1.00  0.00    -0.342 C  
ATOM     21  O   GLY A   2     -11.418   7.388  72.081  1.00  0.00    -0.263 OA 
ATOM     22  OXT GLY A   2     -10.591   6.901  74.122  1.00  0.00    -0.299 OA 
ENDBRANCH  17  19
ENDBRANCH  14  15
BRANCH  14  23
HETATM   23  C   UNK A   1      -7.237  10.389  68.804  1.00  0.00    -0.085 C  
BRANCH  23  24
HETATM   24  S   UNK A   1      -8.555  11.516  68.247  1.00  0.00    -0.164 SA 
BRANCH  24  25
HETATM   25  S   UNK A   1      -7.484  13.148  67.623  1.00  0.00    -0.169 SA 
BRANCH  25  26
HETATM   26  C   UNK A   1      -7.408  14.164  69.141  1.00  0.00    -0.067 C  
BRANCH  26  27
HETATM   27  C   UNK A   1      -8.547  15.188  69.305  1.00  0.00    -0.211 C  
BRANCH  27  28
HETATM   28  C   UNK A   1      -8.487  16.261  68.178  1.00  0.00    -0.174 C  
ATOM     29  H   GLY A   2     -10.085  17.321  69.006  1.00  0.00     0.000 HD 
ATOM     30  N   GLY A   2      -9.377  17.313  68.272  1.00  0.00    -0.263 N  
HETATM   31  O   UNK A   1      -7.617  16.260  67.309  1.00  0.00    -0.140 OA 
BRANCH  30  32
ATOM     32  CA  GLY A   2      -9.297  18.410  67.316  1.00  0.00    -0.270 C  
ATOM     33  OXT GLY A   2      -8.938  20.826  67.295  1.00  0.00    -0.314 OA 
ATOM     34  C   GLY A   2      -8.671  19.732  67.780  1.00  0.00    -0.325 C  
ATOM     35  O   GLY A   2      -7.633  19.591  68.626  1.00  0.00    -0.336 OA 
ENDBRANCH  30  32
ENDBRANCH  27  28
BRANCH  27  36
HETATM   36  N   UNK A   1      -9.861  14.604  69.652  1.00  0.00    -0.419 N  
HETATM   37  H   UNK A   1     -10.113  14.505  70.635  1.00  0.00     0.000 HD 
HETATM   38  O   UNK A   1     -10.598  14.395  67.493  1.00  0.00    -0.261 OA 
HETATM   39  C   UNK A   1     -10.754  14.190  68.692  1.00  0.00    -0.254 C  
BRANCH  39  40
HETATM   40  C   UNK A   1     -12.047  13.570  69.199  1.00  0.00    -0.331 C  
BRANCH  40  41
HETATM   41  C   UNK A   1     -12.206  13.446  70.727  1.00  0.00    -0.409 C  
BRANCH  41  42
HETATM   42  C   UNK A   1     -13.099  14.474  71.436  1.00  0.00    -0.353 C  
HETATM   43  N   UNK A   1     -13.647  15.489  70.497  1.00  0.00    -0.825 NA 
HETATM   44  C   UNK A   1     -12.292  15.219  72.483  1.00  0.00    -0.369 C  
HETATM   45  O   UNK A   1     -11.976  14.852  73.601  1.00  0.00    -0.358 OA 
HETATM   46  O   UNK A   1     -11.877  16.396  71.962  1.00  0.00    -0.511 OA 
HETATM   47  H2  UNK A   1     -14.140  15.046  69.722  1.00  0.00     0.000 HD 
HETATM   48  H1  UNK A   1     -14.240  16.172  70.968  1.00  0.00     0.000 HD 
ENDBRANCH  41  42
ENDBRANCH  40  41
ENDBRANCH  39  40
ENDBRANCH  27  36
ENDBRANCH  26  27
ENDBRANCH  25  26
ENDBRANCH  24  25
ENDBRANCH  23  24
ENDBRANCH  14  23
ENDBRANCH  11  14
ENDBRANCH   9  10
ENDBRANCH   8   9
ENDBRANCH   4   8
TORSDOF 17
ENDMDL
MODEL      154
REMARK 921   NORMALIZED FREE ENERGY PREDICTED BY IDOCK:   -4.56 KCAL/MOL
REMARK 922        TOTAL FREE ENERGY PREDICTED BY IDOCK:  -12.06 KCAL/MOL
REMARK 923 INTER-LIGAND FREE ENERGY PREDICTED BY IDOCK:  -10.19 KCAL/MOL
REMARK 924 INTRA-LIGAND FREE ENERGY PREDICTED BY IDOCK:   -1.87 KCAL/MOL
REMARK 927      BINDING AFFINITY PREDICTED BY RF-SCORE:    0.00 PKD
ROOT
HETATM    1  N   UNK A   1      -7.148   4.892  66.919  1.00  0.00    -0.071 NA 
HETATM    2  H1  UNK A   1      -6.226   5.153  67.268  1.00  0.00     0.000 HD 
HETATM    3  H2  UNK A   1      -7.177   4.946  65.900  1.00  0.00     0.000 HD 
HETATM    4  C   UNK A   1      -8.256   5.683  67.519  1.00  0.00    -0.101 C  
HETATM    5  O   UNK A   1      -9.084   5.763  69.831  1.00  0.00    -0.140 OA 
HETATM    6  C   UNK A   1      -8.161   5.583  69.052  1.00  0.00    -0.099 C  
HETATM    7  O   UNK A   1      -6.900   5.264  69.439  1.00  0.00    -0.050 OA 
ENDROOT
BRANCH   4   8
HETATM    8  C   UNK A   1      -9.640   5.292  66.996  1.00  0.00    -0.150 C  
BRANCH   8   9
HETATM    9  C   UNK A   1     -10.671   6.422  66.988  1.00  0.00    -0.434 C  
BRANCH   9  10
HETATM   10  C   UNK A   1      -9.978   7.747  66.770  1.00  0.00    -0.261 C  
HETATM   11  N   UNK A   1     -10.174   8.665  67.780  1.00  0.00    -0.212 N  
HETATM   12  O   UNK A   1      -9.332   7.990  65.755  1.00  0.00    -0.085 OA 
HETATM   13  H   UNK A   1     -10.768   8.433  68.576  1.00  0.00     0.000 HD 
BRANCH  11  14
HETATM   14  C   UNK A   1      -9.523   9.979  67.702  1.00  0.00    -0.144 C  
BRANCH  14  15
HETATM   15  C   UNK A   1      -8.131   9.880  68.359  1.00  0.00    -0.101 C  
ATOM     16  H   GLY A   2      -8.944   8.738  69.881  1.00  0.00     0.000 HD 
ATOM     17  N   GLY A   2      -8.078   9.134  69.515  1.00  0.00    -0.101 N  
HETATM   18  O   UNK A   1      -7.146  10.439  67.902  1.00  0.00    -0.081 OA 
BRANCH  17  19
ATOM     19  CA  GLY A   2      -6.841   8.886  70.235  1.00  0.00    -0.045 C  
ATOM     20  C   GLY A   2      -7.026   8.370  71.653  1.00  0.00    -0.086 C  
ATOM     21  O   GLY A   2      -8.201   8.729  72.253  1.00  0.00    -0.360 OA 
ATOM     22  OXT GLY A   2      -6.176   7.736  72.261  1.00  0.00    -0.039 OA 
ENDBRANCH  17  19
ENDBRANCH  14  15
BRANCH  14  23
HETATM   23  C   UNK A   1     -10.389  11.056  68.379  1.00  0.00    -0.183 C  
BRANCH  23  24
HETATM   24  S   UNK A   1     -10.062  12.775  67.875  1.00  0.00    -0.237 SA 
BRANCH  24  25
HETATM   25  S   UNK A   1     -11.861  13.328  67.061  1.00  0.00    -0.378 SA 
BRANCH  25  26
HETATM   26  C   UNK A   1     -11.460  14.940  66.299  1.00  0.00    -0.269 C  
BRANCH  26  27
HETATM   27  C   UNK A   1     -10.744  15.946  67.220  1.00  0.00    -0.306 C  
BRANCH  27  28
HETATM   28  C   UNK A   1     -10.352  17.230  66.431  1.00  0.00    -0.316 C  
ATOM     29  H   GLY A   2      -9.504  18.099  68.131  1.00  0.00     0.000 HD 
ATOM     30  N   GLY A   2      -9.663  18.202  67.129  1.00  0.00    -0.291 N  
HETATM   31  O   UNK A   1     -10.524  17.340  65.218  1.00  0.00    -0.661 OA 
BRANCH  30  32
ATOM     32  CA  GLY A   2      -9.165  19.376  66.423  1.00  0.00    -0.360 C  
ATOM     33  OXT GLY A   2      -7.035  20.388  65.784  1.00  0.00    -0.267 OA 
ATOM     34  C   GLY A   2      -7.703  19.375  65.953  1.00  0.00    -0.248 C  
ATOM     35  O   GLY A   2      -7.256  18.178  65.527  1.00  0.00    -0.539 OA 
ENDBRANCH  30  32
ENDBRANCH  27  28
BRANCH  27  36
HETATM   36  N   UNK A   1     -11.352  16.101  68.560  1.00  0.00    -0.373 N  
HETATM   37  H   UNK A   1     -12.357  16.263  68.630  1.00  0.00     0.000 HD 
HETATM   38  O   UNK A   1      -9.425  15.708  69.736  1.00  0.00    -0.277 OA 
HETATM   39  C   UNK A   1     -10.607  16.035  69.714  1.00  0.00    -0.323 C  
BRANCH  39  40
HETATM   40  C   UNK A   1     -11.363  16.256  71.016  1.00  0.00    -0.315 C  
BRANCH  40  41
HETATM   41  C   UNK A   1     -11.930  15.003  71.710  1.00  0.00    -0.442 C  
BRANCH  41  42
HETATM   42  C   UNK A   1     -13.003  14.198  70.963  1.00  0.00    -0.329 C  
HETATM   43  N   UNK A   1     -14.376  14.702  71.230  1.00  0.00    -0.526 NA 
HETATM   44  C   UNK A   1     -12.960  12.749  71.410  1.00  0.00    -0.266 C  
HETATM   45  O   UNK A   1     -12.188  11.871  71.067  1.00  0.00    -0.319 OA 
HETATM   46  O   UNK A   1     -13.909  12.552  72.353  1.00  0.00    -0.404 OA 
HETATM   47  H2  UNK A   1     -14.450  15.698  71.021  1.00  0.00     0.000 HD 
HETATM   48  H1  UNK A   1     -15.089  14.168  70.734  1.00  0.00     0.000 HD 
ENDBRANCH  41  42
ENDBRANCH  40  41
ENDBRANCH  39  40
ENDBRANCH  27  36
ENDBRANCH  26  27
ENDBRANCH  25  26
ENDBRANCH  24  25
ENDBRANCH  23  24
ENDBRANCH  14  23
ENDBRANCH  11  14
ENDBRANCH   9  10
ENDBRANCH   8   9
ENDBRANCH   4   8
TORSDOF 17
ENDMDL
MODEL      155
REMARK 921   NORMALIZED FREE ENERGY PREDICTED BY IDOCK:   -4.55 KCAL/MOL
REMARK 922        TOTAL FREE ENERGY PREDICTED BY IDOCK:  -12.04 KCAL/MOL
REMARK 923 INTER-LIGAND FREE ENERGY PREDICTED BY IDOCK:   -9.73 KCAL/MOL
REMARK 924 INTRA-LIGAND FREE ENERGY PREDICTED BY IDOCK:   -2.32 KCAL/MOL
REMARK 927      BINDING AFFINITY PREDICTED BY RF-SCORE:    0.00 PKD
ROOT
HETATM    1  N   UNK A   1     -12.592  10.866  70.871  1.00  0.00    -0.374 NA 
HETATM    2  H1  UNK A   1     -13.578  10.779  71.119  1.00  0.00     0.000 HD 
HETATM    3  H2  UNK A   1     -12.481  11.411  70.016  1.00  0.00     0.000 HD 
HETATM    4  C   UNK A   1     -11.890   9.559  70.757  1.00  0.00    -0.277 C  
HETATM    5  O   UNK A   1     -11.377   7.873  72.468  1.00  0.00    -0.335 OA 
HETATM    6  C   UNK A   1     -12.098   8.771  72.062  1.00  0.00    -0.377 C  
HETATM    7  O   UNK A   1     -13.205   9.203  72.718  1.00  0.00    -0.394 OA 
ENDROOT
BRANCH   4   8
HETATM    8  C   UNK A   1     -10.411   9.690  70.386  1.00  0.00    -0.352 C  
BRANCH   8   9
HETATM    9  C   UNK A   1     -10.127   9.783  68.886  1.00  0.00    -0.194 C  
BRANCH   9  10
HETATM   10  C   UNK A   1      -8.649  10.001  68.658  1.00  0.00    -0.123 C  
HETATM   11  N   UNK A   1      -8.029  10.760  69.628  1.00  0.00    -0.377 N  
HETATM   12  O   UNK A   1      -8.067   9.570  67.667  1.00  0.00    -0.109 OA 
HETATM   13  H   UNK A   1      -8.570  11.144  70.402  1.00  0.00     0.000 HD 
BRANCH  11  14
HETATM   14  C   UNK A   1      -6.585  11.013  69.538  1.00  0.00    -0.118 C  
BRANCH  14  15
HETATM   15  C   UNK A   1      -5.834   9.811  70.145  1.00  0.00    -0.047 C  
ATOM     16  H   GLY A   2      -6.451  10.393  72.032  1.00  0.00     0.000 HD 
ATOM     17  N   GLY A   2      -5.936   9.683  71.512  1.00  0.00    -0.038 N  
HETATM   18  O   UNK A   1      -5.176   9.035  69.468  1.00  0.00    -0.034 OA 
BRANCH  17  19
ATOM     19  CA  GLY A   2      -5.342   8.579  72.246  1.00  0.00    -0.043 C  
ATOM     20  C   GLY A   2      -5.993   8.287  73.588  1.00  0.00    -0.096 C  
ATOM     21  O   GLY A   2      -6.608   9.354  74.180  1.00  0.00    -0.318 OA 
ATOM     22  OXT GLY A   2      -5.930   7.204  74.152  1.00  0.00    -0.068 OA 
ENDBRANCH  17  19
ENDBRANCH  14  15
BRANCH  14  23
HETATM   23  C   UNK A   1      -6.217  12.325  70.253  1.00  0.00     0.016 C  
BRANCH  23  24
HETATM   24  S   UNK A   1      -5.947  13.770  69.179  1.00  0.00    -0.092 SA 
BRANCH  24  25
HETATM   25  S   UNK A   1      -7.576  13.689  67.938  1.00  0.00    -0.176 SA 
BRANCH  25  26
HETATM   26  C   UNK A   1      -8.874  14.483  68.951  1.00  0.00    -0.103 C  
BRANCH  26  27
HETATM   27  C   UNK A   1      -9.744  15.518  68.214  1.00  0.00    -0.201 C  
BRANCH  27  28
HETATM   28  C   UNK A   1      -9.368  16.964  68.656  1.00  0.00    -0.268 C  
ATOM     29  H   GLY A   2      -7.333  16.604  68.350  1.00  0.00     0.000 HD 
ATOM     30  N   GLY A   2      -8.032  17.306  68.595  1.00  0.00    -0.264 N  
HETATM   31  O   UNK A   1     -10.215  17.814  68.926  1.00  0.00    -0.368 OA 
BRANCH  30  32
ATOM     32  CA  GLY A   2      -7.627  18.676  68.882  1.00  0.00    -0.254 C  
ATOM     33  OXT GLY A   2      -6.709  20.618  67.719  1.00  0.00    -0.293 OA 
ATOM     34  C   GLY A   2      -7.450  19.643  67.703  1.00  0.00    -0.269 C  
ATOM     35  O   GLY A   2      -8.337  19.471  66.704  1.00  0.00    -0.286 OA 
ENDBRANCH  30  32
ENDBRANCH  27  28
BRANCH  27  36
HETATM   36  N   UNK A   1      -9.938  15.252  66.772  1.00  0.00    -0.237 N  
HETATM   37  H   UNK A   1      -9.129  15.277  66.152  1.00  0.00     0.000 HD 
HETATM   38  O   UNK A   1     -12.176  14.782  66.923  1.00  0.00    -0.230 OA 
HETATM   39  C   UNK A   1     -11.175  14.970  66.240  1.00  0.00    -0.309 C  
BRANCH  39  40
HETATM   40  C   UNK A   1     -11.227  14.760  64.734  1.00  0.00    -0.392 C  
BRANCH  40  41
HETATM   41  C   UNK A   1     -10.736  13.399  64.206  1.00  0.00    -0.374 C  
BRANCH  41  42
HETATM   42  C   UNK A   1     -11.677  12.195  64.355  1.00  0.00    -0.355 C  
HETATM   43  N   UNK A   1     -13.064  12.602  64.706  1.00  0.00    -0.848 NA 
HETATM   44  C   UNK A   1     -11.179  11.289  65.466  1.00  0.00     0.001 C  
HETATM   45  O   UNK A   1     -10.279  10.470  65.432  1.00  0.00    -0.286 OA 
HETATM   46  O   UNK A   1     -11.859  11.571  66.600  1.00  0.00    -0.470 OA 
HETATM   47  H2  UNK A   1     -13.431  13.275  64.034  1.00  0.00     0.000 HD 
HETATM   48  H1  UNK A   1     -13.689  11.802  64.805  1.00  0.00     0.000 HD 
ENDBRANCH  41  42
ENDBRANCH  40  41
ENDBRANCH  39  40
ENDBRANCH  27  36
ENDBRANCH  26  27
ENDBRANCH  25  26
ENDBRANCH  24  25
ENDBRANCH  23  24
ENDBRANCH  14  23
ENDBRANCH  11  14
ENDBRANCH   9  10
ENDBRANCH   8   9
ENDBRANCH   4   8
TORSDOF 17
ENDMDL
MODEL      156
REMARK 921   NORMALIZED FREE ENERGY PREDICTED BY IDOCK:   -4.55 KCAL/MOL
REMARK 922        TOTAL FREE ENERGY PREDICTED BY IDOCK:  -12.04 KCAL/MOL
REMARK 923 INTER-LIGAND FREE ENERGY PREDICTED BY IDOCK:   -9.52 KCAL/MOL
REMARK 924 INTRA-LIGAND FREE ENERGY PREDICTED BY IDOCK:   -2.51 KCAL/MOL
REMARK 927      BINDING AFFINITY PREDICTED BY RF-SCORE:    0.00 PKD
ROOT
HETATM    1  N   UNK A   1     -10.386   9.231  66.165  1.00  0.00    -0.215 NA 
HETATM    2  H1  UNK A   1     -10.305   8.240  66.393  1.00  0.00     0.000 HD 
HETATM    3  H2  UNK A   1     -11.355   9.476  65.963  1.00  0.00     0.000 HD 
HETATM    4  C   UNK A   1      -9.492   9.660  65.056  1.00  0.00    -0.245 C  
HETATM    5  O   UNK A   1      -7.041   9.769  64.939  1.00  0.00    -0.112 OA 
HETATM    6  C   UNK A   1      -8.048   9.256  65.400  1.00  0.00    -0.122 C  
HETATM    7  O   UNK A   1      -8.030   8.237  66.297  1.00  0.00    -0.095 OA 
ENDROOT
BRANCH   4   8
HETATM    8  C   UNK A   1      -9.614  11.146  64.713  1.00  0.00    -0.279 C  
BRANCH   8   9
HETATM    9  C   UNK A   1     -10.615  11.927  65.566  1.00  0.00    -0.313 C  
BRANCH   9  10
HETATM   10  C   UNK A   1      -9.906  12.553  66.744  1.00  0.00    -0.229 C  
HETATM   11  N   UNK A   1      -8.664  13.075  66.449  1.00  0.00    -0.422 N  
HETATM   12  O   UNK A   1     -10.385  12.555  67.874  1.00  0.00    -0.206 OA 
HETATM   13  H   UNK A   1      -8.285  12.997  65.506  1.00  0.00     0.000 HD 
BRANCH  11  14
HETATM   14  C   UNK A   1      -7.889  13.743  67.503  1.00  0.00    -0.179 C  
BRANCH  14  15
HETATM   15  C   UNK A   1      -7.980  15.268  67.292  1.00  0.00    -0.202 C  
ATOM     16  H   GLY A   2     -10.035  15.162  67.509  1.00  0.00     0.000 HD 
ATOM     17  N   GLY A   2      -9.250  15.797  67.367  1.00  0.00    -0.200 N  
HETATM   18  O   UNK A   1      -7.002  15.960  67.055  1.00  0.00    -0.205 OA 
BRANCH  17  19
ATOM     19  CA  GLY A   2      -9.518  17.220  67.250  1.00  0.00    -0.250 C  
ATOM     20  C   GLY A   2      -9.982  17.884  68.536  1.00  0.00    -0.379 C  
ATOM     21  O   GLY A   2     -10.616  17.058  69.421  1.00  0.00    -0.335 OA 
ATOM     22  OXT GLY A   2      -9.870  19.081  68.760  1.00  0.00    -0.392 OA 
ENDBRANCH  17  19
ENDBRANCH  14  15
BRANCH  14  23
HETATM   23  C   UNK A   1      -6.428  13.261  67.493  1.00  0.00    -0.134 C  
BRANCH  23  24
HETATM   24  S   UNK A   1      -6.165  11.505  67.896  1.00  0.00    -0.055 SA 
BRANCH  24  25
HETATM   25  S   UNK A   1      -7.143  11.328  69.689  1.00  0.00     0.077 SA 
BRANCH  25  26
HETATM   26  C   UNK A   1      -7.442   9.528  69.790  1.00  0.00    -0.098 C  
BRANCH  26  27
HETATM   27  C   UNK A   1      -8.897   9.117  70.084  1.00  0.00    -0.197 C  
BRANCH  27  28
HETATM   28  C   UNK A   1      -8.980   8.297  71.406  1.00  0.00    -0.166 C  
ATOM     29  H   GLY A   2      -9.269   6.511  70.361  1.00  0.00     0.000 HD 
ATOM     30  N   GLY A   2      -9.134   6.931  71.281  1.00  0.00    -0.149 N  
HETATM   31  O   UNK A   1      -8.792   8.803  72.510  1.00  0.00    -0.402 OA 
BRANCH  30  32
ATOM     32  CA  GLY A   2      -9.101   6.093  72.473  1.00  0.00    -0.138 C  
ATOM     33  OXT GLY A   2      -9.479   3.765  73.110  1.00  0.00    -0.107 OA 
ATOM     34  C   GLY A   2      -9.058   4.569  72.288  1.00  0.00    -0.125 C  
ATOM     35  O   GLY A   2      -8.323   4.156  71.238  1.00  0.00    -0.078 OA 
ENDBRANCH  30  32
ENDBRANCH  27  28
BRANCH  27  36
HETATM   36  N   UNK A   1      -9.901  10.179  69.851  1.00  0.00    -0.369 N  
HETATM   37  H   UNK A   1      -9.591  11.077  69.479  1.00  0.00     0.000 HD 
HETATM   38  O   UNK A   1     -11.718   8.914  70.437  1.00  0.00    -0.180 OA 
HETATM   39  C   UNK A   1     -11.237   9.996  70.121  1.00  0.00    -0.304 C  
BRANCH  39  40
HETATM   40  C   UNK A   1     -12.143  11.192  69.872  1.00  0.00    -0.418 C  
BRANCH  40  41
HETATM   41  C   UNK A   1     -12.380  12.143  71.061  1.00  0.00    -0.331 C  
BRANCH  41  42
HETATM   42  C   UNK A   1     -12.770  13.594  70.746  1.00  0.00    -0.268 C  
HETATM   43  N   UNK A   1     -11.627  14.383  70.212  1.00  0.00    -0.380 NA 
HETATM   44  C   UNK A   1     -13.241  14.285  72.012  1.00  0.00    -0.385 C  
HETATM   45  O   UNK A   1     -14.325  14.206  72.562  1.00  0.00    -0.595 OA 
HETATM   46  O   UNK A   1     -12.216  14.997  72.532  1.00  0.00    -0.342 OA 
HETATM   47  H2  UNK A   1     -11.214  13.928  69.399  1.00  0.00     0.000 HD 
HETATM   48  H1  UNK A   1     -11.886  15.347  70.003  1.00  0.00     0.000 HD 
ENDBRANCH  41  42
ENDBRANCH  40  41
ENDBRANCH  39  40
ENDBRANCH  27  36
ENDBRANCH  26  27
ENDBRANCH  25  26
ENDBRANCH  24  25
ENDBRANCH  23  24
ENDBRANCH  14  23
ENDBRANCH  11  14
ENDBRANCH   9  10
ENDBRANCH   8   9
ENDBRANCH   4   8
TORSDOF 17
ENDMDL
MODEL      157
REMARK 921   NORMALIZED FREE ENERGY PREDICTED BY IDOCK:   -4.54 KCAL/MOL
REMARK 922        TOTAL FREE ENERGY PREDICTED BY IDOCK:  -12.02 KCAL/MOL
REMARK 923 INTER-LIGAND FREE ENERGY PREDICTED BY IDOCK:  -10.70 KCAL/MOL
REMARK 924 INTRA-LIGAND FREE ENERGY PREDICTED BY IDOCK:   -1.32 KCAL/MOL
REMARK 927      BINDING AFFINITY PREDICTED BY RF-SCORE:    0.00 PKD
ROOT
HETATM    1  N   UNK A   1      -9.294   5.041  66.119  1.00  0.00    -0.146 NA 
HETATM    2  H1  UNK A   1      -8.911   4.192  65.704  1.00  0.00     0.000 HD 
HETATM    3  H2  UNK A   1      -8.996   5.864  65.595  1.00  0.00     0.000 HD 
HETATM    4  C   UNK A   1      -8.976   5.193  67.564  1.00  0.00    -0.109 C  
HETATM    5  O   UNK A   1      -9.683   3.854  69.499  1.00  0.00    -0.199 OA 
HETATM    6  C   UNK A   1      -9.430   3.924  68.306  1.00  0.00    -0.151 C  
HETATM    7  O   UNK A   1      -9.516   2.869  67.456  1.00  0.00    -0.202 OA 
ENDROOT
BRANCH   4   8
HETATM    8  C   UNK A   1      -9.551   6.467  68.186  1.00  0.00    -0.123 C  
BRANCH   8   9
HETATM    9  C   UNK A   1     -10.656   7.142  67.372  1.00  0.00    -0.372 C  
BRANCH   9  10
HETATM   10  C   UNK A   1     -10.367   8.620  67.242  1.00  0.00    -0.296 C  
HETATM   11  N   UNK A   1      -9.260   8.918  66.475  1.00  0.00    -0.169 N  
HETATM   12  O   UNK A   1     -11.042   9.474  67.809  1.00  0.00    -0.186 OA 
HETATM   13  H   UNK A   1      -8.698   8.168  66.072  1.00  0.00     0.000 HD 
BRANCH  11  14
HETATM   14  C   UNK A   1      -8.895  10.322  66.243  1.00  0.00    -0.146 C  
BRANCH  14  15
HETATM   15  C   UNK A   1      -9.418  10.746  64.856  1.00  0.00    -0.242 C  
ATOM     16  H   GLY A   2     -11.121  11.513  65.747  1.00  0.00     0.000 HD 
ATOM     17  N   GLY A   2     -10.634  11.394  64.859  1.00  0.00    -0.302 N  
HETATM   18  O   UNK A   1      -8.812  10.508  63.822  1.00  0.00    -0.183 OA 
BRANCH  17  19
ATOM     19  CA  GLY A   2     -11.250  11.914  63.652  1.00  0.00    -0.441 C  
ATOM     20  C   GLY A   2     -12.331  12.956  63.891  1.00  0.00    -0.396 C  
ATOM     21  O   GLY A   2     -12.969  12.865  65.096  1.00  0.00    -0.758 OA 
ATOM     22  OXT GLY A   2     -12.672  13.784  63.059  1.00  0.00    -0.671 OA 
ENDBRANCH  17  19
ENDBRANCH  14  15
BRANCH  14  23
HETATM   23  C   UNK A   1      -7.372  10.512  66.352  1.00  0.00    -0.129 C  
BRANCH  23  24
HETATM   24  S   UNK A   1      -6.815  12.075  67.103  1.00  0.00    -0.104 SA 
BRANCH  24  25
HETATM   25  S   UNK A   1      -8.553  12.802  67.910  1.00  0.00    -0.192 SA 
BRANCH  25  26
HETATM   26  C   UNK A   1      -9.116  13.973  66.624  1.00  0.00    -0.200 C  
BRANCH  26  27
HETATM   27  C   UNK A   1      -8.868  15.461  66.933  1.00  0.00    -0.253 C  
BRANCH  27  28
HETATM   28  C   UNK A   1     -10.130  16.106  67.579  1.00  0.00    -0.256 C  
ATOM     29  H   GLY A   2     -10.784  14.261  68.310  1.00  0.00     0.000 HD 
ATOM     30  N   GLY A   2     -10.962  15.265  68.292  1.00  0.00    -0.265 N  
HETATM   31  O   UNK A   1     -10.327  17.319  67.576  1.00  0.00    -0.323 OA 
BRANCH  30  32
ATOM     32  CA  GLY A   2     -12.095  15.823  69.018  1.00  0.00    -0.171 C  
ATOM     33  OXT GLY A   2     -13.410  15.372  71.027  1.00  0.00    -0.485 OA 
ATOM     34  C   GLY A   2     -12.319  15.374  70.469  1.00  0.00    -0.408 C  
ATOM     35  O   GLY A   2     -11.188  15.177  71.173  1.00  0.00    -0.323 OA 
ENDBRANCH  30  32
ENDBRANCH  27  28
BRANCH  27  36
HETATM   36  N   UNK A   1      -7.545  15.759  67.523  1.00  0.00    -0.152 N  
HETATM   37  H   UNK A   1      -6.745  15.888  66.903  1.00  0.00     0.000 HD 
HETATM   38  O   UNK A   1      -8.278  15.867  69.691  1.00  0.00    -0.154 OA 
HETATM   39  C   UNK A   1      -7.357  15.869  68.881  1.00  0.00    -0.167 C  
BRANCH  39  40
HETATM   40  C   UNK A   1      -5.933  16.136  69.344  1.00  0.00    -0.152 C  
BRANCH  40  41
HETATM   41  C   UNK A   1      -5.596  17.582  69.755  1.00  0.00    -0.227 C  
BRANCH  41  42
HETATM   42  C   UNK A   1      -6.523  18.699  69.254  1.00  0.00    -0.270 C  
HETATM   43  N   UNK A   1      -6.431  18.892  67.782  1.00  0.00    -0.209 NA 
HETATM   44  C   UNK A   1      -6.139  20.015  69.905  1.00  0.00    -0.355 C  
HETATM   45  O   UNK A   1      -6.407  20.415  71.023  1.00  0.00    -0.559 OA 
HETATM   46  O   UNK A   1      -5.349  20.711  69.056  1.00  0.00    -0.257 OA 
HETATM   47  H2  UNK A   1      -6.605  18.019  67.285  1.00  0.00     0.000 HD 
HETATM   48  H1  UNK A   1      -7.047  19.634  67.449  1.00  0.00     0.000 HD 
ENDBRANCH  41  42
ENDBRANCH  40  41
ENDBRANCH  39  40
ENDBRANCH  27  36
ENDBRANCH  26  27
ENDBRANCH  25  26
ENDBRANCH  24  25
ENDBRANCH  23  24
ENDBRANCH  14  23
ENDBRANCH  11  14
ENDBRANCH   9  10
ENDBRANCH   8   9
ENDBRANCH   4   8
TORSDOF 17
ENDMDL
MODEL      158
REMARK 921   NORMALIZED FREE ENERGY PREDICTED BY IDOCK:   -4.54 KCAL/MOL
REMARK 922        TOTAL FREE ENERGY PREDICTED BY IDOCK:  -12.01 KCAL/MOL
REMARK 923 INTER-LIGAND FREE ENERGY PREDICTED BY IDOCK:  -10.63 KCAL/MOL
REMARK 924 INTRA-LIGAND FREE ENERGY PREDICTED BY IDOCK:   -1.39 KCAL/MOL
REMARK 927      BINDING AFFINITY PREDICTED BY RF-SCORE:    0.00 PKD
ROOT
HETATM    1  N   UNK A   1     -11.283   6.815  72.820  1.00  0.00    -0.376 NA 
HETATM    2  H1  UNK A   1     -11.654   6.838  73.770  1.00  0.00     0.000 HD 
HETATM    3  H2  UNK A   1     -11.904   7.308  72.178  1.00  0.00     0.000 HD 
HETATM    4  C   UNK A   1     -10.999   5.440  72.327  1.00  0.00    -0.216 C  
HETATM    5  O   UNK A   1      -9.346   3.788  73.082  1.00  0.00    -0.101 OA 
HETATM    6  C   UNK A   1     -10.074   4.734  73.334  1.00  0.00    -0.161 C  
HETATM    7  O   UNK A   1     -10.171   5.304  74.562  1.00  0.00    -0.239 OA 
ENDROOT
BRANCH   4   8
HETATM    8  C   UNK A   1     -10.442   5.405  70.902  1.00  0.00    -0.307 C  
BRANCH   8   9
HETATM    9  C   UNK A   1     -11.261   6.179  69.868  1.00  0.00    -0.484 C  
BRANCH   9  10
HETATM   10  C   UNK A   1     -10.571   7.483  69.539  1.00  0.00    -0.236 C  
HETATM   11  N   UNK A   1      -9.915   7.489  68.326  1.00  0.00    -0.167 N  
HETATM   12  O   UNK A   1     -10.565   8.436  70.312  1.00  0.00    -0.217 OA 
HETATM   13  H   UNK A   1      -9.901   6.651  67.746  1.00  0.00     0.000 HD 
BRANCH  11  14
HETATM   14  C   UNK A   1      -9.235   8.711  67.876  1.00  0.00    -0.139 C  
BRANCH  14  15
HETATM   15  C   UNK A   1      -9.021   8.624  66.351  1.00  0.00    -0.161 C  
ATOM     16  H   GLY A   2      -9.997  10.434  66.124  1.00  0.00     0.000 HD 
ATOM     17  N   GLY A   2      -9.504   9.693  65.628  1.00  0.00    -0.236 N  
HETATM   18  O   UNK A   1      -8.481   7.669  65.815  1.00  0.00    -0.135 OA 
BRANCH  17  19
ATOM     19  CA  GLY A   2      -9.340   9.807  64.190  1.00  0.00    -0.175 C  
ATOM     20  C   GLY A   2      -9.807  11.129  63.602  1.00  0.00    -0.345 C  
ATOM     21  O   GLY A   2     -10.784  11.768  64.313  1.00  0.00    -0.294 OA 
ATOM     22  OXT GLY A   2      -9.404  11.580  62.540  1.00  0.00    -0.274 OA 
ENDBRANCH  17  19
ENDBRANCH  14  15
BRANCH  14  23
HETATM   23  C   UNK A   1      -7.902   8.897  68.621  1.00  0.00    -0.102 C  
BRANCH  23  24
HETATM   24  S   UNK A   1      -7.595  10.556  69.305  1.00  0.00    -0.139 SA 
BRANCH  24  25
HETATM   25  S   UNK A   1      -7.834  11.748  67.655  1.00  0.00    -0.149 SA 
BRANCH  25  26
HETATM   26  C   UNK A   1      -8.648  13.225  68.360  1.00  0.00    -0.130 C  
BRANCH  26  27
HETATM   27  C   UNK A   1     -10.079  13.493  67.858  1.00  0.00    -0.248 C  
BRANCH  27  28
HETATM   28  C   UNK A   1     -11.033  12.336  68.279  1.00  0.00    -0.232 C  
ATOM     29  H   GLY A   2     -11.199  13.086  70.222  1.00  0.00     0.000 HD 
ATOM     30  N   GLY A   2     -11.525  12.374  69.568  1.00  0.00    -0.264 N  
HETATM   31  O   UNK A   1     -11.443  11.494  67.482  1.00  0.00    -0.379 OA 
BRANCH  30  32
ATOM     32  CA  GLY A   2     -12.512  11.388  69.990  1.00  0.00    -0.154 C  
ATOM     33  OXT GLY A   2     -13.375  10.394  72.047  1.00  0.00    -0.433 OA 
ATOM     34  C   GLY A   2     -12.950  11.382  71.461  1.00  0.00    -0.399 C  
ATOM     35  O   GLY A   2     -13.037  12.603  72.022  1.00  0.00    -0.411 OA 
ENDBRANCH  30  32
ENDBRANCH  27  28
BRANCH  27  36
HETATM   36  N   UNK A   1     -10.545  14.887  68.028  1.00  0.00    -0.245 N  
HETATM   37  H   UNK A   1     -11.225  15.094  68.758  1.00  0.00     0.000 HD 
HETATM   38  O   UNK A   1      -9.176  15.785  66.425  1.00  0.00    -0.256 OA 
HETATM   39  C   UNK A   1     -10.091  15.913  67.232  1.00  0.00    -0.260 C  
BRANCH  39  40
HETATM   40  C   UNK A   1     -10.692  17.285  67.495  1.00  0.00    -0.278 C  
BRANCH  40  41
HETATM   41  C   UNK A   1     -10.627  18.304  66.342  1.00  0.00    -0.318 C  
BRANCH  41  42
HETATM   42  C   UNK A   1     -10.614  19.795  66.708  1.00  0.00    -0.467 C  
HETATM   43  N   UNK A   1     -10.042  20.638  65.625  1.00  0.00    -0.344 NA 
HETATM   44  C   UNK A   1      -9.762  20.011  67.945  1.00  0.00    -0.390 C  
HETATM   45  O   UNK A   1     -10.053  19.817  69.111  1.00  0.00    -0.438 OA 
HETATM   46  O   UNK A   1      -8.527  20.410  67.563  1.00  0.00    -0.327 OA 
HETATM   47  H2  UNK A   1     -10.526  20.481  64.741  1.00  0.00     0.000 HD 
HETATM   48  H1  UNK A   1     -10.034  21.629  65.868  1.00  0.00     0.000 HD 
ENDBRANCH  41  42
ENDBRANCH  40  41
ENDBRANCH  39  40
ENDBRANCH  27  36
ENDBRANCH  26  27
ENDBRANCH  25  26
ENDBRANCH  24  25
ENDBRANCH  23  24
ENDBRANCH  14  23
ENDBRANCH  11  14
ENDBRANCH   9  10
ENDBRANCH   8   9
ENDBRANCH   4   8
TORSDOF 17
ENDMDL
MODEL      159
REMARK 921   NORMALIZED FREE ENERGY PREDICTED BY IDOCK:   -4.54 KCAL/MOL
REMARK 922        TOTAL FREE ENERGY PREDICTED BY IDOCK:  -12.01 KCAL/MOL
REMARK 923 INTER-LIGAND FREE ENERGY PREDICTED BY IDOCK:  -11.17 KCAL/MOL
REMARK 924 INTRA-LIGAND FREE ENERGY PREDICTED BY IDOCK:   -0.84 KCAL/MOL
REMARK 927      BINDING AFFINITY PREDICTED BY RF-SCORE:    0.00 PKD
ROOT
HETATM    1  N   UNK A   1     -13.370  15.682  70.705  1.00  0.00    -0.771 NA 
HETATM    2  H1  UNK A   1     -13.102  16.666  70.680  1.00  0.00     0.000 HD 
HETATM    3  H2  UNK A   1     -14.080  15.484  70.000  1.00  0.00     0.000 HD 
HETATM    4  C   UNK A   1     -13.817  15.222  72.047  1.00  0.00    -0.522 C  
HETATM    5  O   UNK A   1     -12.568  15.000  74.151  1.00  0.00    -0.526 OA 
HETATM    6  C   UNK A   1     -12.721  15.555  73.075  1.00  0.00    -0.454 C  
HETATM    7  O   UNK A   1     -11.930  16.564  72.629  1.00  0.00    -0.533 OA 
ENDROOT
BRANCH   4   8
HETATM    8  C   UNK A   1     -14.219  13.746  72.085  1.00  0.00    -0.544 C  
BRANCH   8   9
HETATM    9  C   UNK A   1     -13.058  12.764  72.253  1.00  0.00    -0.400 C  
BRANCH   9  10
HETATM   10  C   UNK A   1     -12.540  12.345  70.897  1.00  0.00    -0.246 C  
HETATM   11  N   UNK A   1     -11.641  13.227  70.335  1.00  0.00    -0.527 N  
HETATM   12  O   UNK A   1     -12.924  11.325  70.334  1.00  0.00    -0.101 OA 
HETATM   13  H   UNK A   1     -11.398  14.091  70.819  1.00  0.00     0.000 HD 
BRANCH  11  14
HETATM   14  C   UNK A   1     -11.037  12.915  69.032  1.00  0.00    -0.233 C  
BRANCH  14  15
HETATM   15  C   UNK A   1     -11.696  13.802  67.957  1.00  0.00    -0.355 C  
ATOM     16  H   GLY A   2     -11.765  12.177  66.677  1.00  0.00     0.000 HD 
ATOM     17  N   GLY A   2     -12.015  13.161  66.780  1.00  0.00    -0.388 N  
HETATM   18  O   UNK A   1     -11.904  14.994  68.123  1.00  0.00    -0.334 OA 
BRANCH  17  19
ATOM     19  CA  GLY A   2     -12.692  13.825  65.681  1.00  0.00    -0.478 C  
ATOM     20  C   GLY A   2     -11.943  13.785  64.358  1.00  0.00    -0.445 C  
ATOM     21  O   GLY A   2     -10.585  13.673  64.463  1.00  0.00    -0.417 OA 
ATOM     22  OXT GLY A   2     -12.483  13.909  63.269  1.00  0.00    -0.817 OA 
ENDBRANCH  17  19
ENDBRANCH  14  15
BRANCH  14  23
HETATM   23  C   UNK A   1     -11.196  11.420  68.704  1.00  0.00    -0.243 C  
BRANCH  23  24
HETATM   24  S   UNK A   1      -9.652  10.474  68.522  1.00  0.00    -0.170 SA 
BRANCH  24  25
HETATM   25  S   UNK A   1     -10.287   8.554  68.857  1.00  0.00    -0.191 SA 
BRANCH  25  26
HETATM   26  C   UNK A   1      -8.968   7.893  69.936  1.00  0.00    -0.146 C  
BRANCH  26  27
HETATM   27  C   UNK A   1      -8.672   6.391  69.772  1.00  0.00    -0.138 C  
BRANCH  27  28
HETATM   28  C   UNK A   1      -9.676   5.539  70.605  1.00  0.00    -0.176 C  
ATOM     29  H   GLY A   2      -9.533   6.838  72.235  1.00  0.00     0.000 HD 
ATOM     30  N   GLY A   2     -10.002   6.014  71.859  1.00  0.00    -0.168 N  
HETATM   31  O   UNK A   1     -10.258   4.561  70.139  1.00  0.00    -0.210 OA 
BRANCH  30  32
ATOM     32  CA  GLY A   2     -11.022   5.328  72.643  1.00  0.00    -0.260 C  
ATOM     33  OXT GLY A   2     -11.419   3.143  73.658  1.00  0.00    -0.208 OA 
ATOM     34  C   GLY A   2     -10.630   4.035  73.371  1.00  0.00    -0.195 C  
ATOM     35  O   GLY A   2      -9.380   4.034  73.872  1.00  0.00    -0.096 OA 
ENDBRANCH  30  32
ENDBRANCH  27  28
BRANCH  27  36
HETATM   36  N   UNK A   1      -8.369   5.967  68.387  1.00  0.00    -0.111 N  
HETATM   37  H   UNK A   1      -9.140   5.713  67.769  1.00  0.00     0.000 HD 
HETATM   38  O   UNK A   1      -6.110   6.318  68.526  1.00  0.00    -0.028 OA 
HETATM   39  C   UNK A   1      -7.083   5.903  67.906  1.00  0.00    -0.071 C  
BRANCH  39  40
HETATM   40  C   UNK A   1      -6.923   5.408  66.476  1.00  0.00    -0.064 C  
BRANCH  40  41
HETATM   41  C   UNK A   1      -7.983   5.871  65.459  1.00  0.00    -0.117 C  
BRANCH  41  42
HETATM   42  C   UNK A   1      -7.654   7.098  64.596  1.00  0.00    -0.106 C  
HETATM   43  N   UNK A   1      -6.191   7.263  64.383  1.00  0.00    -0.037 NA 
HETATM   44  C   UNK A   1      -8.153   8.356  65.281  1.00  0.00    -0.140 C  
HETATM   45  O   UNK A   1      -9.287   8.799  65.323  1.00  0.00    -0.122 OA 
HETATM   46  O   UNK A   1      -7.125   8.931  65.946  1.00  0.00    -0.082 OA 
HETATM   47  H2  UNK A   1      -5.778   6.416  63.992  1.00  0.00     0.000 HD 
HETATM   48  H1  UNK A   1      -5.972   8.077  63.809  1.00  0.00     0.000 HD 
ENDBRANCH  41  42
ENDBRANCH  40  41
ENDBRANCH  39  40
ENDBRANCH  27  36
ENDBRANCH  26  27
ENDBRANCH  25  26
ENDBRANCH  24  25
ENDBRANCH  23  24
ENDBRANCH  14  23
ENDBRANCH  11  14
ENDBRANCH   9  10
ENDBRANCH   8   9
ENDBRANCH   4   8
TORSDOF 17
ENDMDL
MODEL      160
REMARK 921   NORMALIZED FREE ENERGY PREDICTED BY IDOCK:   -4.53 KCAL/MOL
REMARK 922        TOTAL FREE ENERGY PREDICTED BY IDOCK:  -12.01 KCAL/MOL
REMARK 923 INTER-LIGAND FREE ENERGY PREDICTED BY IDOCK:  -10.66 KCAL/MOL
REMARK 924 INTRA-LIGAND FREE ENERGY PREDICTED BY IDOCK:   -1.35 KCAL/MOL
REMARK 927      BINDING AFFINITY PREDICTED BY RF-SCORE:    0.00 PKD
ROOT
HETATM    1  N   UNK A   1      -9.171  19.532  66.078  1.00  0.00    -0.419 NA 
HETATM    2  H1  UNK A   1      -8.672  19.925  65.280  1.00  0.00     0.000 HD 
HETATM    3  H2  UNK A   1     -10.120  19.903  66.129  1.00  0.00     0.000 HD 
HETATM    4  C   UNK A   1      -8.463  19.717  67.373  1.00  0.00    -0.314 C  
HETATM    5  O   UNK A   1      -6.332  18.790  68.169  1.00  0.00    -0.206 OA 
HETATM    6  C   UNK A   1      -7.037  19.156  67.241  1.00  0.00    -0.210 C  
HETATM    7  O   UNK A   1      -6.649  19.118  65.941  1.00  0.00    -0.210 OA 
ENDROOT
BRANCH   4   8
HETATM    8  C   UNK A   1      -9.212  19.126  68.569  1.00  0.00    -0.425 C  
BRANCH   8   9
HETATM    9  C   UNK A   1      -8.976  17.634  68.807  1.00  0.00    -0.207 C  
BRANCH   9  10
HETATM   10  C   UNK A   1     -10.194  16.848  68.382  1.00  0.00    -0.322 C  
HETATM   11  N   UNK A   1     -10.276  15.584  68.928  1.00  0.00    -0.202 N  
HETATM   12  O   UNK A   1     -11.015  17.291  67.583  1.00  0.00    -0.286 OA 
HETATM   13  H   UNK A   1      -9.538  15.242  69.541  1.00  0.00     0.000 HD 
BRANCH  11  14
HETATM   14  C   UNK A   1     -11.434  14.735  68.619  1.00  0.00    -0.302 C  
BRANCH  14  15
HETATM   15  C   UNK A   1     -12.229  14.491  69.918  1.00  0.00    -0.328 C  
ATOM     16  H   GLY A   2     -12.497  16.533  70.121  1.00  0.00     0.000 HD 
ATOM     17  N   GLY A   2     -12.719  15.624  70.528  1.00  0.00    -0.419 N  
HETATM   18  O   UNK A   1     -12.397  13.377  70.388  1.00  0.00    -0.336 OA 
BRANCH  17  19
ATOM     19  CA  GLY A   2     -13.538  15.581  71.727  1.00  0.00    -0.482 C  
ATOM     20  C   GLY A   2     -12.805  15.942  73.009  1.00  0.00    -0.513 C  
ATOM     21  O   GLY A   2     -11.459  15.706  72.994  1.00  0.00    -0.328 OA 
ATOM     22  OXT GLY A   2     -13.362  16.352  74.016  1.00  0.00    -0.572 OA 
ENDBRANCH  17  19
ENDBRANCH  14  15
BRANCH  14  23
HETATM   23  C   UNK A   1     -10.981  13.410  67.980  1.00  0.00    -0.244 C  
BRANCH  23  24
HETATM   24  S   UNK A   1      -9.579  12.574  68.786  1.00  0.00     0.196 SA 
BRANCH  24  25
HETATM   25  S   UNK A   1     -10.490  10.951  69.647  1.00  0.00     0.005 SA 
BRANCH  25  26
HETATM   26  C   UNK A   1     -10.715   9.832  68.220  1.00  0.00    -0.233 C  
BRANCH  26  27
HETATM   27  C   UNK A   1      -9.458   9.596  67.362  1.00  0.00    -0.142 C  
BRANCH  27  28
HETATM   28  C   UNK A   1      -8.924   8.146  67.558  1.00  0.00    -0.137 C  
ATOM     29  H   GLY A   2     -10.575   7.330  66.572  1.00  0.00     0.000 HD 
ATOM     30  N   GLY A   2      -9.675   7.127  67.007  1.00  0.00    -0.159 N  
HETATM   31  O   UNK A   1      -7.827   7.908  68.061  1.00  0.00    -0.121 OA 
BRANCH  30  32
ATOM     32  CA  GLY A   2      -9.173   5.760  67.053  1.00  0.00    -0.118 C  
ATOM     33  OXT GLY A   2     -10.010   3.473  66.855  1.00  0.00     0.006 OA 
ATOM     34  C   GLY A   2     -10.063   4.642  66.490  1.00  0.00    -0.250 C  
ATOM     35  O   GLY A   2     -10.773   4.989  65.400  1.00  0.00    -0.005 OA 
ENDBRANCH  30  32
ENDBRANCH  27  28
BRANCH  27  36
HETATM   36  N   UNK A   1      -9.535  10.138  65.988  1.00  0.00    -0.184 N  
HETATM   37  H   UNK A   1     -10.449  10.233  65.545  1.00  0.00     0.000 HD 
HETATM   38  O   UNK A   1      -7.295  10.572  65.784  1.00  0.00    -0.142 OA 
HETATM   39  C   UNK A   1      -8.414  10.519  65.287  1.00  0.00    -0.171 C  
BRANCH  39  40
HETATM   40  C   UNK A   1      -8.645  11.018  63.868  1.00  0.00     0.144 C  
BRANCH  40  41
HETATM   41  C   UNK A   1     -10.101  11.030  63.365  1.00  0.00    -0.424 C  
BRANCH  41  42
HETATM   42  C   UNK A   1     -10.839  12.377  63.353  1.00  0.00    -0.367 C  
HETATM   43  N   UNK A   1     -10.118  13.423  64.126  1.00  0.00    -0.779 NA 
HETATM   44  C   UNK A   1     -12.210  12.215  63.983  1.00  0.00    -0.446 C  
HETATM   45  O   UNK A   1     -13.224  11.755  63.489  1.00  0.00    -0.585 OA 
HETATM   46  O   UNK A   1     -12.149  12.611  65.275  1.00  0.00    -0.421 OA 
HETATM   47  H2  UNK A   1      -9.158  13.527  63.799  1.00  0.00     0.000 HD 
HETATM   48  H1  UNK A   1     -10.609  14.318  64.118  1.00  0.00     0.000 HD 
ENDBRANCH  41  42
ENDBRANCH  40  41
ENDBRANCH  39  40
ENDBRANCH  27  36
ENDBRANCH  26  27
ENDBRANCH  25  26
ENDBRANCH  24  25
ENDBRANCH  23  24
ENDBRANCH  14  23
ENDBRANCH  11  14
ENDBRANCH   9  10
ENDBRANCH   8   9
ENDBRANCH   4   8
TORSDOF 17
ENDMDL
MODEL      161
REMARK 921   NORMALIZED FREE ENERGY PREDICTED BY IDOCK:   -4.52 KCAL/MOL
REMARK 922        TOTAL FREE ENERGY PREDICTED BY IDOCK:  -11.97 KCAL/MOL
REMARK 923 INTER-LIGAND FREE ENERGY PREDICTED BY IDOCK:  -10.36 KCAL/MOL
REMARK 924 INTRA-LIGAND FREE ENERGY PREDICTED BY IDOCK:   -1.61 KCAL/MOL
REMARK 927      BINDING AFFINITY PREDICTED BY RF-SCORE:    0.00 PKD
ROOT
HETATM    1  N   UNK A   1      -6.813  18.746  65.364  1.00  0.00    -0.501 NA 
HETATM    2  H1  UNK A   1      -6.197  19.549  65.240  1.00  0.00     0.000 HD 
HETATM    3  H2  UNK A   1      -7.060  18.337  64.462  1.00  0.00     0.000 HD 
HETATM    4  C   UNK A   1      -8.035  19.050  66.157  1.00  0.00    -0.255 C  
HETATM    5  O   UNK A   1      -8.284  19.686  68.516  1.00  0.00    -0.336 OA 
HETATM    6  C   UNK A   1      -7.611  19.675  67.497  1.00  0.00    -0.264 C  
HETATM    7  O   UNK A   1      -6.374  20.226  67.406  1.00  0.00    -0.194 OA 
ENDROOT
BRANCH   4   8
HETATM    8  C   UNK A   1      -8.958  17.845  66.343  1.00  0.00    -0.247 C  
BRANCH   8   9
HETATM    9  C   UNK A   1     -10.386  18.039  65.830  1.00  0.00    -0.274 C  
BRANCH   9  10
HETATM   10  C   UNK A   1     -10.916  16.734  65.283  1.00  0.00    -0.078 C  
HETATM   11  N   UNK A   1     -10.722  15.649  66.112  1.00  0.00    -0.314 N  
HETATM   12  O   UNK A   1     -11.436  16.650  64.175  1.00  0.00    -1.131 OA 
HETATM   13  H   UNK A   1     -10.232  15.761  66.999  1.00  0.00     0.000 HD 
BRANCH  11  14
HETATM   14  C   UNK A   1     -11.225  14.329  65.708  1.00  0.00    -0.317 C  
BRANCH  14  15
HETATM   15  C   UNK A   1     -11.752  13.596  66.959  1.00  0.00    -0.384 C  
ATOM     16  H   GLY A   2     -11.090  15.162  68.139  1.00  0.00     0.000 HD 
ATOM     17  N   GLY A   2     -11.579  14.268  68.149  1.00  0.00    -0.313 N  
HETATM   18  O   UNK A   1     -12.267  12.491  66.907  1.00  0.00    -0.511 OA 
BRANCH  17  19
ATOM     19  CA  GLY A   2     -12.065  13.756  69.419  1.00  0.00    -0.328 C  
ATOM     20  C   GLY A   2     -12.588  14.818  70.372  1.00  0.00    -0.346 C  
ATOM     21  O   GLY A   2     -12.049  16.063  70.206  1.00  0.00    -0.318 OA 
ATOM     22  OXT GLY A   2     -13.381  14.589  71.273  1.00  0.00    -0.346 OA 
ENDBRANCH  17  19
ENDBRANCH  14  15
BRANCH  14  23
HETATM   23  C   UNK A   1     -10.123  13.519  65.004  1.00  0.00    -0.256 C  
BRANCH  23  24
HETATM   24  S   UNK A   1     -10.689  12.290  63.786  1.00  0.00    -0.476 SA 
BRANCH  24  25
HETATM   25  S   UNK A   1      -9.490  10.683  64.214  1.00  0.00    -0.299 SA 
BRANCH  25  26
HETATM   26  C   UNK A   1     -10.122  10.153  65.845  1.00  0.00    -0.254 C  
BRANCH  26  27
HETATM   27  C   UNK A   1      -9.339   9.010  66.516  1.00  0.00    -0.191 C  
BRANCH  27  28
HETATM   28  C   UNK A   1      -9.854   8.768  67.966  1.00  0.00    -0.169 C  
ATOM     29  H   GLY A   2      -8.764  10.393  68.698  1.00  0.00     0.000 HD 
ATOM     30  N   GLY A   2      -9.440   9.666  68.930  1.00  0.00    -0.153 N  
HETATM   31  O   UNK A   1     -10.687   7.906  68.237  1.00  0.00    -0.147 OA 
BRANCH  30  32
ATOM     32  CA  GLY A   2      -9.977   9.567  70.282  1.00  0.00    -0.259 C  
ATOM     33  OXT GLY A   2      -9.512   8.401  72.377  1.00  0.00    -0.252 OA 
ATOM     34  C   GLY A   2      -9.085   8.959  71.373  1.00  0.00    -0.248 C  
ATOM     35  O   GLY A   2      -7.779   9.267  71.262  1.00  0.00    -0.314 OA 
ENDBRANCH  30  32
ENDBRANCH  27  28
BRANCH  27  36
HETATM   36  N   UNK A   1      -9.095   7.834  65.652  1.00  0.00    -0.388 N  
HETATM   37  H   UNK A   1      -9.891   7.283  65.331  1.00  0.00     0.000 HD 
HETATM   38  O   UNK A   1      -6.830   8.135  65.485  1.00  0.00    -0.061 OA 
HETATM   39  C   UNK A   1      -7.829   7.459  65.265  1.00  0.00    -0.121 C  
BRANCH  39  40
HETATM   40  C   UNK A   1      -7.731   6.204  64.411  1.00  0.00    -0.106 C  
BRANCH  40  41
HETATM   41  C   UNK A   1      -7.682   4.858  65.159  1.00  0.00    -0.082 C  
BRANCH  41  42
HETATM   42  C   UNK A   1      -6.301   4.248  65.439  1.00  0.00    -0.032 C  
HETATM   43  N   UNK A   1      -5.342   4.486  64.326  1.00  0.00    -0.012 NA 
HETATM   44  C   UNK A   1      -6.428   2.746  65.609  1.00  0.00    -0.028 C  
HETATM   45  O   UNK A   1      -6.804   2.121  66.585  1.00  0.00    -0.041 OA 
HETATM   46  O   UNK A   1      -6.117   2.143  64.439  1.00  0.00    -0.016 OA 
HETATM   47  H2  UNK A   1      -5.269   5.480  64.110  1.00  0.00     0.000 HD 
HETATM   48  H1  UNK A   1      -4.425   4.081  64.512  1.00  0.00     0.000 HD 
ENDBRANCH  41  42
ENDBRANCH  40  41
ENDBRANCH  39  40
ENDBRANCH  27  36
ENDBRANCH  26  27
ENDBRANCH  25  26
ENDBRANCH  24  25
ENDBRANCH  23  24
ENDBRANCH  14  23
ENDBRANCH  11  14
ENDBRANCH   9  10
ENDBRANCH   8   9
ENDBRANCH   4   8
TORSDOF 17
ENDMDL
MODEL      162
REMARK 921   NORMALIZED FREE ENERGY PREDICTED BY IDOCK:   -4.51 KCAL/MOL
REMARK 922        TOTAL FREE ENERGY PREDICTED BY IDOCK:  -11.96 KCAL/MOL
REMARK 923 INTER-LIGAND FREE ENERGY PREDICTED BY IDOCK:  -11.87 KCAL/MOL
REMARK 924 INTRA-LIGAND FREE ENERGY PREDICTED BY IDOCK:   -0.09 KCAL/MOL
REMARK 927      BINDING AFFINITY PREDICTED BY RF-SCORE:    0.00 PKD
ROOT
HETATM    1  N   UNK A   1     -13.547  15.793  70.664  1.00  0.00    -0.700 NA 
HETATM    2  H1  UNK A   1     -13.264  16.772  70.629  1.00  0.00     0.000 HD 
HETATM    3  H2  UNK A   1     -14.336  15.623  70.039  1.00  0.00     0.000 HD 
HETATM    4  C   UNK A   1     -13.850  15.311  72.038  1.00  0.00    -0.522 C  
HETATM    5  O   UNK A   1     -12.379  15.021  73.984  1.00  0.00    -0.574 OA 
HETATM    6  C   UNK A   1     -12.640  15.602  72.942  1.00  0.00    -0.446 C  
HETATM    7  O   UNK A   1     -11.884  16.607  72.432  1.00  0.00    -0.491 OA 
ENDROOT
BRANCH   4   8
HETATM    8  C   UNK A   1     -14.274  13.841  72.091  1.00  0.00    -0.544 C  
BRANCH   8   9
HETATM    9  C   UNK A   1     -13.127  12.843  72.253  1.00  0.00    -0.421 C  
BRANCH   9  10
HETATM   10  C   UNK A   1     -12.580  12.466  70.895  1.00  0.00    -0.246 C  
HETATM   11  N   UNK A   1     -11.723  13.398  70.348  1.00  0.00    -0.541 N  
HETATM   12  O   UNK A   1     -12.909  11.434  70.318  1.00  0.00    -0.093 OA 
HETATM   13  H   UNK A   1     -11.527  14.267  70.843  1.00  0.00     0.000 HD 
BRANCH  11  14
HETATM   14  C   UNK A   1     -11.097  13.131  69.046  1.00  0.00    -0.234 C  
BRANCH  14  15
HETATM   15  C   UNK A   1     -11.835  13.947  67.966  1.00  0.00    -0.375 C  
ATOM     16  H   GLY A   2     -11.799  12.299  66.715  1.00  0.00     0.000 HD 
ATOM     17  N   GLY A   2     -12.121  13.262  66.805  1.00  0.00    -0.373 N  
HETATM   18  O   UNK A   1     -12.130  15.123  68.115  1.00  0.00    -0.205 OA 
BRANCH  17  19
ATOM     19  CA  GLY A   2     -12.861  13.854  65.705  1.00  0.00    -0.424 C  
ATOM     20  C   GLY A   2     -12.095  13.932  64.395  1.00  0.00    -0.443 C  
ATOM     21  O   GLY A   2     -10.735  13.991  64.520  1.00  0.00    -0.409 OA 
ATOM     22  OXT GLY A   2     -12.630  14.005  63.298  1.00  0.00    -0.801 OA 
ENDBRANCH  17  19
ENDBRANCH  14  15
BRANCH  14  23
HETATM   23  C   UNK A   1     -11.122  11.626  68.730  1.00  0.00    -0.230 C  
BRANCH  23  24
HETATM   24  S   UNK A   1      -9.498  10.817  68.568  1.00  0.00    -0.187 SA 
BRANCH  24  25
HETATM   25  S   UNK A   1      -9.996   8.833  68.702  1.00  0.00    -0.187 SA 
BRANCH  25  26
HETATM   26  C   UNK A   1      -8.553   8.131  69.578  1.00  0.00    -0.134 C  
BRANCH  26  27
HETATM   27  C   UNK A   1      -8.363   6.611  69.423  1.00  0.00    -0.128 C  
BRANCH  27  28
HETATM   28  C   UNK A   1      -9.256   5.840  70.440  1.00  0.00    -0.153 C  
ATOM     29  H   GLY A   2     -10.434   7.528  70.794  1.00  0.00     0.000 HD 
ATOM     30  N   GLY A   2     -10.313   6.535  70.992  1.00  0.00    -0.203 N  
HETATM   31  O   UNK A   1      -9.122   4.636  70.657  1.00  0.00    -0.118 OA 
BRANCH  30  32
ATOM     32  CA  GLY A   2     -11.255   5.840  71.860  1.00  0.00    -0.227 C  
ATOM     33  OXT GLY A   2     -11.276   4.654  73.995  1.00  0.00    -0.265 OA 
ATOM     34  C   GLY A   2     -10.842   5.575  73.314  1.00  0.00    -0.293 C  
ATOM     35  O   GLY A   2     -10.115   6.560  73.876  1.00  0.00    -0.242 OA 
ENDBRANCH  30  32
ENDBRANCH  27  28
BRANCH  27  36
HETATM   36  N   UNK A   1      -8.315   6.132  68.024  1.00  0.00    -0.117 N  
HETATM   37  H   UNK A   1      -9.174   5.798  67.587  1.00  0.00     0.000 HD 
HETATM   38  O   UNK A   1      -6.105   6.630  67.685  1.00  0.00    -0.028 OA 
HETATM   39  C   UNK A   1      -7.150   6.122  67.293  1.00  0.00    -0.070 C  
BRANCH  39  40
HETATM   40  C   UNK A   1      -7.245   5.561  65.883  1.00  0.00    -0.072 C  
BRANCH  40  41
HETATM   41  C   UNK A   1      -8.578   5.774  65.140  1.00  0.00    -0.110 C  
BRANCH  41  42
HETATM   42  C   UNK A   1      -9.543   4.582  65.053  1.00  0.00    -0.142 C  
HETATM   43  N   UNK A   1     -10.935   4.954  65.422  1.00  0.00    -0.749 NA 
HETATM   44  C   UNK A   1      -9.099   3.492  66.011  1.00  0.00    -0.155 C  
HETATM   45  O   UNK A   1      -8.211   2.671  65.867  1.00  0.00    -0.083 OA 
HETATM   46  O   UNK A   1      -9.814   3.593  67.153  1.00  0.00    -0.140 OA 
HETATM   47  H2  UNK A   1     -11.268   5.738  64.862  1.00  0.00     0.000 HD 
HETATM   48  H1  UNK A   1     -11.576   4.162  65.365  1.00  0.00     0.000 HD 
ENDBRANCH  41  42
ENDBRANCH  40  41
ENDBRANCH  39  40
ENDBRANCH  27  36
ENDBRANCH  26  27
ENDBRANCH  25  26
ENDBRANCH  24  25
ENDBRANCH  23  24
ENDBRANCH  14  23
ENDBRANCH  11  14
ENDBRANCH   9  10
ENDBRANCH   8   9
ENDBRANCH   4   8
TORSDOF 17
ENDMDL
MODEL      163
REMARK 921   NORMALIZED FREE ENERGY PREDICTED BY IDOCK:   -4.50 KCAL/MOL
REMARK 922        TOTAL FREE ENERGY PREDICTED BY IDOCK:  -11.94 KCAL/MOL
REMARK 923 INTER-LIGAND FREE ENERGY PREDICTED BY IDOCK:  -11.81 KCAL/MOL
REMARK 924 INTRA-LIGAND FREE ENERGY PREDICTED BY IDOCK:   -0.13 KCAL/MOL
REMARK 927      BINDING AFFINITY PREDICTED BY RF-SCORE:    0.00 PKD
ROOT
HETATM    1  N   UNK A   1     -10.812  17.784  65.179  1.00  0.00    -0.653 NA 
HETATM    2  H1  UNK A   1     -11.350  18.377  64.548  1.00  0.00     0.000 HD 
HETATM    3  H2  UNK A   1     -11.150  16.822  65.146  1.00  0.00     0.000 HD 
HETATM    4  C   UNK A   1     -10.778  18.282  66.581  1.00  0.00    -0.191 C  
HETATM    5  O   UNK A   1      -9.766  20.312  67.524  1.00  0.00    -0.393 OA 
HETATM    6  C   UNK A   1     -10.277  19.737  66.576  1.00  0.00    -0.492 C  
HETATM    7  O   UNK A   1     -10.478  20.315  65.364  1.00  0.00    -0.285 OA 
ENDROOT
BRANCH   4   8
HETATM    8  C   UNK A   1      -9.970  17.392  67.527  1.00  0.00    -0.298 C  
BRANCH   8   9
HETATM    9  C   UNK A   1     -10.500  15.966  67.683  1.00  0.00    -0.289 C  
BRANCH   9  10
HETATM   10  C   UNK A   1      -9.420  14.975  67.316  1.00  0.00    -0.208 C  
HETATM   11  N   UNK A   1      -9.665  13.684  67.735  1.00  0.00    -0.218 N  
HETATM   12  O   UNK A   1      -8.395  15.309  66.729  1.00  0.00    -0.234 OA 
HETATM   13  H   UNK A   1     -10.506  13.470  68.271  1.00  0.00     0.000 HD 
BRANCH  11  14
HETATM   14  C   UNK A   1      -8.706  12.621  67.407  1.00  0.00    -0.191 C  
BRANCH  14  15
HETATM   15  C   UNK A   1      -9.236  11.836  66.190  1.00  0.00    -0.210 C  
ATOM     16  H   GLY A   2     -11.112  12.655  66.494  1.00  0.00     0.000 HD 
ATOM     17  N   GLY A   2     -10.563  12.046  65.887  1.00  0.00    -0.256 N  
HETATM   18  O   UNK A   1      -8.538  11.066  65.548  1.00  0.00    -0.173 OA 
BRANCH  17  19
ATOM     19  CA  GLY A   2     -11.215  11.436  64.742  1.00  0.00    -0.127 C  
ATOM     20  C   GLY A   2     -12.440  12.182  64.238  1.00  0.00    -0.363 C  
ATOM     21  O   GLY A   2     -13.091  12.931  65.178  1.00  0.00    -0.753 OA 
ATOM     22  OXT GLY A   2     -12.873  12.085  63.099  1.00  0.00    -0.661 OA 
ENDBRANCH  17  19
ENDBRANCH  14  15
BRANCH  14  23
HETATM   23  C   UNK A   1      -8.483  11.698  68.618  1.00  0.00    -0.094 C  
BRANCH  23  24
HETATM   24  S   UNK A   1      -8.439   9.912  68.262  1.00  0.00    -0.111 SA 
BRANCH  24  25
HETATM   25  S   UNK A   1     -10.430   9.425  68.281  1.00  0.00    -0.205 SA 
BRANCH  25  26
HETATM   26  C   UNK A   1     -10.503   8.051  67.078  1.00  0.00    -0.340 C  
BRANCH  26  27
HETATM   27  C   UNK A   1     -10.872   6.677  67.667  1.00  0.00    -0.315 C  
BRANCH  27  28
HETATM   28  C   UNK A   1      -9.748   5.638  67.383  1.00  0.00    -0.127 C  
ATOM     29  H   GLY A   2     -11.133   4.207  66.754  1.00  0.00     0.000 HD 
ATOM     30  N   GLY A   2     -10.142   4.422  66.860  1.00  0.00    -0.180 N  
HETATM   31  O   UNK A   1      -8.553   5.910  67.490  1.00  0.00    -0.105 OA 
BRANCH  30  32
ATOM     32  CA  GLY A   2      -9.132   3.449  66.463  1.00  0.00    -0.161 C  
ATOM     33  OXT GLY A   2      -7.419   2.038  67.483  1.00  0.00    -0.054 OA 
ATOM     34  C   GLY A   2      -8.534   2.541  67.547  1.00  0.00    -0.094 C  
ATOM     35  O   GLY A   2      -9.410   2.152  68.493  1.00  0.00    -0.164 OA 
ENDBRANCH  30  32
ENDBRANCH  27  28
BRANCH  27  36
HETATM   36  N   UNK A   1     -11.462   6.722  69.023  1.00  0.00    -0.582 N  
HETATM   37  H   UNK A   1     -12.280   7.310  69.186  1.00  0.00     0.000 HD 
HETATM   38  O   UNK A   1     -10.056   5.164  69.939  1.00  0.00    -0.228 OA 
HETATM   39  C   UNK A   1     -10.945   5.998  70.071  1.00  0.00    -0.380 C  
BRANCH  39  40
HETATM   40  C   UNK A   1     -11.631   6.178  71.417  1.00  0.00    -0.283 C  
BRANCH  40  41
HETATM   41  C   UNK A   1     -12.779   7.203  71.479  1.00  0.00    -0.433 C  
BRANCH  41  42
HETATM   42  C   UNK A   1     -12.577   8.448  72.354  1.00  0.00    -0.316 C  
HETATM   43  N   UNK A   1     -13.767   9.339  72.352  1.00  0.00    -0.601 NA 
HETATM   44  C   UNK A   1     -11.407   9.259  71.827  1.00  0.00    -0.367 C  
HETATM   45  O   UNK A   1     -10.215   9.063  71.984  1.00  0.00    -0.339 OA 
HETATM   46  O   UNK A   1     -11.881  10.260  71.050  1.00  0.00    -0.336 OA 
HETATM   47  H2  UNK A   1     -14.608   8.831  72.626  1.00  0.00     0.000 HD 
HETATM   48  H1  UNK A   1     -13.633  10.167  72.933  1.00  0.00     0.000 HD 
ENDBRANCH  41  42
ENDBRANCH  40  41
ENDBRANCH  39  40
ENDBRANCH  27  36
ENDBRANCH  26  27
ENDBRANCH  25  26
ENDBRANCH  24  25
ENDBRANCH  23  24
ENDBRANCH  14  23
ENDBRANCH  11  14
ENDBRANCH   9  10
ENDBRANCH   8   9
ENDBRANCH   4   8
TORSDOF 17
ENDMDL
MODEL      164
REMARK 921   NORMALIZED FREE ENERGY PREDICTED BY IDOCK:   -4.50 KCAL/MOL
REMARK 922        TOTAL FREE ENERGY PREDICTED BY IDOCK:  -11.94 KCAL/MOL
REMARK 923 INTER-LIGAND FREE ENERGY PREDICTED BY IDOCK:  -10.01 KCAL/MOL
REMARK 924 INTRA-LIGAND FREE ENERGY PREDICTED BY IDOCK:   -1.93 KCAL/MOL
REMARK 927      BINDING AFFINITY PREDICTED BY RF-SCORE:    0.00 PKD
ROOT
HETATM    1  N   UNK A   1     -13.390  10.209  70.791  1.00  0.00    -0.518 NA 
HETATM    2  H1  UNK A   1     -14.273   9.758  71.032  1.00  0.00     0.000 HD 
HETATM    3  H2  UNK A   1     -13.450  10.653  69.875  1.00  0.00     0.000 HD 
HETATM    4  C   UNK A   1     -12.219   9.294  70.857  1.00  0.00    -0.201 C  
HETATM    5  O   UNK A   1     -11.190   8.163  72.780  1.00  0.00    -0.389 OA 
HETATM    6  C   UNK A   1     -12.180   8.640  72.250  1.00  0.00    -0.378 C  
HETATM    7  O   UNK A   1     -13.409   8.657  72.827  1.00  0.00    -0.296 OA 
ENDROOT
BRANCH   4   8
HETATM    8  C   UNK A   1     -10.894   9.970  70.496  1.00  0.00    -0.380 C  
BRANCH   8   9
HETATM    9  C   UNK A   1     -10.962  10.930  69.307  1.00  0.00    -0.295 C  
BRANCH   9  10
HETATM   10  C   UNK A   1      -9.625  10.969  68.604  1.00  0.00    -0.195 C  
HETATM   11  N   UNK A   1      -8.539  11.042  69.449  1.00  0.00    -0.379 N  
HETATM   12  O   UNK A   1      -9.527  10.977  67.380  1.00  0.00    -0.159 OA 
HETATM   13  H   UNK A   1      -8.676  11.092  70.458  1.00  0.00     0.000 HD 
BRANCH  11  14
HETATM   14  C   UNK A   1      -7.181  11.050  68.887  1.00  0.00    -0.103 C  
BRANCH  14  15
HETATM   15  C   UNK A   1      -6.566   9.647  69.063  1.00  0.00    -0.049 C  
ATOM     16  H   GLY A   2      -8.461   8.864  69.341  1.00  0.00     0.000 HD 
ATOM     17  N   GLY A   2      -7.471   8.630  69.273  1.00  0.00    -0.080 N  
HETATM   18  O   UNK A   1      -5.361   9.448  69.039  1.00  0.00    -0.037 OA 
BRANCH  17  19
ATOM     19  CA  GLY A   2      -7.076   7.238  69.402  1.00  0.00    -0.074 C  
ATOM     20  C   GLY A   2      -7.833   6.278  68.499  1.00  0.00    -0.105 C  
ATOM     21  O   GLY A   2      -9.087   6.686  68.140  1.00  0.00    -0.121 OA 
ATOM     22  OXT GLY A   2      -7.404   5.186  68.158  1.00  0.00    -0.072 OA 
ENDBRANCH  17  19
ENDBRANCH  14  15
BRANCH  14  23
HETATM   23  C   UNK A   1      -6.319  12.130  69.563  1.00  0.00    -0.122 C  
BRANCH  23  24
HETATM   24  S   UNK A   1      -5.796  13.513  68.500  1.00  0.00    -0.099 SA 
BRANCH  24  25
HETATM   25  S   UNK A   1      -7.590  14.217  67.802  1.00  0.00    -0.182 SA 
BRANCH  25  26
HETATM   26  C   UNK A   1      -7.915  15.624  68.922  1.00  0.00    -0.193 C  
BRANCH  26  27
HETATM   27  C   UNK A   1      -8.413  16.911  68.237  1.00  0.00    -0.229 C  
BRANCH  27  28
HETATM   28  C   UNK A   1      -7.354  18.046  68.367  1.00  0.00    -0.261 C  
ATOM     29  H   GLY A   2      -6.712  17.331  70.221  1.00  0.00     0.000 HD 
ATOM     30  N   GLY A   2      -6.548  18.019  69.487  1.00  0.00    -0.194 N  
HETATM   31  O   UNK A   1      -7.144  18.859  67.468  1.00  0.00    -0.206 OA 
BRANCH  30  32
ATOM     32  CA  GLY A   2      -5.462  18.983  69.613  1.00  0.00    -0.207 C  
ATOM     33  OXT GLY A   2      -5.137  21.353  70.109  1.00  0.00    -0.535 OA 
ATOM     34  C   GLY A   2      -5.751  20.314  70.322  1.00  0.00    -0.336 C  
ATOM     35  O   GLY A   2      -6.599  20.218  71.364  1.00  0.00    -0.410 OA 
ENDBRANCH  30  32
ENDBRANCH  27  28
BRANCH  27  36
HETATM   36  N   UNK A   1      -9.064  16.702  66.925  1.00  0.00    -0.218 N  
HETATM   37  H   UNK A   1      -8.626  16.074  66.251  1.00  0.00     0.000 HD 
HETATM   38  O   UNK A   1     -10.906  17.988  67.374  1.00  0.00    -0.356 OA 
HETATM   39  C   UNK A   1     -10.240  17.328  66.584  1.00  0.00    -0.319 C  
BRANCH  39  40
HETATM   40  C   UNK A   1     -10.768  17.051  65.184  1.00  0.00    -0.066 C  
BRANCH  40  41
HETATM   41  C   UNK A   1     -11.355  15.650  64.929  1.00  0.00    -0.319 C  
BRANCH  41  42
HETATM   42  C   UNK A   1     -10.489  14.437  65.297  1.00  0.00    -0.390 C  
HETATM   43  N   UNK A   1     -10.445  13.423  64.210  1.00  0.00    -0.570 NA 
HETATM   44  C   UNK A   1     -11.059  13.754  66.527  1.00  0.00    -0.306 C  
HETATM   45  O   UNK A   1     -10.948  14.078  67.696  1.00  0.00    -0.262 OA 
HETATM   46  O   UNK A   1     -11.818  12.705  66.135  1.00  0.00    -0.394 OA 
HETATM   47  H2  UNK A   1     -10.141  13.839  63.331  1.00  0.00     0.000 HD 
HETATM   48  H1  UNK A   1      -9.870  12.617  64.455  1.00  0.00     0.000 HD 
ENDBRANCH  41  42
ENDBRANCH  40  41
ENDBRANCH  39  40
ENDBRANCH  27  36
ENDBRANCH  26  27
ENDBRANCH  25  26
ENDBRANCH  24  25
ENDBRANCH  23  24
ENDBRANCH  14  23
ENDBRANCH  11  14
ENDBRANCH   9  10
ENDBRANCH   8   9
ENDBRANCH   4   8
TORSDOF 17
ENDMDL
MODEL      165
REMARK 921   NORMALIZED FREE ENERGY PREDICTED BY IDOCK:   -4.47 KCAL/MOL
REMARK 922        TOTAL FREE ENERGY PREDICTED BY IDOCK:  -11.88 KCAL/MOL
REMARK 923 INTER-LIGAND FREE ENERGY PREDICTED BY IDOCK:   -9.63 KCAL/MOL
REMARK 924 INTRA-LIGAND FREE ENERGY PREDICTED BY IDOCK:   -2.25 KCAL/MOL
REMARK 927      BINDING AFFINITY PREDICTED BY RF-SCORE:    0.00 PKD
ROOT
HETATM    1  N   UNK A   1      -9.780  10.088  63.290  1.00  0.00    -0.525 NA 
HETATM    2  H1  UNK A   1      -9.355   9.926  62.377  1.00  0.00     0.000 HD 
HETATM    3  H2  UNK A   1     -10.518  10.790  63.225  1.00  0.00     0.000 HD 
HETATM    4  C   UNK A   1      -8.799  10.454  64.347  1.00  0.00    -0.206 C  
HETATM    5  O   UNK A   1      -6.985   9.141  65.356  1.00  0.00    -0.079 OA 
HETATM    6  C   UNK A   1      -7.702   9.376  64.397  1.00  0.00    -0.119 C  
HETATM    7  O   UNK A   1      -7.627   8.706  63.219  1.00  0.00    -0.106 OA 
ENDROOT
BRANCH   4   8
HETATM    8  C   UNK A   1      -9.438  10.696  65.716  1.00  0.00    -0.244 C  
BRANCH   8   9
HETATM    9  C   UNK A   1     -10.250   9.524  66.268  1.00  0.00    -0.290 C  
BRANCH   9  10
HETATM   10  C   UNK A   1      -9.903   9.299  67.721  1.00  0.00    -0.171 C  
HETATM   11  N   UNK A   1      -8.783   8.521  67.925  1.00  0.00    -0.137 N  
HETATM   12  O   UNK A   1     -10.592   9.740  68.637  1.00  0.00    -0.208 OA 
HETATM   13  H   UNK A   1      -8.278   8.130  67.130  1.00  0.00     0.000 HD 
BRANCH  11  14
HETATM   14  C   UNK A   1      -8.321   8.260  69.295  1.00  0.00    -0.122 C  
BRANCH  14  15
HETATM   15  C   UNK A   1      -9.330   7.320  69.986  1.00  0.00    -0.154 C  
ATOM     16  H   GLY A   2      -9.398   8.605  71.606  1.00  0.00     0.000 HD 
ATOM     17  N   GLY A   2      -9.780   7.743  71.217  1.00  0.00    -0.157 N  
HETATM   18  O   UNK A   1      -9.693   6.264  69.490  1.00  0.00    -0.145 OA 
BRANCH  17  19
ATOM     19  CA  GLY A   2     -10.775   7.014  71.984  1.00  0.00    -0.215 C  
ATOM     20  C   GLY A   2     -12.215   7.364  71.647  1.00  0.00    -0.330 C  
ATOM     21  O   GLY A   2     -12.406   8.623  71.149  1.00  0.00    -0.288 OA 
ATOM     22  OXT GLY A   2     -13.161   6.620  71.859  1.00  0.00    -0.258 OA 
ENDBRANCH  17  19
ENDBRANCH  14  15
BRANCH  14  23
HETATM   23  C   UNK A   1      -8.155   9.576  70.073  1.00  0.00    -0.167 C  
BRANCH  23  24
HETATM   24  S   UNK A   1      -6.540  10.403  69.909  1.00  0.00    -0.140 SA 
BRANCH  24  25
HETATM   25  S   UNK A   1      -6.849  11.619  68.288  1.00  0.00    -0.072 SA 
BRANCH  25  26
HETATM   26  C   UNK A   1      -6.759  13.286  69.033  1.00  0.00    -0.107 C  
BRANCH  26  27
HETATM   27  C   UNK A   1      -7.773  14.308  68.487  1.00  0.00    -0.137 C  
BRANCH  27  28
HETATM   28  C   UNK A   1      -7.040  15.472  67.756  1.00  0.00    -0.159 C  
ATOM     29  H   GLY A   2      -8.793  16.604  67.653  1.00  0.00     0.000 HD 
ATOM     30  N   GLY A   2      -7.791  16.594  67.465  1.00  0.00    -0.167 N  
HETATM   31  O   UNK A   1      -5.827  15.465  67.553  1.00  0.00    -0.274 OA 
BRANCH  30  32
ATOM     32  CA  GLY A   2      -7.140  17.763  66.887  1.00  0.00    -0.185 C  
ATOM     33  OXT GLY A   2      -7.359  20.195  66.892  1.00  0.00    -0.244 OA 
ATOM     34  C   GLY A   2      -7.436  19.137  67.504  1.00  0.00    -0.231 C  
ATOM     35  O   GLY A   2      -7.583  19.127  68.843  1.00  0.00    -0.339 OA 
ENDBRANCH  30  32
ENDBRANCH  27  28
BRANCH  27  36
HETATM   36  N   UNK A   1      -8.967  13.715  67.845  1.00  0.00    -0.185 N  
HETATM   37  H   UNK A   1      -8.844  13.133  67.016  1.00  0.00     0.000 HD 
HETATM   38  O   UNK A   1     -10.470  14.487  69.392  1.00  0.00    -0.212 OA 
HETATM   39  C   UNK A   1     -10.238  13.921  68.329  1.00  0.00    -0.247 C  
BRANCH  39  40
HETATM   40  C   UNK A   1     -11.370  13.283  67.539  1.00  0.00    -0.329 C  
BRANCH  40  41
HETATM   41  C   UNK A   1     -12.391  14.239  66.893  1.00  0.00    -0.240 C  
BRANCH  41  42
HETATM   42  C   UNK A   1     -12.653  14.090  65.387  1.00  0.00    -0.505 C  
HETATM   43  N   UNK A   1     -12.918  12.680  64.997  1.00  0.00    -0.799 NA 
HETATM   44  C   UNK A   1     -11.436  14.552  64.607  1.00  0.00    -0.387 C  
HETATM   45  O   UNK A   1     -11.088  15.689  64.345  1.00  0.00    -0.342 OA 
HETATM   46  O   UNK A   1     -10.693  13.472  64.273  1.00  0.00    -0.403 OA 
HETATM   47  H2  UNK A   1     -13.682  12.284  65.544  1.00  0.00     0.000 HD 
HETATM   48  H1  UNK A   1     -13.092  12.580  63.997  1.00  0.00     0.000 HD 
ENDBRANCH  41  42
ENDBRANCH  40  41
ENDBRANCH  39  40
ENDBRANCH  27  36
ENDBRANCH  26  27
ENDBRANCH  25  26
ENDBRANCH  24  25
ENDBRANCH  23  24
ENDBRANCH  14  23
ENDBRANCH  11  14
ENDBRANCH   9  10
ENDBRANCH   8   9
ENDBRANCH   4   8
TORSDOF 17
ENDMDL
MODEL      166
REMARK 921   NORMALIZED FREE ENERGY PREDICTED BY IDOCK:   -4.47 KCAL/MOL
REMARK 922        TOTAL FREE ENERGY PREDICTED BY IDOCK:  -11.88 KCAL/MOL
REMARK 923 INTER-LIGAND FREE ENERGY PREDICTED BY IDOCK:  -10.36 KCAL/MOL
REMARK 924 INTRA-LIGAND FREE ENERGY PREDICTED BY IDOCK:   -1.51 KCAL/MOL
REMARK 927      BINDING AFFINITY PREDICTED BY RF-SCORE:    0.00 PKD
ROOT
HETATM    1  N   UNK A   1     -10.100  18.360  65.882  1.00  0.00    -0.569 NA 
HETATM    2  H1  UNK A   1     -10.150  19.266  65.417  1.00  0.00     0.000 HD 
HETATM    3  H2  UNK A   1     -10.463  17.623  65.277  1.00  0.00     0.000 HD 
HETATM    4  C   UNK A   1     -10.775  18.335  67.207  1.00  0.00    -0.337 C  
HETATM    5  O   UNK A   1     -10.229  19.508  69.295  1.00  0.00    -0.343 OA 
HETATM    6  C   UNK A   1     -10.205  19.470  68.075  1.00  0.00    -0.437 C  
HETATM    7  O   UNK A   1      -9.661  20.444  67.303  1.00  0.00    -0.419 OA 
ENDROOT
BRANCH   4   8
HETATM    8  C   UNK A   1     -10.700  16.975  67.906  1.00  0.00    -0.348 C  
BRANCH   8   9
HETATM    9  C   UNK A   1      -9.869  15.918  67.176  1.00  0.00    -0.232 C  
BRANCH   9  10
HETATM   10  C   UNK A   1     -10.661  14.638  67.054  1.00  0.00    -0.290 C  
HETATM   11  N   UNK A   1      -9.890  13.500  66.942  1.00  0.00    -0.250 N  
HETATM   12  O   UNK A   1     -11.888  14.625  67.017  1.00  0.00    -0.387 OA 
HETATM   13  H   UNK A   1      -8.873  13.569  66.920  1.00  0.00     0.000 HD 
BRANCH  11  14
HETATM   14  C   UNK A   1     -10.543  12.187  66.854  1.00  0.00    -0.229 C  
BRANCH  14  15
HETATM   15  C   UNK A   1     -10.554  11.545  68.256  1.00  0.00    -0.200 C  
ATOM     16  H   GLY A   2     -12.620  11.441  68.178  1.00  0.00     0.000 HD 
ATOM     17  N   GLY A   2     -11.800  11.211  68.740  1.00  0.00    -0.334 N  
HETATM   18  O   UNK A   1      -9.536  11.362  68.905  1.00  0.00    -0.170 OA 
BRANCH  17  19
ATOM     19  CA  GLY A   2     -11.996  10.546  70.016  1.00  0.00    -0.288 C  
ATOM     20  C   GLY A   2     -12.652  11.406  71.084  1.00  0.00    -0.386 C  
ATOM     21  O   GLY A   2     -12.459  12.752  70.946  1.00  0.00    -0.367 OA 
ATOM     22  OXT GLY A   2     -13.256  10.952  72.045  1.00  0.00    -0.492 OA 
ENDBRANCH  17  19
ENDBRANCH  14  15
BRANCH  14  23
HETATM   23  C   UNK A   1      -9.825  11.290  65.831  1.00  0.00    -0.232 C  
BRANCH  23  24
HETATM   24  S   UNK A   1      -9.892   9.499  66.152  1.00  0.00    -0.271 SA 
BRANCH  24  25
HETATM   25  S   UNK A   1      -8.352   8.801  64.994  1.00  0.00    -0.175 SA 
BRANCH  25  26
HETATM   26  C   UNK A   1      -7.739   7.388  65.978  1.00  0.00    -0.095 C  
BRANCH  26  27
HETATM   27  C   UNK A   1      -8.821   6.413  66.478  1.00  0.00    -0.136 C  
BRANCH  27  28
HETATM   28  C   UNK A   1      -8.723   5.052  65.726  1.00  0.00    -0.135 C  
ATOM     29  H   GLY A   2      -9.290   5.931  63.918  1.00  0.00     0.000 HD 
ATOM     30  N   GLY A   2      -8.975   5.072  64.369  1.00  0.00    -0.089 N  
HETATM   31  O   UNK A   1      -8.319   4.025  66.269  1.00  0.00    -0.104 OA 
BRANCH  30  32
ATOM     32  CA  GLY A   2      -8.787   3.857  63.586  1.00  0.00    -0.105 C  
ATOM     33  OXT GLY A   2      -9.742   1.618  63.385  1.00  0.00    -0.103 OA 
ATOM     34  C   GLY A   2      -9.914   2.815  63.583  1.00  0.00    -0.149 C  
ATOM     35  O   GLY A   2     -11.156   3.336  63.603  1.00  0.00    -0.291 OA 
ENDBRANCH  30  32
ENDBRANCH  27  28
BRANCH  27  36
HETATM   36  N   UNK A   1      -9.009   6.394  67.945  1.00  0.00    -0.116 N  
HETATM   37  H   UNK A   1      -9.951   6.492  68.323  1.00  0.00     0.000 HD 
HETATM   38  O   UNK A   1      -6.812   5.989  68.455  1.00  0.00    -0.068 OA 
HETATM   39  C   UNK A   1      -7.955   6.250  68.817  1.00  0.00    -0.102 C  
BRANCH  39  40
HETATM   40  C   UNK A   1      -8.296   6.292  70.298  1.00  0.00    -0.126 C  
BRANCH  40  41
HETATM   41  C   UNK A   1      -9.586   7.037  70.693  1.00  0.00    -0.165 C  
BRANCH  41  42
HETATM   42  C   UNK A   1     -10.902   6.247  70.664  1.00  0.00    -0.280 C  
HETATM   43  N   UNK A   1     -11.832   6.737  69.612  1.00  0.00    -0.646 NA 
HETATM   44  C   UNK A   1     -11.614   6.388  71.996  1.00  0.00    -0.321 C  
HETATM   45  O   UNK A   1     -11.390   5.806  73.042  1.00  0.00    -0.268 OA 
HETATM   46  O   UNK A   1     -12.551   7.358  71.893  1.00  0.00    -0.312 OA 
HETATM   47  H2  UNK A   1     -11.384   6.740  68.696  1.00  0.00     0.000 HD 
HETATM   48  H1  UNK A   1     -12.707   6.212  69.593  1.00  0.00     0.000 HD 
ENDBRANCH  41  42
ENDBRANCH  40  41
ENDBRANCH  39  40
ENDBRANCH  27  36
ENDBRANCH  26  27
ENDBRANCH  25  26
ENDBRANCH  24  25
ENDBRANCH  23  24
ENDBRANCH  14  23
ENDBRANCH  11  14
ENDBRANCH   9  10
ENDBRANCH   8   9
ENDBRANCH   4   8
TORSDOF 17
ENDMDL
MODEL      167
REMARK 921   NORMALIZED FREE ENERGY PREDICTED BY IDOCK:   -4.45 KCAL/MOL
REMARK 922        TOTAL FREE ENERGY PREDICTED BY IDOCK:  -11.84 KCAL/MOL
REMARK 923 INTER-LIGAND FREE ENERGY PREDICTED BY IDOCK:  -10.43 KCAL/MOL
REMARK 924 INTRA-LIGAND FREE ENERGY PREDICTED BY IDOCK:   -1.41 KCAL/MOL
REMARK 927      BINDING AFFINITY PREDICTED BY RF-SCORE:    0.00 PKD
ROOT
HETATM    1  N   UNK A   1      -9.170  20.469  65.835  1.00  0.00    -0.507 NA 
HETATM    2  H1  UNK A   1      -9.083  21.481  65.925  1.00  0.00     0.000 HD 
HETATM    3  H2  UNK A   1     -10.078  20.219  65.442  1.00  0.00     0.000 HD 
HETATM    4  C   UNK A   1      -8.927  19.735  67.106  1.00  0.00    -0.327 C  
HETATM    5  O   UNK A   1      -6.879  19.502  68.442  1.00  0.00    -0.267 OA 
HETATM    6  C   UNK A   1      -7.556  20.155  67.665  1.00  0.00    -0.304 C  
HETATM    7  O   UNK A   1      -7.186  21.367  67.179  1.00  0.00    -0.506 OA 
ENDROOT
BRANCH   4   8
HETATM    8  C   UNK A   1      -9.059  18.217  66.970  1.00  0.00    -0.263 C  
BRANCH   8   9
HETATM    9  C   UNK A   1     -10.131  17.579  67.856  1.00  0.00    -0.330 C  
BRANCH   9  10
HETATM   10  C   UNK A   1     -10.777  16.424  67.127  1.00  0.00    -0.233 C  
HETATM   11  N   UNK A   1     -11.017  15.317  67.913  1.00  0.00    -0.296 N  
HETATM   12  O   UNK A   1     -11.025  16.462  65.925  1.00  0.00    -0.158 OA 
HETATM   13  H   UNK A   1     -10.739  15.315  68.894  1.00  0.00     0.000 HD 
BRANCH  11  14
HETATM   14  C   UNK A   1     -11.675  14.141  67.329  1.00  0.00    -0.392 C  
BRANCH  14  15
HETATM   15  C   UNK A   1     -12.067  13.177  68.467  1.00  0.00    -0.182 C  
ATOM     16  H   GLY A   2     -11.863  14.722  69.828  1.00  0.00     0.000 HD 
ATOM     17  N   GLY A   2     -12.120  13.741  69.723  1.00  0.00    -0.335 N  
HETATM   18  O   UNK A   1     -12.295  11.992  68.278  1.00  0.00    -0.288 OA 
BRANCH  17  19
ATOM     19  CA  GLY A   2     -12.527  12.997  70.902  1.00  0.00    -0.310 C  
ATOM     20  C   GLY A   2     -13.405  13.775  71.870  1.00  0.00    -0.414 C  
ATOM     21  O   GLY A   2     -13.241  15.131  71.840  1.00  0.00    -0.331 OA 
ATOM     22  OXT GLY A   2     -14.161  13.248  72.672  1.00  0.00    -0.724 OA 
ENDBRANCH  17  19
ENDBRANCH  14  15
BRANCH  14  23
HETATM   23  C   UNK A   1     -10.754  13.456  66.304  1.00  0.00    -0.287 C  
BRANCH  23  24
HETATM   24  S   UNK A   1     -11.453  13.213  64.640  1.00  0.00    -0.352 SA 
BRANCH  24  25
HETATM   25  S   UNK A   1     -10.341  11.641  63.937  1.00  0.00    -0.414 SA 
BRANCH  25  26
HETATM   26  C   UNK A   1     -10.297  10.522  65.382  1.00  0.00    -0.222 C  
BRANCH  26  27
HETATM   27  C   UNK A   1      -9.129   9.518  65.404  1.00  0.00    -0.221 C  
BRANCH  27  28
HETATM   28  C   UNK A   1      -7.805  10.226  65.818  1.00  0.00    -0.145 C  
ATOM     29  H   GLY A   2      -8.730  11.161  67.441  1.00  0.00     0.000 HD 
ATOM     30  N   GLY A   2      -7.845  11.003  66.958  1.00  0.00    -0.131 N  
HETATM   31  O   UNK A   1      -6.736  10.014  65.247  1.00  0.00    -0.103 OA 
BRANCH  30  32
ATOM     32  CA  GLY A   2      -6.616  11.599  67.465  1.00  0.00    -0.093 C  
ATOM     33  OXT GLY A   2      -5.716  13.801  68.021  1.00  0.00    -0.113 OA 
ATOM     34  C   GLY A   2      -6.673  13.035  68.003  1.00  0.00    -0.114 C  
ATOM     35  O   GLY A   2      -7.808  13.340  68.660  1.00  0.00    -0.129 OA 
ENDBRANCH  30  32
ENDBRANCH  27  28
BRANCH  27  36
HETATM   36  N   UNK A   1      -9.448   8.209  66.014  1.00  0.00    -0.410 N  
HETATM   37  H   UNK A   1      -9.085   7.361  65.580  1.00  0.00     0.000 HD 
HETATM   38  O   UNK A   1     -10.581   9.062  67.814  1.00  0.00    -0.246 OA 
HETATM   39  C   UNK A   1     -10.219   8.098  67.148  1.00  0.00    -0.296 C  
BRANCH  39  40
HETATM   40  C   UNK A   1     -10.499   6.685  67.636  1.00  0.00    -0.282 C  
BRANCH  40  41
HETATM   41  C   UNK A   1      -9.669   6.187  68.835  1.00  0.00    -0.151 C  
BRANCH  41  42
HETATM   42  C   UNK A   1      -8.452   5.299  68.539  1.00  0.00    -0.092 C  
HETATM   43  N   UNK A   1      -7.816   5.628  67.235  1.00  0.00    -0.101 NA 
HETATM   44  C   UNK A   1      -8.881   3.845  68.477  1.00  0.00    -0.109 C  
HETATM   45  O   UNK A   1      -9.105   3.080  69.397  1.00  0.00    -0.105 OA 
HETATM   46  O   UNK A   1      -9.063   3.496  67.183  1.00  0.00    -0.141 OA 
HETATM   47  H2  UNK A   1      -7.572   6.617  67.184  1.00  0.00     0.000 HD 
HETATM   48  H1  UNK A   1      -7.007   5.039  67.039  1.00  0.00     0.000 HD 
ENDBRANCH  41  42
ENDBRANCH  40  41
ENDBRANCH  39  40
ENDBRANCH  27  36
ENDBRANCH  26  27
ENDBRANCH  25  26
ENDBRANCH  24  25
ENDBRANCH  23  24
ENDBRANCH  14  23
ENDBRANCH  11  14
ENDBRANCH   9  10
ENDBRANCH   8   9
ENDBRANCH   4   8
TORSDOF 17
ENDMDL
MODEL      168
REMARK 921   NORMALIZED FREE ENERGY PREDICTED BY IDOCK:   -4.44 KCAL/MOL
REMARK 922        TOTAL FREE ENERGY PREDICTED BY IDOCK:  -11.83 KCAL/MOL
REMARK 923 INTER-LIGAND FREE ENERGY PREDICTED BY IDOCK:   -9.19 KCAL/MOL
REMARK 924 INTRA-LIGAND FREE ENERGY PREDICTED BY IDOCK:   -2.63 KCAL/MOL
REMARK 927      BINDING AFFINITY PREDICTED BY RF-SCORE:    0.00 PKD
ROOT
HETATM    1  N   UNK A   1     -12.179  14.125  67.163  1.00  0.00    -0.570 NA 
HETATM    2  H1  UNK A   1     -12.776  14.925  66.951  1.00  0.00     0.000 HD 
HETATM    3  H2  UNK A   1     -12.479  13.302  66.640  1.00  0.00     0.000 HD 
HETATM    4  C   UNK A   1     -12.088  13.819  68.617  1.00  0.00    -0.298 C  
HETATM    5  O   UNK A   1     -11.108  15.118  70.457  1.00  0.00    -0.274 OA 
HETATM    6  C   UNK A   1     -11.647  15.091  69.362  1.00  0.00    -0.315 C  
HETATM    7  O   UNK A   1     -11.938  16.202  68.639  1.00  0.00    -0.254 OA 
ENDROOT
BRANCH   4   8
HETATM    8  C   UNK A   1     -11.193  12.620  68.934  1.00  0.00    -0.329 C  
BRANCH   8   9
HETATM    9  C   UNK A   1     -11.928  11.386  69.462  1.00  0.00    -0.409 C  
BRANCH   9  10
HETATM   10  C   UNK A   1     -11.172  10.136  69.079  1.00  0.00    -0.173 C  
HETATM   11  N   UNK A   1     -10.777   9.359  70.147  1.00  0.00    -0.228 N  
HETATM   12  O   UNK A   1     -10.900   9.864  67.913  1.00  0.00    -0.260 OA 
HETATM   13  H   UNK A   1     -10.978   9.658  71.101  1.00  0.00     0.000 HD 
BRANCH  11  14
HETATM   14  C   UNK A   1     -10.065   8.098  69.903  1.00  0.00    -0.195 C  
BRANCH  14  15
HETATM   15  C   UNK A   1     -10.905   6.937  70.474  1.00  0.00    -0.253 C  
ATOM     16  H   GLY A   2     -10.079   7.274  72.341  1.00  0.00     0.000 HD 
ATOM     17  N   GLY A   2     -10.751   6.708  71.824  1.00  0.00    -0.223 N  
HETATM   18  O   UNK A   1     -11.641   6.253  69.780  1.00  0.00    -0.436 OA 
BRANCH  17  19
ATOM     19  CA  GLY A   2     -11.505   5.695  72.541  1.00  0.00    -0.279 C  
ATOM     20  C   GLY A   2     -10.698   4.472  72.946  1.00  0.00    -0.208 C  
ATOM     21  O   GLY A   2      -9.617   4.202  72.154  1.00  0.00    -0.133 OA 
ATOM     22  OXT GLY A   2     -11.008   3.729  73.865  1.00  0.00    -0.220 OA 
ENDBRANCH  17  19
ENDBRANCH  14  15
BRANCH  14  23
HETATM   23  C   UNK A   1      -8.660   8.136  70.530  1.00  0.00    -0.130 C  
BRANCH  23  24
HETATM   24  S   UNK A   1      -7.265   8.126  69.361  1.00  0.00    -0.068 SA 
BRANCH  24  25
HETATM   25  S   UNK A   1      -6.436   9.975  69.672  1.00  0.00    -0.066 SA 
BRANCH  25  26
HETATM   26  C   UNK A   1      -7.699  11.090  68.964  1.00  0.00    -0.132 C  
BRANCH  26  27
HETATM   27  C   UNK A   1      -7.271  11.850  67.695  1.00  0.00    -0.112 C  
BRANCH  27  28
HETATM   28  C   UNK A   1      -7.072  10.864  66.505  1.00  0.00    -0.139 C  
ATOM     29  H   GLY A   2      -8.853   9.865  66.944  1.00  0.00     0.000 HD 
ATOM     30  N   GLY A   2      -8.073   9.937  66.292  1.00  0.00    -0.113 N  
HETATM   31  O   UNK A   1      -6.142  10.970  65.707  1.00  0.00    -0.117 OA 
BRANCH  30  32
ATOM     32  CA  GLY A   2      -8.005   9.063  65.128  1.00  0.00    -0.119 C  
ATOM     33  OXT GLY A   2      -7.897   6.679  64.607  1.00  0.00    -0.106 OA 
ATOM     34  C   GLY A   2      -8.335   7.575  65.318  1.00  0.00    -0.106 C  
ATOM     35  O   GLY A   2      -9.322   7.331  66.201  1.00  0.00    -0.141 OA 
ENDBRANCH  30  32
ENDBRANCH  27  28
BRANCH  27  36
HETATM   36  N   UNK A   1      -8.007  13.110  67.449  1.00  0.00    -0.211 N  
HETATM   37  H   UNK A   1      -8.798  13.102  66.805  1.00  0.00     0.000 HD 
HETATM   38  O   UNK A   1      -6.816  14.369  68.947  1.00  0.00    -0.090 OA 
HETATM   39  C   UNK A   1      -7.659  14.292  68.059  1.00  0.00    -0.142 C  
BRANCH  39  40
HETATM   40  C   UNK A   1      -8.479  15.514  67.676  1.00  0.00    -0.177 C  
BRANCH  40  41
HETATM   41  C   UNK A   1      -8.198  16.812  68.458  1.00  0.00    -0.242 C  
BRANCH  41  42
HETATM   42  C   UNK A   1      -8.752  18.124  67.883  1.00  0.00    -0.261 C  
HETATM   43  N   UNK A   1     -10.170  18.355  68.267  1.00  0.00    -0.380 NA 
HETATM   44  C   UNK A   1      -8.696  18.083  66.367  1.00  0.00    -0.227 C  
HETATM   45  O   UNK A   1      -7.739  18.269  65.637  1.00  0.00    -0.529 OA 
HETATM   46  O   UNK A   1      -9.910  17.722  65.893  1.00  0.00    -0.524 OA 
HETATM   47  H2  UNK A   1     -10.288  18.318  69.279  1.00  0.00     0.000 HD 
HETATM   48  H1  UNK A   1     -10.538  19.226  67.885  1.00  0.00     0.000 HD 
ENDBRANCH  41  42
ENDBRANCH  40  41
ENDBRANCH  39  40
ENDBRANCH  27  36
ENDBRANCH  26  27
ENDBRANCH  25  26
ENDBRANCH  24  25
ENDBRANCH  23  24
ENDBRANCH  14  23
ENDBRANCH  11  14
ENDBRANCH   9  10
ENDBRANCH   8   9
ENDBRANCH   4   8
TORSDOF 17
ENDMDL
MODEL      169
REMARK 921   NORMALIZED FREE ENERGY PREDICTED BY IDOCK:   -4.43 KCAL/MOL
REMARK 922        TOTAL FREE ENERGY PREDICTED BY IDOCK:  -11.79 KCAL/MOL
REMARK 923 INTER-LIGAND FREE ENERGY PREDICTED BY IDOCK:  -10.57 KCAL/MOL
REMARK 924 INTRA-LIGAND FREE ENERGY PREDICTED BY IDOCK:   -1.23 KCAL/MOL
REMARK 927      BINDING AFFINITY PREDICTED BY RF-SCORE:    0.00 PKD
ROOT
HETATM    1  N   UNK A   1     -10.083   4.575  65.116  1.00  0.00    -0.363 NA 
HETATM    2  H1  UNK A   1      -9.781   4.014  64.320  1.00  0.00     0.000 HD 
HETATM    3  H2  UNK A   1     -10.254   5.540  64.834  1.00  0.00     0.000 HD 
HETATM    4  C   UNK A   1      -9.145   4.521  66.270  1.00  0.00    -0.123 C  
HETATM    5  O   UNK A   1      -8.534   2.649  67.739  1.00  0.00    -0.078 OA 
HETATM    6  C   UNK A   1      -8.909   3.048  66.648  1.00  0.00    -0.147 C  
HETATM    7  O   UNK A   1      -9.173   2.231  65.597  1.00  0.00    -0.115 OA 
ENDROOT
BRANCH   4   8
HETATM    8  C   UNK A   1      -9.599   5.362  67.466  1.00  0.00    -0.138 C  
BRANCH   8   9
HETATM    9  C   UNK A   1     -10.811   6.257  67.204  1.00  0.00    -0.460 C  
BRANCH   9  10
HETATM   10  C   UNK A   1     -10.421   7.708  67.365  1.00  0.00    -0.297 C  
HETATM   11  N   UNK A   1     -10.000   8.316  66.201  1.00  0.00    -0.468 N  
HETATM   12  O   UNK A   1     -10.442   8.277  68.452  1.00  0.00    -0.207 OA 
HETATM   13  H   UNK A   1      -9.946   7.783  65.334  1.00  0.00     0.000 HD 
BRANCH  11  14
HETATM   14  C   UNK A   1      -9.627   9.737  66.220  1.00  0.00    -0.213 C  
BRANCH  14  15
HETATM   15  C   UNK A   1      -9.944  10.349  64.840  1.00  0.00    -0.339 C  
ATOM     16  H   GLY A   2     -11.285  11.645  65.737  1.00  0.00     0.000 HD 
ATOM     17  N   GLY A   2     -10.855  11.383  64.850  1.00  0.00    -0.284 N  
HETATM   18  O   UNK A   1      -9.442   9.938  63.806  1.00  0.00    -0.268 OA 
BRANCH  17  19
ATOM     19  CA  GLY A   2     -11.228  12.114  63.652  1.00  0.00    -0.464 C  
ATOM     20  C   GLY A   2     -12.394  13.072  63.833  1.00  0.00    -0.375 C  
ATOM     21  O   GLY A   2     -13.269  12.742  64.830  1.00  0.00    -0.812 OA 
ATOM     22  OXT GLY A   2     -12.597  14.038  63.111  1.00  0.00    -0.733 OA 
ENDBRANCH  17  19
ENDBRANCH  14  15
BRANCH  14  23
HETATM   23  C   UNK A   1      -8.141   9.905  66.581  1.00  0.00    -0.117 C  
BRANCH  23  24
HETATM   24  S   UNK A   1      -7.362  11.463  66.052  1.00  0.00     0.345 SA 
BRANCH  24  25
HETATM   25  S   UNK A   1      -7.320  12.533  67.799  1.00  0.00    -0.139 SA 
BRANCH  25  26
HETATM   26  C   UNK A   1      -9.097  12.713  68.185  1.00  0.00    -0.204 C  
BRANCH  26  27
HETATM   27  C   UNK A   1      -9.860  13.734  67.320  1.00  0.00    -0.241 C  
BRANCH  27  28
HETATM   28  C   UNK A   1     -11.103  14.281  68.083  1.00  0.00    -0.258 C  
ATOM     29  H   GLY A   2     -10.175  14.006  69.934  1.00  0.00     0.000 HD 
ATOM     30  N   GLY A   2     -11.001  14.367  69.457  1.00  0.00    -0.230 N  
HETATM   31  O   UNK A   1     -12.087  14.737  67.502  1.00  0.00    -0.301 OA 
BRANCH  30  32
ATOM     32  CA  GLY A   2     -12.082  14.977  70.221  1.00  0.00    -0.329 C  
ATOM     33  OXT GLY A   2     -14.196  14.343  71.268  1.00  0.00    -0.327 OA 
ATOM     34  C   GLY A   2     -13.038  14.054  70.989  1.00  0.00    -0.272 C  
ATOM     35  O   GLY A   2     -12.451  12.970  71.531  1.00  0.00    -0.232 OA 
ENDBRANCH  30  32
ENDBRANCH  27  28
BRANCH  27  36
HETATM   36  N   UNK A   1      -9.001  14.696  66.594  1.00  0.00    -0.354 N  
HETATM   37  H   UNK A   1      -8.514  14.386  65.754  1.00  0.00     0.000 HD 
HETATM   38  O   UNK A   1      -9.486  16.493  67.930  1.00  0.00    -0.217 OA 
HETATM   39  C   UNK A   1      -8.837  15.995  67.017  1.00  0.00    -0.211 C  
BRANCH  39  40
HETATM   40  C   UNK A   1      -7.890  16.855  66.194  1.00  0.00    -0.277 C  
BRANCH  40  41
HETATM   41  C   UNK A   1      -6.905  17.745  66.977  1.00  0.00    -0.204 C  
BRANCH  41  42
HETATM   42  C   UNK A   1      -5.786  17.048  67.763  1.00  0.00    -0.127 C  
HETATM   43  N   UNK A   1      -5.663  15.607  67.415  1.00  0.00    -0.334 NA 
HETATM   44  C   UNK A   1      -6.078  17.128  69.250  1.00  0.00    -0.216 C  
HETATM   45  O   UNK A   1      -5.907  18.066  70.008  1.00  0.00    -0.243 OA 
HETATM   46  O   UNK A   1      -6.657  15.972  69.647  1.00  0.00    -0.193 OA 
HETATM   47  H2  UNK A   1      -5.541  15.480  66.411  1.00  0.00     0.000 HD 
HETATM   48  H1  UNK A   1      -4.920  15.144  67.938  1.00  0.00     0.000 HD 
ENDBRANCH  41  42
ENDBRANCH  40  41
ENDBRANCH  39  40
ENDBRANCH  27  36
ENDBRANCH  26  27
ENDBRANCH  25  26
ENDBRANCH  24  25
ENDBRANCH  23  24
ENDBRANCH  14  23
ENDBRANCH  11  14
ENDBRANCH   9  10
ENDBRANCH   8   9
ENDBRANCH   4   8
TORSDOF 17
ENDMDL
MODEL      170
REMARK 921   NORMALIZED FREE ENERGY PREDICTED BY IDOCK:   -4.39 KCAL/MOL
REMARK 922        TOTAL FREE ENERGY PREDICTED BY IDOCK:  -11.73 KCAL/MOL
REMARK 923 INTER-LIGAND FREE ENERGY PREDICTED BY IDOCK:  -10.84 KCAL/MOL
REMARK 924 INTRA-LIGAND FREE ENERGY PREDICTED BY IDOCK:   -0.89 KCAL/MOL
REMARK 927      BINDING AFFINITY PREDICTED BY RF-SCORE:    0.00 PKD
ROOT
HETATM    1  N   UNK A   1     -13.279  12.930  64.778  1.00  0.00    -0.686 NA 
HETATM    2  H1  UNK A   1     -13.540  13.559  65.538  1.00  0.00     0.000 HD 
HETATM    3  H2  UNK A   1     -13.853  12.087  64.795  1.00  0.00     0.000 HD 
HETATM    4  C   UNK A   1     -11.832  12.583  64.764  1.00  0.00    -0.383 C  
HETATM    5  O   UNK A   1      -9.862  13.992  64.357  1.00  0.00    -0.036 OA 
HETATM    6  C   UNK A   1     -11.012  13.885  64.752  1.00  0.00    -0.401 C  
HETATM    7  O   UNK A   1     -11.737  14.920  65.247  1.00  0.00    -0.335 OA 
ENDROOT
BRANCH   4   8
HETATM    8  C   UNK A   1     -11.442  11.640  63.624  1.00  0.00    -0.458 C  
BRANCH   8   9
HETATM    9  C   UNK A   1      -9.940  11.383  63.483  1.00  0.00    -0.424 C  
BRANCH   9  10
HETATM   10  C   UNK A   1      -9.471  10.465  64.587  1.00  0.00    -0.280 C  
HETATM   11  N   UNK A   1      -9.393  11.060  65.828  1.00  0.00    -0.204 N  
HETATM   12  O   UNK A   1      -9.149   9.299  64.378  1.00  0.00    -0.189 OA 
HETATM   13  H   UNK A   1      -9.618  12.049  65.938  1.00  0.00     0.000 HD 
BRANCH  11  14
HETATM   14  C   UNK A   1      -8.984  10.261  66.991  1.00  0.00    -0.136 C  
BRANCH  14  15
HETATM   15  C   UNK A   1     -10.108   9.258  67.322  1.00  0.00    -0.231 C  
ATOM     16  H   GLY A   2      -8.728   7.717  67.274  1.00  0.00     0.000 HD 
ATOM     17  N   GLY A   2      -9.707   7.946  67.445  1.00  0.00    -0.151 N  
HETATM   18  O   UNK A   1     -11.275   9.594  67.446  1.00  0.00    -0.077 OA 
BRANCH  17  19
ATOM     19  CA  GLY A   2     -10.619   6.876  67.810  1.00  0.00    -0.244 C  
ATOM     20  C   GLY A   2     -10.817   6.694  69.306  1.00  0.00    -0.289 C  
ATOM     21  O   GLY A   2      -9.770   7.104  70.084  1.00  0.00    -0.172 OA 
ATOM     22  OXT GLY A   2     -11.799   6.162  69.801  1.00  0.00    -0.219 OA 
ENDBRANCH  17  19
ENDBRANCH  14  15
BRANCH  14  23
HETATM   23  C   UNK A   1      -8.671  11.171  68.192  1.00  0.00    -0.144 C  
BRANCH  23  24
HETATM   24  S   UNK A   1      -7.294  10.639  69.258  1.00  0.00    -0.128 SA 
BRANCH  24  25
HETATM   25  S   UNK A   1      -6.188  12.359  69.413  1.00  0.00    -0.119 SA 
BRANCH  25  26
HETATM   26  C   UNK A   1      -7.064  13.486  68.272  1.00  0.00    -0.110 C  
BRANCH  26  27
HETATM   27  C   UNK A   1      -7.207  14.939  68.760  1.00  0.00    -0.123 C  
BRANCH  27  28
HETATM   28  C   UNK A   1      -6.711  15.936  67.671  1.00  0.00    -0.170 C  
ATOM     29  H   GLY A   2      -8.525  16.971  67.693  1.00  0.00     0.000 HD 
ATOM     30  N   GLY A   2      -7.579  16.947  67.312  1.00  0.00    -0.162 N  
HETATM   31  O   UNK A   1      -5.562  15.918  67.233  1.00  0.00    -0.305 OA 
BRANCH  30  32
ATOM     32  CA  GLY A   2      -7.134  17.981  66.385  1.00  0.00    -0.247 C  
ATOM     33  OXT GLY A   2      -6.965  20.414  66.268  1.00  0.00    -0.252 OA 
ATOM     34  C   GLY A   2      -6.884  19.391  66.936  1.00  0.00    -0.196 C  
ATOM     35  O   GLY A   2      -6.354  19.420  68.174  1.00  0.00    -0.220 OA 
ENDBRANCH  30  32
ENDBRANCH  27  28
BRANCH  27  36
HETATM   36  N   UNK A   1      -8.476  15.236  69.460  1.00  0.00    -0.364 N  
HETATM   37  H   UNK A   1      -8.449  15.787  70.318  1.00  0.00     0.000 HD 
HETATM   38  O   UNK A   1      -9.836  14.247  67.904  1.00  0.00    -0.218 OA 
HETATM   39  C   UNK A   1      -9.691  14.794  68.992  1.00  0.00    -0.190 C  
BRANCH  39  40
HETATM   40  C   UNK A   1     -10.906  15.140  69.840  1.00  0.00    -0.287 C  
BRANCH  40  41
HETATM   41  C   UNK A   1     -11.658  13.962  70.489  1.00  0.00    -0.132 C  
BRANCH  41  42
HETATM   42  C   UNK A   1     -13.159  14.140  70.762  1.00  0.00    -0.226 C  
HETATM   43  N   UNK A   1     -13.541  15.569  70.912  1.00  0.00    -0.818 NA 
HETATM   44  C   UNK A   1     -13.531  13.436  72.053  1.00  0.00    -0.494 C  
HETATM   45  O   UNK A   1     -13.727  12.249  72.242  1.00  0.00    -0.400 OA 
HETATM   46  O   UNK A   1     -13.555  14.342  73.056  1.00  0.00    -0.619 OA 
HETATM   47  H2  UNK A   1     -13.247  16.116  70.103  1.00  0.00     0.000 HD 
HETATM   48  H1  UNK A   1     -14.537  15.687  71.093  1.00  0.00     0.000 HD 
ENDBRANCH  41  42
ENDBRANCH  40  41
ENDBRANCH  39  40
ENDBRANCH  27  36
ENDBRANCH  26  27
ENDBRANCH  25  26
ENDBRANCH  24  25
ENDBRANCH  23  24
ENDBRANCH  14  23
ENDBRANCH  11  14
ENDBRANCH   9  10
ENDBRANCH   8   9
ENDBRANCH   4   8
TORSDOF 17
ENDMDL
MODEL      171
REMARK 921   NORMALIZED FREE ENERGY PREDICTED BY IDOCK:   -4.39 KCAL/MOL
REMARK 922        TOTAL FREE ENERGY PREDICTED BY IDOCK:  -11.72 KCAL/MOL
REMARK 923 INTER-LIGAND FREE ENERGY PREDICTED BY IDOCK:   -9.20 KCAL/MOL
REMARK 924 INTRA-LIGAND FREE ENERGY PREDICTED BY IDOCK:   -2.52 KCAL/MOL
REMARK 927      BINDING AFFINITY PREDICTED BY RF-SCORE:    0.00 PKD
ROOT
HETATM    1  N   UNK A   1      -5.997  12.619  71.294  1.00  0.00    -0.491 NA 
HETATM    2  H1  UNK A   1      -5.847  13.581  71.598  1.00  0.00     0.000 HD 
HETATM    3  H2  UNK A   1      -5.397  11.979  71.814  1.00  0.00     0.000 HD 
HETATM    4  C   UNK A   1      -5.828  12.426  69.829  1.00  0.00    -0.123 C  
HETATM    5  O   UNK A   1      -7.146  13.293  67.946  1.00  0.00    -0.100 OA 
HETATM    6  C   UNK A   1      -6.740  13.421  69.090  1.00  0.00    -0.099 C  
HETATM    7  O   UNK A   1      -7.041  14.481  69.882  1.00  0.00    -0.120 OA 
ENDROOT
BRANCH   4   8
HETATM    8  C   UNK A   1      -6.052  10.983  69.373  1.00  0.00    -0.060 C  
BRANCH   8   9
HETATM    9  C   UNK A   1      -6.276   9.975  70.502  1.00  0.00    -0.109 C  
BRANCH   9  10
HETATM   10  C   UNK A   1      -7.696   9.463  70.458  1.00  0.00    -0.161 C  
HETATM   11  N   UNK A   1      -8.322   9.623  69.240  1.00  0.00    -0.126 N  
HETATM   12  O   UNK A   1      -8.252   8.985  71.442  1.00  0.00    -0.268 OA 
HETATM   13  H   UNK A   1      -7.835  10.079  68.469  1.00  0.00     0.000 HD 
BRANCH  11  14
HETATM   14  C   UNK A   1      -9.695   9.132  69.059  1.00  0.00    -0.166 C  
BRANCH  14  15
HETATM   15  C   UNK A   1      -9.888   8.735  67.581  1.00  0.00    -0.180 C  
ATOM     16  H   GLY A   2      -7.975   9.406  67.165  1.00  0.00     0.000 HD 
ATOM     17  N   GLY A   2      -8.802   8.963  66.765  1.00  0.00    -0.122 N  
HETATM   18  O   UNK A   1     -10.934   8.271  67.155  1.00  0.00    -0.142 OA 
BRANCH  17  19
ATOM     19  CA  GLY A   2      -8.784   8.598  65.359  1.00  0.00    -0.174 C  
ATOM     20  C   GLY A   2      -7.682   9.258  64.547  1.00  0.00    -0.114 C  
ATOM     21  O   GLY A   2      -7.245  10.460  65.030  1.00  0.00    -0.129 OA 
ATOM     22  OXT GLY A   2      -7.246   8.804  63.499  1.00  0.00    -0.092 OA 
ENDBRANCH  17  19
ENDBRANCH  14  15
BRANCH  14  23
HETATM   23  C   UNK A   1     -10.715  10.198  69.493  1.00  0.00    -0.249 C  
BRANCH  23  24
HETATM   24  S   UNK A   1     -11.165  11.432  68.232  1.00  0.00    -0.292 SA 
BRANCH  24  25
HETATM   25  S   UNK A   1     -11.697  13.043  69.384  1.00  0.00    -0.315 SA 
BRANCH  25  26
HETATM   26  C   UNK A   1     -12.108  14.301  68.123  1.00  0.00    -0.240 C  
BRANCH  26  27
HETATM   27  C   UNK A   1     -10.907  15.074  67.548  1.00  0.00    -0.297 C  
BRANCH  27  28
HETATM   28  C   UNK A   1     -10.540  14.543  66.130  1.00  0.00    -0.306 C  
ATOM     29  H   GLY A   2     -12.238  13.328  66.070  1.00  0.00     0.000 HD 
ATOM     30  N   GLY A   2     -11.430  13.664  65.546  1.00  0.00    -0.302 N  
HETATM   31  O   UNK A   1      -9.578  14.970  65.493  1.00  0.00    -0.313 OA 
BRANCH  30  32
ATOM     32  CA  GLY A   2     -11.206  13.220  64.176  1.00  0.00    -0.379 C  
ATOM     33  OXT GLY A   2      -9.866  11.583  62.956  1.00  0.00    -0.375 OA 
ATOM     34  C   GLY A   2     -10.515  11.868  63.955  1.00  0.00    -0.373 C  
ATOM     35  O   GLY A   2     -10.847  10.919  64.852  1.00  0.00    -0.227 OA 
ENDBRANCH  30  32
ENDBRANCH  27  28
BRANCH  27  36
HETATM   36  N   UNK A   1     -10.952  16.538  67.761  1.00  0.00    -0.298 N  
HETATM   37  H   UNK A   1     -11.847  17.020  67.684  1.00  0.00     0.000 HD 
HETATM   38  O   UNK A   1      -8.738  16.761  68.308  1.00  0.00    -0.212 OA 
HETATM   39  C   UNK A   1      -9.827  17.269  68.060  1.00  0.00    -0.284 C  
BRANCH  39  40
HETATM   40  C   UNK A   1     -10.020  18.771  68.209  1.00  0.00    -0.432 C  
BRANCH  40  41
HETATM   41  C   UNK A   1      -9.086  19.496  69.197  1.00  0.00    -0.171 C  
BRANCH  41  42
HETATM   42  C   UNK A   1      -7.737  19.998  68.663  1.00  0.00    -0.115 C  
HETATM   43  N   UNK A   1      -7.376  19.373  67.363  1.00  0.00    -0.224 NA 
HETATM   44  C   UNK A   1      -6.635  19.653  69.649  1.00  0.00    -0.330 C  
HETATM   45  O   UNK A   1      -6.338  20.221  70.684  1.00  0.00    -0.468 OA 
HETATM   46  O   UNK A   1      -6.024  18.516  69.244  1.00  0.00    -0.221 OA 
HETATM   47  H2  UNK A   1      -8.116  19.505  66.673  1.00  0.00     0.000 HD 
HETATM   48  H1  UNK A   1      -6.479  19.707  67.008  1.00  0.00     0.000 HD 
ENDBRANCH  41  42
ENDBRANCH  40  41
ENDBRANCH  39  40
ENDBRANCH  27  36
ENDBRANCH  26  27
ENDBRANCH  25  26
ENDBRANCH  24  25
ENDBRANCH  23  24
ENDBRANCH  14  23
ENDBRANCH  11  14
ENDBRANCH   9  10
ENDBRANCH   8   9
ENDBRANCH   4   8
TORSDOF 17
ENDMDL
MODEL      172
REMARK 921   NORMALIZED FREE ENERGY PREDICTED BY IDOCK:   -4.39 KCAL/MOL
REMARK 922        TOTAL FREE ENERGY PREDICTED BY IDOCK:  -11.72 KCAL/MOL
REMARK 923 INTER-LIGAND FREE ENERGY PREDICTED BY IDOCK:   -9.79 KCAL/MOL
REMARK 924 INTRA-LIGAND FREE ENERGY PREDICTED BY IDOCK:   -1.93 KCAL/MOL
REMARK 927      BINDING AFFINITY PREDICTED BY RF-SCORE:    0.00 PKD
ROOT
HETATM    1  N   UNK A   1      -8.087  11.293  69.275  1.00  0.00    -0.378 NA 
HETATM    2  H1  UNK A   1      -7.404  10.842  69.883  1.00  0.00     0.000 HD 
HETATM    3  H2  UNK A   1      -8.952  10.753  69.241  1.00  0.00     0.000 HD 
HETATM    4  C   UNK A   1      -7.578  11.557  67.902  1.00  0.00    -0.113 C  
HETATM    5  O   UNK A   1      -5.800  13.064  67.126  1.00  0.00    -0.341 OA 
HETATM    6  C   UNK A   1      -6.269  12.359  68.006  1.00  0.00    -0.082 C  
HETATM    7  O   UNK A   1      -5.687  12.182  69.219  1.00  0.00    -0.065 OA 
ENDROOT
BRANCH   4   8
HETATM    8  C   UNK A   1      -8.604  12.235  66.990  1.00  0.00    -0.191 C  
BRANCH   8   9
HETATM    9  C   UNK A   1      -9.835  11.388  66.661  1.00  0.00    -0.233 C  
BRANCH   9  10
HETATM   10  C   UNK A   1     -11.074  12.048  67.217  1.00  0.00    -0.285 C  
HETATM   11  N   UNK A   1     -10.901  12.636  68.452  1.00  0.00    -0.235 N  
HETATM   12  O   UNK A   1     -12.152  12.021  66.631  1.00  0.00    -0.615 OA 
HETATM   13  H   UNK A   1      -9.999  12.581  68.924  1.00  0.00     0.000 HD 
BRANCH  11  14
HETATM   14  C   UNK A   1     -12.023  13.342  69.084  1.00  0.00    -0.317 C  
BRANCH  14  15
HETATM   15  C   UNK A   1     -11.779  14.861  68.970  1.00  0.00    -0.319 C  
ATOM     16  H   GLY A   2     -10.470  14.520  67.404  1.00  0.00     0.000 HD 
ATOM     17  N   GLY A   2     -10.916  15.244  67.967  1.00  0.00    -0.288 N  
HETATM   18  O   UNK A   1     -12.296  15.670  69.725  1.00  0.00    -0.333 OA 
BRANCH  17  19
ATOM     19  CA  GLY A   2     -10.615  16.634  67.676  1.00  0.00    -0.321 C  
ATOM     20  C   GLY A   2      -9.959  16.872  66.326  1.00  0.00    -0.309 C  
ATOM     21  O   GLY A   2      -9.242  15.817  65.835  1.00  0.00    -0.340 OA 
ATOM     22  OXT GLY A   2      -9.996  17.940  65.732  1.00  0.00    -0.551 OA 
ENDBRANCH  17  19
ENDBRANCH  14  15
BRANCH  14  23
HETATM   23  C   UNK A   1     -12.183  12.907  70.551  1.00  0.00    -0.314 C  
BRANCH  23  24
HETATM   24  S   UNK A   1     -12.994  11.301  70.823  1.00  0.00     0.030 SA 
BRANCH  24  25
HETATM   25  S   UNK A   1     -11.389  10.039  71.007  1.00  0.00    -0.311 SA 
BRANCH  25  26
HETATM   26  C   UNK A   1     -12.198   8.414  71.222  1.00  0.00    -0.277 C  
BRANCH  26  27
HETATM   27  C   UNK A   1     -11.327   7.193  70.871  1.00  0.00    -0.286 C  
BRANCH  27  28
HETATM   28  C   UNK A   1     -11.332   6.161  72.038  1.00  0.00    -0.297 C  
ATOM     29  H   GLY A   2      -9.251   5.987  71.986  1.00  0.00     0.000 HD 
ATOM     30  N   GLY A   2     -10.103   5.710  72.474  1.00  0.00    -0.175 N  
HETATM   31  O   UNK A   1     -12.359   5.848  72.639  1.00  0.00    -0.094 OA 
BRANCH  30  32
ATOM     32  CA  GLY A   2     -10.031   4.834  73.637  1.00  0.00    -0.157 C  
ATOM     33  OXT GLY A   2     -10.977   2.726  74.429  1.00  0.00    -0.109 OA 
ATOM     34  C   GLY A   2     -10.551   3.396  73.496  1.00  0.00    -0.196 C  
ATOM     35  O   GLY A   2     -10.310   2.832  72.298  1.00  0.00    -0.148 OA 
ENDBRANCH  30  32
ENDBRANCH  27  28
BRANCH  27  36
HETATM   36  N   UNK A   1     -11.491   6.692  69.489  1.00  0.00    -0.603 N  
HETATM   37  H   UNK A   1     -12.239   6.028  69.289  1.00  0.00     0.000 HD 
HETATM   38  O   UNK A   1      -9.834   7.985  68.577  1.00  0.00    -0.165 OA 
HETATM   39  C   UNK A   1     -10.666   7.092  68.463  1.00  0.00    -0.179 C  
BRANCH  39  40
HETATM   40  C   UNK A   1     -10.928   6.459  67.104  1.00  0.00    -0.476 C  
BRANCH  40  41
HETATM   41  C   UNK A   1      -9.692   6.090  66.261  1.00  0.00    -0.119 C  
BRANCH  41  42
HETATM   42  C   UNK A   1      -9.389   4.599  66.057  1.00  0.00    -0.156 C  
HETATM   43  N   UNK A   1      -9.602   3.804  67.297  1.00  0.00    -0.208 NA 
HETATM   44  C   UNK A   1      -7.937   4.422  65.653  1.00  0.00    -0.095 C  
HETATM   45  O   UNK A   1      -7.428   4.585  64.559  1.00  0.00    -0.069 OA 
HETATM   46  O   UNK A   1      -7.211   4.104  66.750  1.00  0.00    -0.069 OA 
HETATM   47  H2  UNK A   1     -10.543   3.941  67.665  1.00  0.00     0.000 HD 
HETATM   48  H1  UNK A   1      -9.400   2.814  67.161  1.00  0.00     0.000 HD 
ENDBRANCH  41  42
ENDBRANCH  40  41
ENDBRANCH  39  40
ENDBRANCH  27  36
ENDBRANCH  26  27
ENDBRANCH  25  26
ENDBRANCH  24  25
ENDBRANCH  23  24
ENDBRANCH  14  23
ENDBRANCH  11  14
ENDBRANCH   9  10
ENDBRANCH   8   9
ENDBRANCH   4   8
TORSDOF 17
ENDMDL
MODEL      173
REMARK 921   NORMALIZED FREE ENERGY PREDICTED BY IDOCK:   -4.38 KCAL/MOL
REMARK 922        TOTAL FREE ENERGY PREDICTED BY IDOCK:  -11.70 KCAL/MOL
REMARK 923 INTER-LIGAND FREE ENERGY PREDICTED BY IDOCK:   -9.81 KCAL/MOL
REMARK 924 INTRA-LIGAND FREE ENERGY PREDICTED BY IDOCK:   -1.89 KCAL/MOL
REMARK 927      BINDING AFFINITY PREDICTED BY RF-SCORE:    0.00 PKD
ROOT
HETATM    1  N   UNK A   1      -9.626  14.468  69.097  1.00  0.00    -0.392 NA 
HETATM    2  H1  UNK A   1      -9.286  15.334  68.680  1.00  0.00     0.000 HD 
HETATM    3  H2  UNK A   1      -9.275  13.658  68.584  1.00  0.00     0.000 HD 
HETATM    4  C   UNK A   1     -11.107  14.409  69.224  1.00  0.00    -0.271 C  
HETATM    5  O   UNK A   1     -12.641  15.747  70.600  1.00  0.00    -0.426 OA 
HETATM    6  C   UNK A   1     -11.587  15.654  69.990  1.00  0.00    -0.350 C  
HETATM    7  O   UNK A   1     -10.678  16.659  69.901  1.00  0.00    -0.309 OA 
ENDROOT
BRANCH   4   8
HETATM    8  C   UNK A   1     -11.616  13.109  69.850  1.00  0.00    -0.255 C  
BRANCH   8   9
HETATM    9  C   UNK A   1     -12.112  12.061  68.852  1.00  0.00    -0.201 C  
BRANCH   9  10
HETATM   10  C   UNK A   1     -11.471  10.726  69.151  1.00  0.00    -0.298 C  
HETATM   11  N   UNK A   1     -11.111  10.550  70.471  1.00  0.00    -0.427 N  
HETATM   12  O   UNK A   1     -11.256   9.891  68.278  1.00  0.00    -0.195 OA 
HETATM   13  H   UNK A   1     -11.259  11.299  71.147  1.00  0.00     0.000 HD 
BRANCH  11  14
HETATM   14  C   UNK A   1     -10.511   9.278  70.896  1.00  0.00    -0.302 C  
BRANCH  14  15
HETATM   15  C   UNK A   1      -8.987   9.351  70.671  1.00  0.00    -0.228 C  
ATOM     16  H   GLY A   2      -9.300   9.327  68.626  1.00  0.00     0.000 HD 
ATOM     17  N   GLY A   2      -8.588   9.391  69.353  1.00  0.00    -0.138 N  
HETATM   18  O   UNK A   1      -8.185   9.354  71.592  1.00  0.00    -0.242 OA 
BRANCH  17  19
ATOM     19  CA  GLY A   2      -7.197   9.518  68.956  1.00  0.00    -0.071 C  
ATOM     20  C   GLY A   2      -6.692  10.949  68.868  1.00  0.00    -0.067 C  
ATOM     21  O   GLY A   2      -7.650  11.888  68.606  1.00  0.00    -0.122 OA 
ATOM     22  OXT GLY A   2      -5.513  11.259  68.954  1.00  0.00    -0.041 OA 
ENDBRANCH  17  19
ENDBRANCH  14  15
BRANCH  14  23
HETATM   23  C   UNK A   1     -11.137   8.100  70.129  1.00  0.00    -0.187 C  
BRANCH  23  24
HETATM   24  S   UNK A   1     -10.764   6.439  70.777  1.00  0.00    -0.265 SA 
BRANCH  24  25
HETATM   25  S   UNK A   1     -10.180   5.444  69.082  1.00  0.00    -0.224 SA 
BRANCH  25  26
HETATM   26  C   UNK A   1     -10.793   6.544  67.757  1.00  0.00    -0.314 C  
BRANCH  26  27
HETATM   27  C   UNK A   1      -9.706   7.163  66.859  1.00  0.00    -0.186 C  
BRANCH  27  28
HETATM   28  C   UNK A   1      -8.853   6.048  66.183  1.00  0.00    -0.148 C  
ATOM     29  H   GLY A   2      -7.106   6.731  67.103  1.00  0.00     0.000 HD 
ATOM     30  N   GLY A   2      -7.512   6.007  66.511  1.00  0.00    -0.088 N  
HETATM   31  O   UNK A   1      -9.351   5.163  65.490  1.00  0.00    -0.161 OA 
BRANCH  30  32
ATOM     32  CA  GLY A   2      -6.683   4.920  66.006  1.00  0.00    -0.053 C  
ATOM     33  OXT GLY A   2      -5.574   4.246  63.936  1.00  0.00    -0.013 OA 
ATOM     34  C   GLY A   2      -5.912   5.145  64.697  1.00  0.00    -0.022 C  
ATOM     35  O   GLY A   2      -5.435   6.394  64.538  1.00  0.00    -0.020 OA 
ENDBRANCH  30  32
ENDBRANCH  27  28
BRANCH  27  36
HETATM   36  N   UNK A   1     -10.161   8.301  66.030  1.00  0.00    -0.393 N  
HETATM   37  H   UNK A   1     -11.157   8.403  65.836  1.00  0.00     0.000 HD 
HETATM   38  O   UNK A   1      -8.094   9.263  65.805  1.00  0.00    -0.110 OA 
HETATM   39  C   UNK A   1      -9.284   9.225  65.512  1.00  0.00    -0.231 C  
BRANCH  39  40
HETATM   40  C   UNK A   1      -9.892  10.316  64.643  1.00  0.00    -0.396 C  
BRANCH  40  41
HETATM   41  C   UNK A   1     -10.635  11.452  65.373  1.00  0.00    -0.333 C  
BRANCH  41  42
HETATM   42  C   UNK A   1     -10.540  12.863  64.776  1.00  0.00    -0.342 C  
HETATM   43  N   UNK A   1      -9.814  13.806  65.668  1.00  0.00    -0.477 NA 
HETATM   44  C   UNK A   1     -11.934  13.425  64.567  1.00  0.00    -0.407 C  
HETATM   45  O   UNK A   1     -12.720  13.192  63.666  1.00  0.00    -0.706 OA 
HETATM   46  O   UNK A   1     -12.248  14.222  65.613  1.00  0.00    -0.400 OA 
HETATM   47  H2  UNK A   1      -8.891  13.447  65.910  1.00  0.00     0.000 HD 
HETATM   48  H1  UNK A   1      -9.751  14.744  65.272  1.00  0.00     0.000 HD 
ENDBRANCH  41  42
ENDBRANCH  40  41
ENDBRANCH  39  40
ENDBRANCH  27  36
ENDBRANCH  26  27
ENDBRANCH  25  26
ENDBRANCH  24  25
ENDBRANCH  23  24
ENDBRANCH  14  23
ENDBRANCH  11  14
ENDBRANCH   9  10
ENDBRANCH   8   9
ENDBRANCH   4   8
TORSDOF 17
ENDMDL
MODEL      174
REMARK 921   NORMALIZED FREE ENERGY PREDICTED BY IDOCK:   -4.37 KCAL/MOL
REMARK 922        TOTAL FREE ENERGY PREDICTED BY IDOCK:  -11.69 KCAL/MOL
REMARK 923 INTER-LIGAND FREE ENERGY PREDICTED BY IDOCK:   -9.50 KCAL/MOL
REMARK 924 INTRA-LIGAND FREE ENERGY PREDICTED BY IDOCK:   -2.19 KCAL/MOL
REMARK 927      BINDING AFFINITY PREDICTED BY RF-SCORE:    0.00 PKD
ROOT
HETATM    1  N   UNK A   1      -9.111  18.352  65.867  1.00  0.00    -0.445 NA 
HETATM    2  H1  UNK A   1      -8.875  19.220  65.386  1.00  0.00     0.000 HD 
HETATM    3  H2  UNK A   1      -9.364  17.625  65.197  1.00  0.00     0.000 HD 
HETATM    4  C   UNK A   1     -10.173  18.512  66.896  1.00  0.00    -0.381 C  
HETATM    5  O   UNK A   1     -10.163  19.757  69.013  1.00  0.00    -0.434 OA 
HETATM    6  C   UNK A   1      -9.753  19.625  67.871  1.00  0.00    -0.374 C  
HETATM    7  O   UNK A   1      -8.853  20.462  67.294  1.00  0.00    -0.347 OA 
ENDROOT
BRANCH   4   8
HETATM    8  C   UNK A   1     -10.527  17.210  67.618  1.00  0.00    -0.355 C  
BRANCH   8   9
HETATM    9  C   UNK A   1     -11.075  16.100  66.718  1.00  0.00     0.027 C  
BRANCH   9  10
HETATM   10  C   UNK A   1      -9.997  15.074  66.458  1.00  0.00    -0.263 C  
HETATM   11  N   UNK A   1     -10.320  13.795  66.860  1.00  0.00    -0.264 N  
HETATM   12  O   UNK A   1      -8.912  15.371  65.967  1.00  0.00    -0.310 OA 
HETATM   13  H   UNK A   1     -11.213  13.611  67.316  1.00  0.00     0.000 HD 
BRANCH  11  14
HETATM   14  C   UNK A   1      -9.369  12.700  66.629  1.00  0.00    -0.236 C  
BRANCH  14  15
HETATM   15  C   UNK A   1      -9.961  11.747  65.570  1.00  0.00    -0.242 C  
ATOM     16  H   GLY A   2      -8.045  11.217  64.995  1.00  0.00     0.000 HD 
ATOM     17  N   GLY A   2      -9.036  11.041  64.832  1.00  0.00    -0.181 N  
HETATM   18  O   UNK A   1     -11.162  11.637  65.381  1.00  0.00    -0.279 OA 
BRANCH  17  19
ATOM     19  CA  GLY A   2      -9.413  10.057  63.833  1.00  0.00    -0.220 C  
ATOM     20  C   GLY A   2      -8.248   9.455  63.065  1.00  0.00    -0.167 C  
ATOM     21  O   GLY A   2      -7.140  10.250  62.974  1.00  0.00    -0.135 OA 
ATOM     22  OXT GLY A   2      -8.293   8.371  62.502  1.00  0.00    -0.188 OA 
ENDBRANCH  17  19
ENDBRANCH  14  15
BRANCH  14  23
HETATM   23  C   UNK A   1      -9.062  11.960  67.942  1.00  0.00    -0.183 C  
BRANCH  23  24
HETATM   24  S   UNK A   1      -9.488  10.190  67.980  1.00  0.00    -0.146 SA 
BRANCH  24  25
HETATM   25  S   UNK A   1      -7.745   9.347  68.654  1.00  0.00    -0.084 SA 
BRANCH  25  26
HETATM   26  C   UNK A   1      -8.201   8.815  70.342  1.00  0.00    -0.122 C  
BRANCH  26  27
HETATM   27  C   UNK A   1      -9.005   7.504  70.426  1.00  0.00    -0.152 C  
BRANCH  27  28
HETATM   28  C   UNK A   1     -10.467   7.786  70.882  1.00  0.00    -0.206 C  
ATOM     29  H   GLY A   2      -9.934   9.639  71.684  1.00  0.00     0.000 HD 
ATOM     30  N   GLY A   2     -10.707   9.005  71.483  1.00  0.00    -0.325 N  
HETATM   31  O   UNK A   1     -11.400   7.029  70.616  1.00  0.00    -0.278 OA 
BRANCH  30  32
ATOM     32  CA  GLY A   2     -12.073   9.380  71.829  1.00  0.00    -0.382 C  
ATOM     33  OXT GLY A   2     -13.506  11.358  71.832  1.00  0.00    -0.360 OA 
ATOM     34  C   GLY A   2     -12.619  10.709  71.290  1.00  0.00    -0.427 C  
ATOM     35  O   GLY A   2     -12.203  11.020  70.048  1.00  0.00    -0.317 OA 
ENDBRANCH  30  32
ENDBRANCH  27  28
BRANCH  27  36
HETATM   36  N   UNK A   1      -8.787   6.570  69.299  1.00  0.00    -0.132 N  
HETATM   37  H   UNK A   1      -8.935   6.903  68.347  1.00  0.00     0.000 HD 
HETATM   38  O   UNK A   1      -8.058   4.821  70.587  1.00  0.00    -0.078 OA 
HETATM   39  C   UNK A   1      -8.392   5.267  69.494  1.00  0.00    -0.095 C  
BRANCH  39  40
HETATM   40  C   UNK A   1      -8.250   4.413  68.244  1.00  0.00    -0.089 C  
BRANCH  40  41
HETATM   41  C   UNK A   1      -9.554   3.956  67.564  1.00  0.00    -0.212 C  
BRANCH  41  42
HETATM   42  C   UNK A   1      -9.978   4.679  66.278  1.00  0.00    -0.247 C  
HETATM   43  N   UNK A   1      -8.920   4.642  65.233  1.00  0.00    -0.143 NA 
HETATM   44  C   UNK A   1     -10.261   6.139  66.580  1.00  0.00    -0.178 C  
HETATM   45  O   UNK A   1     -11.255   6.632  67.081  1.00  0.00    -0.392 OA 
HETATM   46  O   UNK A   1      -9.168   6.872  66.266  1.00  0.00    -0.160 OA 
HETATM   47  H2  UNK A   1      -8.630   3.684  65.038  1.00  0.00     0.000 HD 
HETATM   48  H1  UNK A   1      -9.202   5.122  64.379  1.00  0.00     0.000 HD 
ENDBRANCH  41  42
ENDBRANCH  40  41
ENDBRANCH  39  40
ENDBRANCH  27  36
ENDBRANCH  26  27
ENDBRANCH  25  26
ENDBRANCH  24  25
ENDBRANCH  23  24
ENDBRANCH  14  23
ENDBRANCH  11  14
ENDBRANCH   9  10
ENDBRANCH   8   9
ENDBRANCH   4   8
TORSDOF 17
ENDMDL
MODEL      175
REMARK 921   NORMALIZED FREE ENERGY PREDICTED BY IDOCK:   -4.37 KCAL/MOL
REMARK 922        TOTAL FREE ENERGY PREDICTED BY IDOCK:  -11.67 KCAL/MOL
REMARK 923 INTER-LIGAND FREE ENERGY PREDICTED BY IDOCK:   -9.51 KCAL/MOL
REMARK 924 INTRA-LIGAND FREE ENERGY PREDICTED BY IDOCK:   -2.16 KCAL/MOL
REMARK 927      BINDING AFFINITY PREDICTED BY RF-SCORE:    0.00 PKD
ROOT
HETATM    1  N   UNK A   1      -9.094  20.419  66.046  1.00  0.00    -0.592 NA 
HETATM    2  H1  UNK A   1      -8.999  21.434  66.083  1.00  0.00     0.000 HD 
HETATM    3  H2  UNK A   1     -10.051  20.154  65.810  1.00  0.00     0.000 HD 
HETATM    4  C   UNK A   1      -8.650  19.734  67.290  1.00  0.00    -0.321 C  
HETATM    5  O   UNK A   1      -6.417  19.552  68.297  1.00  0.00    -0.233 OA 
HETATM    6  C   UNK A   1      -7.212  20.175  67.611  1.00  0.00    -0.290 C  
HETATM    7  O   UNK A   1      -6.929  21.368  67.028  1.00  0.00    -0.508 OA 
ENDROOT
BRANCH   4   8
HETATM    8  C   UNK A   1      -8.793  18.212  67.234  1.00  0.00    -0.251 C  
BRANCH   8   9
HETATM    9  C   UNK A   1      -9.876  17.630  68.144  1.00  0.00    -0.318 C  
BRANCH   9  10
HETATM   10  C   UNK A   1     -10.334  16.294  67.606  1.00  0.00    -0.284 C  
HETATM   11  N   UNK A   1     -10.380  15.287  68.547  1.00  0.00    -0.227 N  
HETATM   12  O   UNK A   1     -10.601  16.121  66.421  1.00  0.00    -0.308 OA 
HETATM   13  H   UNK A   1     -10.092  15.469  69.508  1.00  0.00     0.000 HD 
BRANCH  11  14
HETATM   14  C   UNK A   1     -10.844  13.949  68.155  1.00  0.00    -0.249 C  
BRANCH  14  15
HETATM   15  C   UNK A   1     -11.699  13.368  69.299  1.00  0.00    -0.330 C  
ATOM     16  H   GLY A   2     -11.829  15.253  70.143  1.00  0.00     0.000 HD 
ATOM     17  N   GLY A   2     -12.128  14.283  70.235  1.00  0.00    -0.314 N  
HETATM   18  O   UNK A   1     -11.963  12.179  69.385  1.00  0.00    -0.303 OA 
BRANCH  17  19
ATOM     19  CA  GLY A   2     -12.990  13.924  71.348  1.00  0.00    -0.355 C  
ATOM     20  C   GLY A   2     -12.898  14.855  72.546  1.00  0.00    -0.368 C  
ATOM     21  O   GLY A   2     -11.706  15.509  72.683  1.00  0.00    -0.433 OA 
ATOM     22  OXT GLY A   2     -13.784  14.978  73.379  1.00  0.00    -0.359 OA 
ENDBRANCH  17  19
ENDBRANCH  14  15
BRANCH  14  23
HETATM   23  C   UNK A   1      -9.652  13.036  67.823  1.00  0.00    -0.208 C  
BRANCH  23  24
HETATM   24  S   UNK A   1      -9.616  12.350  66.137  1.00  0.00    -0.202 SA 
BRANCH  24  25
HETATM   25  S   UNK A   1      -8.139  10.936  66.284  1.00  0.00    -0.157 SA 
BRANCH  25  26
HETATM   26  C   UNK A   1      -9.097   9.381  66.348  1.00  0.00    -0.161 C  
BRANCH  26  27
HETATM   27  C   UNK A   1      -8.864   8.513  67.599  1.00  0.00    -0.136 C  
BRANCH  27  28
HETATM   28  C   UNK A   1     -10.058   8.645  68.590  1.00  0.00    -0.190 C  
ATOM     29  H   GLY A   2      -9.064   7.526  70.047  1.00  0.00     0.000 HD 
ATOM     30  N   GLY A   2      -9.898   8.075  69.837  1.00  0.00    -0.184 N  
HETATM   31  O   UNK A   1     -11.051   9.328  68.341  1.00  0.00    -0.049 OA 
BRANCH  30  32
ATOM     32  CA  GLY A   2     -10.929   8.262  70.850  1.00  0.00    -0.246 C  
ATOM     33  OXT GLY A   2     -11.285   7.835  73.229  1.00  0.00    -0.350 OA 
ATOM     34  C   GLY A   2     -10.522   8.158  72.327  1.00  0.00    -0.302 C  
ATOM     35  O   GLY A   2      -9.302   8.657  72.605  1.00  0.00    -0.264 OA 
ENDBRANCH  30  32
ENDBRANCH  27  28
BRANCH  27  36
HETATM   36  N   UNK A   1      -8.323   7.164  67.326  1.00  0.00    -0.118 N  
HETATM   37  H   UNK A   1      -8.970   6.409  67.098  1.00  0.00     0.000 HD 
HETATM   38  O   UNK A   1      -6.117   7.759  67.497  1.00  0.00    -0.046 OA 
HETATM   39  C   UNK A   1      -6.975   6.892  67.369  1.00  0.00    -0.079 C  
BRANCH  39  40
HETATM   40  C   UNK A   1      -6.570   5.449  67.107  1.00  0.00    -0.053 C  
BRANCH  40  41
HETATM   41  C   UNK A   1      -6.982   4.410  68.168  1.00  0.00    -0.056 C  
BRANCH  41  42
HETATM   42  C   UNK A   1      -8.356   3.741  68.014  1.00  0.00    -0.092 C  
HETATM   43  N   UNK A   1      -9.020   4.102  66.733  1.00  0.00    -0.119 NA 
HETATM   44  C   UNK A   1      -9.272   4.187  69.138  1.00  0.00    -0.147 C  
HETATM   45  O   UNK A   1      -9.308   3.794  70.290  1.00  0.00    -0.134 OA 
HETATM   46  O   UNK A   1     -10.056   5.195  68.691  1.00  0.00    -0.172 OA 
HETATM   47  H2  UNK A   1      -8.418   3.896  65.935  1.00  0.00     0.000 HD 
HETATM   48  H1  UNK A   1      -9.932   3.658  66.630  1.00  0.00     0.000 HD 
ENDBRANCH  41  42
ENDBRANCH  40  41
ENDBRANCH  39  40
ENDBRANCH  27  36
ENDBRANCH  26  27
ENDBRANCH  25  26
ENDBRANCH  24  25
ENDBRANCH  23  24
ENDBRANCH  14  23
ENDBRANCH  11  14
ENDBRANCH   9  10
ENDBRANCH   8   9
ENDBRANCH   4   8
TORSDOF 17
ENDMDL
MODEL      176
REMARK 921   NORMALIZED FREE ENERGY PREDICTED BY IDOCK:   -4.34 KCAL/MOL
REMARK 922        TOTAL FREE ENERGY PREDICTED BY IDOCK:  -11.63 KCAL/MOL
REMARK 923 INTER-LIGAND FREE ENERGY PREDICTED BY IDOCK:  -10.14 KCAL/MOL
REMARK 924 INTRA-LIGAND FREE ENERGY PREDICTED BY IDOCK:   -1.49 KCAL/MOL
REMARK 927      BINDING AFFINITY PREDICTED BY RF-SCORE:    0.00 PKD
ROOT
HETATM    1  N   UNK A   1     -10.727   5.603  69.211  1.00  0.00    -0.296 NA 
HETATM    2  H1  UNK A   1     -10.605   4.978  70.008  1.00  0.00     0.000 HD 
HETATM    3  H2  UNK A   1     -11.670   5.992  69.199  1.00  0.00     0.000 HD 
HETATM    4  C   UNK A   1     -10.402   4.971  67.904  1.00  0.00    -0.035 C  
HETATM    5  O   UNK A   1      -8.259   4.158  67.019  1.00  0.00    -0.100 OA 
HETATM    6  C   UNK A   1      -8.980   4.388  67.978  1.00  0.00    -0.119 C  
HETATM    7  O   UNK A   1      -8.617   4.154  69.264  1.00  0.00    -0.075 OA 
ENDROOT
BRANCH   4   8
HETATM    8  C   UNK A   1     -10.584   5.909  66.710  1.00  0.00    -0.368 C  
BRANCH   8   9
HETATM    9  C   UNK A   1     -10.712   7.392  67.065  1.00  0.00    -0.389 C  
BRANCH   9  10
HETATM   10  C   UNK A   1      -9.397   7.904  67.604  1.00  0.00    -0.143 C  
HETATM   11  N   UNK A   1      -9.497   8.582  68.801  1.00  0.00    -0.143 N  
HETATM   12  O   UNK A   1      -8.338   7.761  66.999  1.00  0.00    -0.114 OA 
HETATM   13  H   UNK A   1     -10.408   8.725  69.235  1.00  0.00     0.000 HD 
BRANCH  11  14
HETATM   14  C   UNK A   1      -8.282   9.099  69.446  1.00  0.00    -0.118 C  
BRANCH  14  15
HETATM   15  C   UNK A   1      -8.421   8.923  70.972  1.00  0.00    -0.198 C  
ATOM     16  H   GLY A   2     -10.402   8.382  70.718  1.00  0.00     0.000 HD 
ATOM     17  N   GLY A   2      -9.659   8.506  71.406  1.00  0.00    -0.193 N  
HETATM   18  O   UNK A   1      -7.506   9.157  71.747  1.00  0.00    -0.334 OA 
BRANCH  17  19
ATOM     19  CA  GLY A   2      -9.953   8.234  72.802  1.00  0.00    -0.263 C  
ATOM     20  C   GLY A   2     -10.567   6.868  73.066  1.00  0.00    -0.278 C  
ATOM     21  O   GLY A   2     -11.266   6.334  72.020  1.00  0.00    -0.252 OA 
ATOM     22  OXT GLY A   2     -10.513   6.297  74.144  1.00  0.00    -0.301 OA 
ENDBRANCH  17  19
ENDBRANCH  14  15
BRANCH  14  23
HETATM   23  C   UNK A   1      -8.050  10.572  69.067  1.00  0.00    -0.143 C  
BRANCH  23  24
HETATM   24  S   UNK A   1      -9.460  11.429  68.297  1.00  0.00    -0.190 SA 
BRANCH  24  25
HETATM   25  S   UNK A   1      -8.526  12.919  67.243  1.00  0.00    -0.186 SA 
BRANCH  25  26
HETATM   26  C   UNK A   1      -8.677  14.346  68.374  1.00  0.00    -0.180 C  
BRANCH  26  27
HETATM   27  C   UNK A   1      -9.586  15.486  67.881  1.00  0.00    -0.206 C  
BRANCH  27  28
HETATM   28  C   UNK A   1      -8.740  16.622  67.232  1.00  0.00    -0.191 C  
ATOM     29  H   GLY A   2     -10.310  17.988  67.409  1.00  0.00     0.000 HD 
ATOM     30  N   GLY A   2      -9.335  17.864  67.138  1.00  0.00    -0.260 N  
HETATM   31  O   UNK A   1      -7.558  16.474  66.928  1.00  0.00    -0.186 OA 
BRANCH  30  32
ATOM     32  CA  GLY A   2      -8.559  18.997  66.648  1.00  0.00    -0.313 C  
ATOM     33  OXT GLY A   2      -7.811  21.195  67.406  1.00  0.00    -0.300 OA 
ATOM     34  C   GLY A   2      -8.047  20.022  67.669  1.00  0.00    -0.306 C  
ATOM     35  O   GLY A   2      -7.667  19.492  68.848  1.00  0.00    -0.358 OA 
ENDBRANCH  30  32
ENDBRANCH  27  28
BRANCH  27  36
HETATM   36  N   UNK A   1     -10.817  15.043  67.189  1.00  0.00    -0.307 N  
HETATM   37  H   UNK A   1     -11.622  14.760  67.748  1.00  0.00     0.000 HD 
HETATM   38  O   UNK A   1     -10.050  15.447  65.069  1.00  0.00    -0.314 OA 
HETATM   39  C   UNK A   1     -10.911  14.998  65.818  1.00  0.00    -0.350 C  
BRANCH  39  40
HETATM   40  C   UNK A   1     -12.223  14.480  65.250  1.00  0.00    -0.321 C  
BRANCH  40  41
HETATM   41  C   UNK A   1     -12.254  14.176  63.740  1.00  0.00    -0.183 C  
BRANCH  41  42
HETATM   42  C   UNK A   1     -12.248  12.702  63.310  1.00  0.00    -0.417 C  
HETATM   43  N   UNK A   1     -13.279  11.901  64.022  1.00  0.00    -0.603 NA 
HETATM   44  C   UNK A   1     -10.899  12.082  63.626  1.00  0.00    -0.446 C  
HETATM   45  O   UNK A   1      -9.856  12.176  63.005  1.00  0.00    -0.365 OA 
HETATM   46  O   UNK A   1     -10.985  11.419  64.801  1.00  0.00    -0.296 OA 
HETATM   47  H2  UNK A   1     -14.205  12.313  63.911  1.00  0.00     0.000 HD 
HETATM   48  H1  UNK A   1     -13.275  10.922  63.736  1.00  0.00     0.000 HD 
ENDBRANCH  41  42
ENDBRANCH  40  41
ENDBRANCH  39  40
ENDBRANCH  27  36
ENDBRANCH  26  27
ENDBRANCH  25  26
ENDBRANCH  24  25
ENDBRANCH  23  24
ENDBRANCH  14  23
ENDBRANCH  11  14
ENDBRANCH   9  10
ENDBRANCH   8   9
ENDBRANCH   4   8
TORSDOF 17
ENDMDL
MODEL      177
REMARK 921   NORMALIZED FREE ENERGY PREDICTED BY IDOCK:   -4.33 KCAL/MOL
REMARK 922        TOTAL FREE ENERGY PREDICTED BY IDOCK:  -11.60 KCAL/MOL
REMARK 923 INTER-LIGAND FREE ENERGY PREDICTED BY IDOCK:   -8.54 KCAL/MOL
REMARK 924 INTRA-LIGAND FREE ENERGY PREDICTED BY IDOCK:   -3.07 KCAL/MOL
REMARK 927      BINDING AFFINITY PREDICTED BY RF-SCORE:    0.00 PKD
ROOT
HETATM    1  N   UNK A   1     -11.582  15.946  69.208  1.00  0.00    -0.371 NA 
HETATM    2  H1  UNK A   1     -10.868  16.538  69.633  1.00  0.00     0.000 HD 
HETATM    3  H2  UNK A   1     -12.062  15.394  69.919  1.00  0.00     0.000 HD 
HETATM    4  C   UNK A   1     -11.062  15.071  68.124  1.00  0.00    -0.291 C  
HETATM    5  O   UNK A   1     -10.138  15.645  65.921  1.00  0.00    -0.302 OA 
HETATM    6  C   UNK A   1     -10.336  15.947  67.087  1.00  0.00    -0.300 C  
HETATM    7  O   UNK A   1      -9.933  17.119  67.640  1.00  0.00    -0.266 OA 
ENDROOT
BRANCH   4   8
HETATM    8  C   UNK A   1     -12.134  14.185  67.486  1.00  0.00    -0.363 C  
BRANCH   8   9
HETATM    9  C   UNK A   1     -11.980  12.687  67.758  1.00  0.00    -0.303 C  
BRANCH   9  10
HETATM   10  C   UNK A   1     -11.306  12.019  66.582  1.00  0.00    -0.340 C  
HETATM   11  N   UNK A   1     -10.443  11.000  66.924  1.00  0.00    -0.235 N  
HETATM   12  O   UNK A   1     -11.488  12.388  65.426  1.00  0.00    -0.331 OA 
HETATM   13  H   UNK A   1     -10.283  10.771  67.905  1.00  0.00     0.000 HD 
BRANCH  11  14
HETATM   14  C   UNK A   1      -9.753  10.249  65.867  1.00  0.00    -0.225 C  
BRANCH  14  15
HETATM   15  C   UNK A   1      -9.680   8.765  66.283  1.00  0.00    -0.272 C  
ATOM     16  H   GLY A   2      -8.310   8.422  64.771  1.00  0.00     0.000 HD 
ATOM     17  N   GLY A   2      -8.809   7.991  65.549  1.00  0.00    -0.113 N  
HETATM   18  O   UNK A   1     -10.360   8.300  67.184  1.00  0.00    -0.264 OA 
BRANCH  17  19
ATOM     19  CA  GLY A   2      -8.569   6.588  65.837  1.00  0.00    -0.149 C  
ATOM     20  C   GLY A   2      -7.914   5.812  64.706  1.00  0.00    -0.124 C  
ATOM     21  O   GLY A   2      -8.146   6.305  63.453  1.00  0.00    -0.111 OA 
ATOM     22  OXT GLY A   2      -7.278   4.781  64.870  1.00  0.00    -0.061 OA 
ENDBRANCH  17  19
ENDBRANCH  14  15
BRANCH  14  23
HETATM   23  C   UNK A   1      -8.352  10.830  65.612  1.00  0.00    -0.144 C  
BRANCH  23  24
HETATM   24  S   UNK A   1      -7.563  11.661  67.027  1.00  0.00    -0.141 SA 
BRANCH  24  25
HETATM   25  S   UNK A   1      -6.976  10.072  68.180  1.00  0.00    -0.076 SA 
BRANCH  25  26
HETATM   26  C   UNK A   1      -7.821  10.412  69.765  1.00  0.00    -0.095 C  
BRANCH  26  27
HETATM   27  C   UNK A   1      -8.432   9.183  70.464  1.00  0.00    -0.205 C  
BRANCH  27  28
HETATM   28  C   UNK A   1      -9.973   9.350  70.618  1.00  0.00    -0.284 C  
ATOM     29  H   GLY A   2     -10.008   8.116  72.303  1.00  0.00     0.000 HD 
ATOM     30  N   GLY A   2     -10.561   8.722  71.698  1.00  0.00    -0.302 N  
HETATM   31  O   UNK A   1     -10.632  10.101  69.901  1.00  0.00    -0.251 OA 
BRANCH  30  32
ATOM     32  CA  GLY A   2     -11.979   8.933  71.966  1.00  0.00    -0.369 C  
ATOM     33  OXT GLY A   2     -14.130   7.884  71.481  1.00  0.00    -0.394 OA 
ATOM     34  C   GLY A   2     -12.941   7.757  71.746  1.00  0.00    -0.323 C  
ATOM     35  O   GLY A   2     -12.435   6.554  72.076  1.00  0.00    -0.327 OA 
ENDBRANCH  30  32
ENDBRANCH  27  28
BRANCH  27  36
HETATM   36  N   UNK A   1      -7.909   7.880  69.997  1.00  0.00    -0.103 N  
HETATM   37  H   UNK A   1      -7.765   7.736  68.998  1.00  0.00     0.000 HD 
HETATM   38  O   UNK A   1      -7.619   6.986  72.086  1.00  0.00    -0.089 OA 
HETATM   39  C   UNK A   1      -7.610   6.858  70.867  1.00  0.00    -0.087 C  
BRANCH  39  40
HETATM   40  C   UNK A   1      -7.121   5.561  70.238  1.00  0.00    -0.062 C  
BRANCH  40  41
HETATM   41  C   UNK A   1      -7.801   5.127  68.926  1.00  0.00    -0.082 C  
BRANCH  41  42
HETATM   42  C   UNK A   1      -9.285   4.738  68.987  1.00  0.00    -0.123 C  
HETATM   43  N   UNK A   1     -10.144   5.857  69.459  1.00  0.00    -0.186 NA 
HETATM   44  C   UNK A   1      -9.474   3.586  69.957  1.00  0.00    -0.183 C  
HETATM   45  O   UNK A   1      -9.261   2.401  69.778  1.00  0.00    -0.105 OA 
HETATM   46  O   UNK A   1      -9.870   4.079  71.152  1.00  0.00    -0.181 OA 
HETATM   47  H2  UNK A   1     -10.005   6.692  68.891  1.00  0.00     0.000 HD 
HETATM   48  H1  UNK A   1     -11.130   5.599  69.500  1.00  0.00     0.000 HD 
ENDBRANCH  41  42
ENDBRANCH  40  41
ENDBRANCH  39  40
ENDBRANCH  27  36
ENDBRANCH  26  27
ENDBRANCH  25  26
ENDBRANCH  24  25
ENDBRANCH  23  24
ENDBRANCH  14  23
ENDBRANCH  11  14
ENDBRANCH   9  10
ENDBRANCH   8   9
ENDBRANCH   4   8
TORSDOF 17
ENDMDL
MODEL      178
REMARK 921   NORMALIZED FREE ENERGY PREDICTED BY IDOCK:   -4.33 KCAL/MOL
REMARK 922        TOTAL FREE ENERGY PREDICTED BY IDOCK:  -11.60 KCAL/MOL
REMARK 923 INTER-LIGAND FREE ENERGY PREDICTED BY IDOCK:  -10.04 KCAL/MOL
REMARK 924 INTRA-LIGAND FREE ENERGY PREDICTED BY IDOCK:   -1.56 KCAL/MOL
REMARK 927      BINDING AFFINITY PREDICTED BY RF-SCORE:    0.00 PKD
ROOT
HETATM    1  N   UNK A   1      -9.987  20.346  65.428  1.00  0.00    -0.356 NA 
HETATM    2  H1  UNK A   1      -9.403  20.760  64.702  1.00  0.00     0.000 HD 
HETATM    3  H2  UNK A   1     -10.879  20.836  65.498  1.00  0.00     0.000 HD 
HETATM    4  C   UNK A   1      -9.321  20.274  66.757  1.00  0.00    -0.358 C  
HETATM    5  O   UNK A   1      -7.372  18.972  67.492  1.00  0.00    -0.224 OA 
HETATM    6  C   UNK A   1      -7.978  19.541  66.597  1.00  0.00    -0.293 C  
HETATM    7  O   UNK A   1      -7.538  19.607  65.315  1.00  0.00    -0.353 OA 
ENDROOT
BRANCH   4   8
HETATM    8  C   UNK A   1     -10.197  19.652  67.847  1.00  0.00    -0.574 C  
BRANCH   8   9
HETATM    9  C   UNK A   1     -10.753  18.266  67.516  1.00  0.00    -0.381 C  
BRANCH   9  10
HETATM   10  C   UNK A   1     -10.130  17.233  68.426  1.00  0.00    -0.333 C  
HETATM   11  N   UNK A   1      -9.104  16.513  67.852  1.00  0.00    -0.204 N  
HETATM   12  O   UNK A   1     -10.538  17.032  69.567  1.00  0.00    -0.316 OA 
HETATM   13  H   UNK A   1      -8.841  16.680  66.881  1.00  0.00     0.000 HD 
BRANCH  11  14
HETATM   14  C   UNK A   1      -8.393  15.503  68.648  1.00  0.00    -0.172 C  
BRANCH  14  15
HETATM   15  C   UNK A   1      -7.192  14.986  67.830  1.00  0.00    -0.168 C  
ATOM     16  H   GLY A   2      -6.957  13.435  69.180  1.00  0.00     0.000 HD 
ATOM     17  N   GLY A   2      -6.603  13.838  68.313  1.00  0.00    -0.096 N  
HETATM   18  O   UNK A   1      -6.776  15.559  66.835  1.00  0.00    -0.234 OA 
BRANCH  17  19
ATOM     19  CA  GLY A   2      -5.499  13.178  67.640  1.00  0.00    -0.073 C  
ATOM     20  C   GLY A   2      -5.891  11.949  66.835  1.00  0.00    -0.118 C  
ATOM     21  O   GLY A   2      -7.015  11.305  67.270  1.00  0.00    -0.093 OA 
ATOM     22  OXT GLY A   2      -5.231  11.507  65.906  1.00  0.00    -0.308 OA 
ENDBRANCH  17  19
ENDBRANCH  14  15
BRANCH  14  23
HETATM   23  C   UNK A   1      -9.340  14.357  69.043  1.00  0.00    -0.025 C  
BRANCH  23  24
HETATM   24  S   UNK A   1     -10.426  13.728  67.724  1.00  0.00    -0.243 SA 
BRANCH  24  25
HETATM   25  S   UNK A   1     -11.695  12.501  68.767  1.00  0.00    -0.322 SA 
BRANCH  25  26
HETATM   26  C   UNK A   1     -10.639  11.048  69.103  1.00  0.00    -0.219 C  
BRANCH  26  27
HETATM   27  C   UNK A   1     -11.256   9.685  68.736  1.00  0.00     0.038 C  
BRANCH  27  28
HETATM   28  C   UNK A   1     -10.711   9.187  67.364  1.00  0.00    -0.177 C  
ATOM     29  H   GLY A   2     -10.292  11.137  66.744  1.00  0.00     0.000 HD 
ATOM     30  N   GLY A   2     -10.216  10.149  66.506  1.00  0.00    -0.229 N  
HETATM   31  O   UNK A   1     -10.600   7.993  67.092  1.00  0.00    -0.320 OA 
BRANCH  30  32
ATOM     32  CA  GLY A   2      -9.586   9.740  65.257  1.00  0.00    -0.300 C  
ATOM     33  OXT GLY A   2      -9.773  10.172  62.860  1.00  0.00    -0.261 OA 
ATOM     34  C   GLY A   2      -9.827  10.599  64.007  1.00  0.00    -0.338 C  
ATOM     35  O   GLY A   2      -9.896  11.922  64.246  1.00  0.00    -0.250 OA 
ENDBRANCH  30  32
ENDBRANCH  27  28
BRANCH  27  36
HETATM   36  N   UNK A   1     -11.336   8.720  69.854  1.00  0.00    -0.445 N  
HETATM   37  H   UNK A   1     -10.737   7.895  69.837  1.00  0.00     0.000 HD 
HETATM   38  O   UNK A   1     -12.846   9.921  71.090  1.00  0.00    -0.338 OA 
HETATM   39  C   UNK A   1     -12.193   8.898  70.915  1.00  0.00    -0.137 C  
BRANCH  39  40
HETATM   40  C   UNK A   1     -12.196   7.800  71.969  1.00  0.00    -0.342 C  
BRANCH  40  41
HETATM   41  C   UNK A   1     -10.945   7.692  72.862  1.00  0.00    -0.456 C  
BRANCH  41  42
HETATM   42  C   UNK A   1      -9.574   7.868  72.193  1.00  0.00    -0.197 C  
HETATM   43  N   UNK A   1      -9.297   6.810  71.185  1.00  0.00    -0.159 NA 
HETATM   44  C   UNK A   1      -8.479   7.790  73.241  1.00  0.00    -0.178 C  
HETATM   45  O   UNK A   1      -8.111   8.651  74.020  1.00  0.00    -0.385 OA 
HETATM   46  O   UNK A   1      -7.970   6.537  73.251  1.00  0.00    -0.099 OA 
HETATM   47  H2  UNK A   1     -10.042   6.759  70.491  1.00  0.00     0.000 HD 
HETATM   48  H1  UNK A   1      -8.387   6.927  70.741  1.00  0.00     0.000 HD 
ENDBRANCH  41  42
ENDBRANCH  40  41
ENDBRANCH  39  40
ENDBRANCH  27  36
ENDBRANCH  26  27
ENDBRANCH  25  26
ENDBRANCH  24  25
ENDBRANCH  23  24
ENDBRANCH  14  23
ENDBRANCH  11  14
ENDBRANCH   9  10
ENDBRANCH   8   9
ENDBRANCH   4   8
TORSDOF 17
ENDMDL
MODEL      179
REMARK 921   NORMALIZED FREE ENERGY PREDICTED BY IDOCK:   -4.28 KCAL/MOL
REMARK 922        TOTAL FREE ENERGY PREDICTED BY IDOCK:  -11.51 KCAL/MOL
REMARK 923 INTER-LIGAND FREE ENERGY PREDICTED BY IDOCK:   -9.57 KCAL/MOL
REMARK 924 INTRA-LIGAND FREE ENERGY PREDICTED BY IDOCK:   -1.93 KCAL/MOL
REMARK 927      BINDING AFFINITY PREDICTED BY RF-SCORE:    0.00 PKD
ROOT
HETATM    1  N   UNK A   1      -9.134  19.325  66.284  1.00  0.00    -0.372 NA 
HETATM    2  H1  UNK A   1      -8.850  19.763  65.408  1.00  0.00     0.000 HD 
HETATM    3  H2  UNK A   1     -10.042  19.678  66.587  1.00  0.00     0.000 HD 
HETATM    4  C   UNK A   1      -8.127  19.463  67.371  1.00  0.00    -0.281 C  
HETATM    5  O   UNK A   1      -5.861  18.536  67.569  1.00  0.00    -0.161 OA 
HETATM    6  C   UNK A   1      -6.776  18.932  66.863  1.00  0.00    -0.194 C  
HETATM    7  O   UNK A   1      -6.722  18.960  65.507  1.00  0.00    -0.294 OA 
ENDROOT
BRANCH   4   8
HETATM    8  C   UNK A   1      -8.553  18.805  68.686  1.00  0.00    -0.358 C  
BRANCH   8   9
HETATM    9  C   UNK A   1      -8.607  17.277  68.657  1.00  0.00    -0.265 C  
BRANCH   9  10
HETATM   10  C   UNK A   1     -10.016  16.819  68.362  1.00  0.00    -0.268 C  
HETATM   11  N   UNK A   1     -10.241  15.480  68.601  1.00  0.00    -0.211 N  
HETATM   12  O   UNK A   1     -10.871  17.575  67.910  1.00  0.00    -0.374 OA 
HETATM   13  H   UNK A   1      -9.481  14.881  68.923  1.00  0.00     0.000 HD 
BRANCH  11  14
HETATM   14  C   UNK A   1     -11.583  14.920  68.388  1.00  0.00    -0.325 C  
BRANCH  14  15
HETATM   15  C   UNK A   1     -12.200  14.580  69.759  1.00  0.00    -0.312 C  
ATOM     16  H   GLY A   2     -13.024  16.477  69.845  1.00  0.00     0.000 HD 
ATOM     17  N   GLY A   2     -12.955  15.582  70.329  1.00  0.00    -0.228 N  
HETATM   18  O   UNK A   1     -12.020  13.508  70.315  1.00  0.00    -0.327 OA 
BRANCH  17  19
ATOM     19  CA  GLY A   2     -13.658  15.417  71.589  1.00  0.00    -0.509 C  
ATOM     20  C   GLY A   2     -12.949  16.016  72.793  1.00  0.00    -0.431 C  
ATOM     21  O   GLY A   2     -11.589  16.102  72.682  1.00  0.00    -0.417 OA 
ATOM     22  OXT GLY A   2     -13.519  16.342  73.824  1.00  0.00    -0.614 OA 
ENDBRANCH  17  19
ENDBRANCH  14  15
BRANCH  14  23
HETATM   23  C   UNK A   1     -11.517  13.682  67.478  1.00  0.00    -0.329 C  
BRANCH  23  24
HETATM   24  S   UNK A   1     -10.227  12.462  67.882  1.00  0.00    -0.219 SA 
BRANCH  24  25
HETATM   25  S   UNK A   1     -11.336  10.785  68.279  1.00  0.00    -0.282 SA 
BRANCH  25  26
HETATM   26  C   UNK A   1     -10.081   9.459  68.179  1.00  0.00    -0.181 C  
BRANCH  26  27
HETATM   27  C   UNK A   1      -8.655   9.869  68.589  1.00  0.00    -0.119 C  
BRANCH  27  28
HETATM   28  C   UNK A   1      -8.278   9.245  69.965  1.00  0.00    -0.154 C  
ATOM     29  H   GLY A   2      -9.997   8.058  69.976  1.00  0.00     0.000 HD 
ATOM     30  N   GLY A   2      -9.128   8.276  70.462  1.00  0.00    -0.145 N  
HETATM   31  O   UNK A   1      -7.217   9.493  70.536  1.00  0.00    -0.110 OA 
BRANCH  30  32
ATOM     32  CA  GLY A   2      -8.773   7.570  71.687  1.00  0.00    -0.116 C  
ATOM     33  OXT GLY A   2      -8.817   7.917  74.104  1.00  0.00    -0.258 OA 
ATOM     34  C   GLY A   2      -9.350   8.083  73.013  1.00  0.00    -0.275 C  
ATOM     35  O   GLY A   2     -10.609   8.552  72.929  1.00  0.00    -0.161 OA 
ENDBRANCH  30  32
ENDBRANCH  27  28
BRANCH  27  36
HETATM   36  N   UNK A   1      -7.658   9.820  67.497  1.00  0.00    -0.091 N  
HETATM   37  H   UNK A   1      -7.648   9.013  66.874  1.00  0.00     0.000 HD 
HETATM   38  O   UNK A   1      -6.766  11.891  67.904  1.00  0.00    -0.068 OA 
HETATM   39  C   UNK A   1      -6.742  10.826  67.296  1.00  0.00    -0.080 C  
BRANCH  39  40
HETATM   40  C   UNK A   1      -5.751  10.617  66.161  1.00  0.00    -0.110 C  
BRANCH  40  41
HETATM   41  C   UNK A   1      -5.803   9.258  65.436  1.00  0.00    -0.058 C  
BRANCH  41  42
HETATM   42  C   UNK A   1      -6.664   9.159  64.169  1.00  0.00    -0.088 C  
HETATM   43  N   UNK A   1      -7.119  10.492  63.689  1.00  0.00    -0.343 NA 
HETATM   44  C   UNK A   1      -7.906   8.336  64.456  1.00  0.00    -0.130 C  
HETATM   45  O   UNK A   1      -8.016   7.125  64.519  1.00  0.00    -0.122 OA 
HETATM   46  O   UNK A   1      -8.935   9.172  64.719  1.00  0.00    -0.194 OA 
HETATM   47  H2  UNK A   1      -6.330  11.122  63.550  1.00  0.00     0.000 HD 
HETATM   48  H1  UNK A   1      -7.691  10.426  62.848  1.00  0.00     0.000 HD 
ENDBRANCH  41  42
ENDBRANCH  40  41
ENDBRANCH  39  40
ENDBRANCH  27  36
ENDBRANCH  26  27
ENDBRANCH  25  26
ENDBRANCH  24  25
ENDBRANCH  23  24
ENDBRANCH  14  23
ENDBRANCH  11  14
ENDBRANCH   9  10
ENDBRANCH   8   9
ENDBRANCH   4   8
TORSDOF 17
ENDMDL
MODEL      180
REMARK 921   NORMALIZED FREE ENERGY PREDICTED BY IDOCK:   -4.28 KCAL/MOL
REMARK 922        TOTAL FREE ENERGY PREDICTED BY IDOCK:  -11.50 KCAL/MOL
REMARK 923 INTER-LIGAND FREE ENERGY PREDICTED BY IDOCK:   -9.29 KCAL/MOL
REMARK 924 INTRA-LIGAND FREE ENERGY PREDICTED BY IDOCK:   -2.21 KCAL/MOL
REMARK 927      BINDING AFFINITY PREDICTED BY RF-SCORE:    0.00 PKD
ROOT
HETATM    1  N   UNK A   1     -11.105   8.061  72.084  1.00  0.00    -0.286 NA 
HETATM    2  H1  UNK A   1     -11.643   7.899  72.935  1.00  0.00     0.000 HD 
HETATM    3  H2  UNK A   1     -10.136   7.767  72.209  1.00  0.00     0.000 HD 
HETATM    4  C   UNK A   1     -11.171   9.464  71.595  1.00  0.00    -0.361 C  
HETATM    5  O   UNK A   1     -13.067  10.756  70.716  1.00  0.00    -0.308 OA 
HETATM    6  C   UNK A   1     -12.648   9.864  71.437  1.00  0.00    -0.398 C  
HETATM    7  O   UNK A   1     -13.446   9.087  72.214  1.00  0.00    -0.413 OA 
ENDROOT
BRANCH   4   8
HETATM    8  C   UNK A   1     -10.364   9.706  70.318  1.00  0.00    -0.336 C  
BRANCH   8   9
HETATM    9  C   UNK A   1      -9.060   8.912  70.217  1.00  0.00    -0.201 C  
BRANCH   9  10
HETATM   10  C   UNK A   1      -7.880   9.841  70.384  1.00  0.00    -0.118 C  
HETATM   11  N   UNK A   1      -7.734  10.764  69.369  1.00  0.00    -0.273 N  
HETATM   12  O   UNK A   1      -7.098   9.748  71.325  1.00  0.00    -0.326 OA 
HETATM   13  H   UNK A   1      -8.378  10.762  68.578  1.00  0.00     0.000 HD 
BRANCH  11  14
HETATM   14  C   UNK A   1      -6.645  11.747  69.434  1.00  0.00    -0.113 C  
BRANCH  14  15
HETATM   15  C   UNK A   1      -7.188  13.116  68.977  1.00  0.00     0.005 C  
ATOM     16  H   GLY A   2      -9.040  12.256  68.641  1.00  0.00     0.000 HD 
ATOM     17  N   GLY A   2      -8.519  13.133  68.622  1.00  0.00    -0.041 N  
HETATM   18  O   UNK A   1      -6.487  14.114  68.912  1.00  0.00    -0.085 OA 
BRANCH  17  19
ATOM     19  CA  GLY A   2      -9.211  14.345  68.223  1.00  0.00    -0.201 C  
ATOM     20  C   GLY A   2     -10.620  14.482  68.777  1.00  0.00    -0.248 C  
ATOM     21  O   GLY A   2     -11.248  13.302  69.064  1.00  0.00    -0.256 OA 
ATOM     22  OXT GLY A   2     -11.199  15.551  68.904  1.00  0.00    -0.265 OA 
ENDBRANCH  17  19
ENDBRANCH  14  15
BRANCH  14  23
HETATM   23  C   UNK A   1      -5.454  11.297  68.570  1.00  0.00    -0.042 C  
BRANCH  23  24
HETATM   24  S   UNK A   1      -5.614  11.583  66.779  1.00  0.00    -0.132 SA 
BRANCH  24  25
HETATM   25  S   UNK A   1      -6.718   9.961  66.186  1.00  0.00    -0.097 SA 
BRANCH  25  26
HETATM   26  C   UNK A   1      -8.350  10.709  65.841  1.00  0.00    -0.161 C  
BRANCH  26  27
HETATM   27  C   UNK A   1      -9.316   9.835  65.020  1.00  0.00    -0.263 C  
BRANCH  27  28
HETATM   28  C   UNK A   1     -10.209  10.719  64.100  1.00  0.00    -0.344 C  
ATOM     29  H   GLY A   2     -11.381  11.337  65.715  1.00  0.00     0.000 HD 
ATOM     30  N   GLY A   2     -11.204  11.451  64.717  1.00  0.00    -0.189 N  
HETATM   31  O   UNK A   1      -9.977  10.872  62.902  1.00  0.00    -0.302 OA 
BRANCH  30  32
ATOM     32  CA  GLY A   2     -12.000  12.386  63.932  1.00  0.00    -0.486 C  
ATOM     33  OXT GLY A   2     -12.720  14.719  64.004  1.00  0.00    -0.786 OA 
ATOM     34  C   GLY A   2     -11.847  13.887  64.217  1.00  0.00    -0.412 C  
ATOM     35  O   GLY A   2     -10.593  14.270  64.526  1.00  0.00    -0.388 OA 
ENDBRANCH  30  32
ENDBRANCH  27  28
BRANCH  27  36
HETATM   36  N   UNK A   1      -8.711   8.612  64.448  1.00  0.00    -0.403 N  
HETATM   37  H   UNK A   1      -8.277   8.660  63.527  1.00  0.00     0.000 HD 
HETATM   38  O   UNK A   1      -9.089   7.289  66.280  1.00  0.00    -0.162 OA 
HETATM   39  C   UNK A   1      -8.716   7.411  65.118  1.00  0.00     0.146 C  
BRANCH  39  40
HETATM   40  C   UNK A   1      -8.095   6.230  64.387  1.00  0.00    -0.091 C  
BRANCH  40  41
HETATM   41  C   UNK A   1      -7.756   4.989  65.234  1.00  0.00    -0.087 C  
BRANCH  41  42
HETATM   42  C   UNK A   1      -8.745   3.814  65.204  1.00  0.00    -0.116 C  
HETATM   43  N   UNK A   1      -9.439   3.693  63.894  1.00  0.00    -0.134 NA 
HETATM   44  C   UNK A   1      -9.813   4.016  66.263  1.00  0.00    -0.159 C  
HETATM   45  O   UNK A   1      -9.742   3.811  67.461  1.00  0.00    -0.186 OA 
HETATM   46  O   UNK A   1     -10.910   4.553  65.683  1.00  0.00    -0.270 OA 
HETATM   47  H2  UNK A   1      -8.770   3.631  63.127  1.00  0.00     0.000 HD 
HETATM   48  H1  UNK A   1     -10.095   2.913  63.874  1.00  0.00     0.000 HD 
ENDBRANCH  41  42
ENDBRANCH  40  41
ENDBRANCH  39  40
ENDBRANCH  27  36
ENDBRANCH  26  27
ENDBRANCH  25  26
ENDBRANCH  24  25
ENDBRANCH  23  24
ENDBRANCH  14  23
ENDBRANCH  11  14
ENDBRANCH   9  10
ENDBRANCH   8   9
ENDBRANCH   4   8
TORSDOF 17
ENDMDL
MODEL      181
REMARK 921   NORMALIZED FREE ENERGY PREDICTED BY IDOCK:   -4.27 KCAL/MOL
REMARK 922        TOTAL FREE ENERGY PREDICTED BY IDOCK:  -11.49 KCAL/MOL
REMARK 923 INTER-LIGAND FREE ENERGY PREDICTED BY IDOCK:  -10.71 KCAL/MOL
REMARK 924 INTRA-LIGAND FREE ENERGY PREDICTED BY IDOCK:   -0.78 KCAL/MOL
REMARK 927      BINDING AFFINITY PREDICTED BY RF-SCORE:    0.00 PKD
ROOT
HETATM    1  N   UNK A   1     -12.776   6.384  72.215  1.00  0.00    -0.540 NA 
HETATM    2  H1  UNK A   1     -13.105   5.452  71.966  1.00  0.00     0.000 HD 
HETATM    3  H2  UNK A   1     -13.161   7.084  71.581  1.00  0.00     0.000 HD 
HETATM    4  C   UNK A   1     -11.294   6.493  72.283  1.00  0.00    -0.282 C  
HETATM    5  O   UNK A   1      -9.690   5.446  73.822  1.00  0.00    -0.144 OA 
HETATM    6  C   UNK A   1     -10.762   5.410  73.239  1.00  0.00    -0.276 C  
HETATM    7  O   UNK A   1     -11.648   4.388  73.354  1.00  0.00    -0.282 OA 
ENDROOT
BRANCH   4   8
HETATM    8  C   UNK A   1     -10.800   7.892  72.658  1.00  0.00    -0.428 C  
BRANCH   8   9
HETATM    9  C   UNK A   1     -11.411   9.033  71.843  1.00  0.00    -0.438 C  
BRANCH   9  10
HETATM   10  C   UNK A   1     -10.631   9.222  70.563  1.00  0.00    -0.252 C  
HETATM   11  N   UNK A   1     -11.264   8.745  69.434  1.00  0.00    -0.432 N  
HETATM   12  O   UNK A   1      -9.509   9.721  70.544  1.00  0.00    -0.229 OA 
HETATM   13  H   UNK A   1     -12.172   8.286  69.511  1.00  0.00     0.000 HD 
BRANCH  11  14
HETATM   14  C   UNK A   1     -10.624   8.902  68.122  1.00  0.00    -0.157 C  
BRANCH  14  15
HETATM   15  C   UNK A   1      -9.418   7.944  68.042  1.00  0.00    -0.149 C  
ATOM     16  H   GLY A   2     -10.606   6.410  68.761  1.00  0.00     0.000 HD 
ATOM     17  N   GLY A   2      -9.674   6.645  68.420  1.00  0.00    -0.126 N  
HETATM   18  O   UNK A   1      -8.308   8.311  67.690  1.00  0.00    -0.124 OA 
BRANCH  17  19
ATOM     19  CA  GLY A   2      -8.672   5.595  68.354  1.00  0.00    -0.109 C  
ATOM     20  C   GLY A   2      -8.373   5.092  66.951  1.00  0.00    -0.107 C  
ATOM     21  O   GLY A   2      -9.395   5.230  66.054  1.00  0.00    -0.153 OA 
ATOM     22  OXT GLY A   2      -7.329   4.540  66.636  1.00  0.00    -0.078 OA 
ENDBRANCH  17  19
ENDBRANCH  14  15
BRANCH  14  23
HETATM   23  C   UNK A   1     -10.197  10.363  67.896  1.00  0.00    -0.179 C  
BRANCH  23  24
HETATM   24  S   UNK A   1     -11.528  11.523  67.449  1.00  0.00    -0.226 SA 
BRANCH  24  25
HETATM   25  S   UNK A   1     -10.515  12.930  66.355  1.00  0.00    -0.271 SA 
BRANCH  25  26
HETATM   26  C   UNK A   1      -9.622  13.859  67.651  1.00  0.00    -0.215 C  
BRANCH  26  27
HETATM   27  C   UNK A   1      -9.666  15.392  67.513  1.00  0.00    -0.208 C  
BRANCH  27  28
HETATM   28  C   UNK A   1     -10.562  16.018  68.624  1.00  0.00    -0.266 C  
ATOM     29  H   GLY A   2     -11.232  14.137  69.240  1.00  0.00     0.000 HD 
ATOM     30  N   GLY A   2     -11.254  15.139  69.432  1.00  0.00    -0.266 N  
HETATM   31  O   UNK A   1     -10.567  17.223  68.867  1.00  0.00    -0.328 OA 
BRANCH  30  32
ATOM     32  CA  GLY A   2     -12.018  15.652  70.562  1.00  0.00    -0.385 C  
ATOM     33  OXT GLY A   2     -14.072  15.156  71.787  1.00  0.00    -0.445 OA 
ATOM     34  C   GLY A   2     -13.085  14.744  71.189  1.00  0.00    -0.382 C  
ATOM     35  O   GLY A   2     -12.755  13.439  71.226  1.00  0.00    -0.354 OA 
ENDBRANCH  30  32
ENDBRANCH  27  28
BRANCH  27  36
HETATM   36  N   UNK A   1      -8.362  16.026  67.221  1.00  0.00    -0.169 N  
HETATM   37  H   UNK A   1      -7.516  15.621  67.622  1.00  0.00     0.000 HD 
HETATM   38  O   UNK A   1      -9.191  17.616  65.796  1.00  0.00    -0.505 OA 
HETATM   39  C   UNK A   1      -8.252  17.144  66.428  1.00  0.00    -0.292 C  
BRANCH  39  40
HETATM   40  C   UNK A   1      -6.851  17.710  66.252  1.00  0.00    -0.322 C  
BRANCH  40  41
HETATM   41  C   UNK A   1      -6.176  18.295  67.508  1.00  0.00    -0.185 C  
BRANCH  41  42
HETATM   42  C   UNK A   1      -6.757  19.592  68.090  1.00  0.00    -0.266 C  
HETATM   43  N   UNK A   1      -8.029  19.361  68.826  1.00  0.00    -0.361 NA 
HETATM   44  C   UNK A   1      -7.058  20.568  66.968  1.00  0.00    -0.299 C  
HETATM   45  O   UNK A   1      -6.286  21.290  66.362  1.00  0.00    -0.280 OA 
HETATM   46  O   UNK A   1      -8.370  20.484  66.652  1.00  0.00    -0.203 OA 
HETATM   47  H2  UNK A   1      -7.912  18.652  69.550  1.00  0.00     0.000 HD 
HETATM   48  H1  UNK A   1      -8.415  20.222  69.212  1.00  0.00     0.000 HD 
ENDBRANCH  41  42
ENDBRANCH  40  41
ENDBRANCH  39  40
ENDBRANCH  27  36
ENDBRANCH  26  27
ENDBRANCH  25  26
ENDBRANCH  24  25
ENDBRANCH  23  24
ENDBRANCH  14  23
ENDBRANCH  11  14
ENDBRANCH   9  10
ENDBRANCH   8   9
ENDBRANCH   4   8
TORSDOF 17
ENDMDL
MODEL      182
REMARK 921   NORMALIZED FREE ENERGY PREDICTED BY IDOCK:   -4.27 KCAL/MOL
REMARK 922        TOTAL FREE ENERGY PREDICTED BY IDOCK:  -11.49 KCAL/MOL
REMARK 923 INTER-LIGAND FREE ENERGY PREDICTED BY IDOCK:   -9.94 KCAL/MOL
REMARK 924 INTRA-LIGAND FREE ENERGY PREDICTED BY IDOCK:   -1.55 KCAL/MOL
REMARK 927      BINDING AFFINITY PREDICTED BY RF-SCORE:    0.00 PKD
ROOT
HETATM    1  N   UNK A   1     -10.838   4.716  65.649  1.00  0.00    -0.795 NA 
HETATM    2  H1  UNK A   1     -11.532   5.029  64.971  1.00  0.00     0.000 HD 
HETATM    3  H2  UNK A   1     -10.632   5.454  66.322  1.00  0.00     0.000 HD 
HETATM    4  C   UNK A   1      -9.586   4.208  65.026  1.00  0.00    -0.180 C  
HETATM    5  O   UNK A   1      -9.196   2.232  63.620  1.00  0.00    -0.093 OA 
HETATM    6  C   UNK A   1      -9.949   3.110  64.011  1.00  0.00    -0.169 C  
HETATM    7  O   UNK A   1     -11.234   3.240  63.595  1.00  0.00    -0.279 OA 
ENDROOT
BRANCH   4   8
HETATM    8  C   UNK A   1      -8.544   3.738  66.044  1.00  0.00    -0.113 C  
BRANCH   8   9
HETATM    9  C   UNK A   1      -7.312   4.635  66.169  1.00  0.00    -0.077 C  
BRANCH   9  10
HETATM   10  C   UNK A   1      -7.647   5.854  66.997  1.00  0.00    -0.099 C  
HETATM   11  N   UNK A   1      -8.370   5.584  68.139  1.00  0.00    -0.099 N  
HETATM   12  O   UNK A   1      -7.332   6.989  66.651  1.00  0.00    -0.077 OA 
HETATM   13  H   UNK A   1      -8.657   4.629  68.352  1.00  0.00     0.000 HD 
BRANCH  11  14
HETATM   14  C   UNK A   1      -8.727   6.682  69.048  1.00  0.00    -0.129 C  
BRANCH  14  15
HETATM   15  C   UNK A   1      -8.387   6.260  70.491  1.00  0.00    -0.129 C  
ATOM     16  H   GLY A   2      -9.154   4.377  70.108  1.00  0.00     0.000 HD 
ATOM     17  N   GLY A   2      -8.694   4.956  70.810  1.00  0.00    -0.119 N  
HETATM   18  O   UNK A   1      -7.898   7.029  71.304  1.00  0.00    -0.097 OA 
BRANCH  17  19
ATOM     19  CA  GLY A   2      -8.391   4.370  72.104  1.00  0.00    -0.108 C  
ATOM     20  C   GLY A   2      -9.610   3.980  72.924  1.00  0.00    -0.129 C  
ATOM     21  O   GLY A   2     -10.744   4.695  72.656  1.00  0.00    -0.206 OA 
ATOM     22  OXT GLY A   2      -9.590   3.139  73.811  1.00  0.00    -0.091 OA 
ENDBRANCH  17  19
ENDBRANCH  14  15
BRANCH  14  23
HETATM   23  C   UNK A   1     -10.215   7.045  68.904  1.00  0.00    -0.180 C  
BRANCH  23  24
HETATM   24  S   UNK A   1     -11.095   7.437  70.449  1.00  0.00    -0.257 SA 
BRANCH  24  25
HETATM   25  S   UNK A   1     -10.751   9.449  70.635  1.00  0.00    -0.316 SA 
BRANCH  25  26
HETATM   26  C   UNK A   1     -12.392  10.158  70.253  1.00  0.00    -0.138 C  
BRANCH  26  27
HETATM   27  C   UNK A   1     -12.409  11.675  69.990  1.00  0.00    -0.187 C  
BRANCH  27  28
HETATM   28  C   UNK A   1     -12.858  12.449  71.265  1.00  0.00    -0.240 C  
ATOM     29  H   GLY A   2     -12.663  14.292  70.302  1.00  0.00     0.000 HD 
ATOM     30  N   GLY A   2     -12.956  13.821  71.158  1.00  0.00    -0.319 N  
HETATM   31  O   UNK A   1     -13.234  11.876  72.287  1.00  0.00    -0.451 OA 
BRANCH  30  32
ATOM     32  CA  GLY A   2     -13.481  14.594  72.277  1.00  0.00    -0.408 C  
ATOM     33  OXT GLY A   2     -12.753  15.429  74.454  1.00  0.00    -0.476 OA 
ATOM     34  C   GLY A   2     -12.483  15.182  73.285  1.00  0.00    -0.483 C  
ATOM     35  O   GLY A   2     -11.330  15.614  72.740  1.00  0.00    -0.301 OA 
ENDBRANCH  30  32
ENDBRANCH  27  28
BRANCH  27  36
HETATM   36  N   UNK A   1     -11.247  12.187  69.230  1.00  0.00    -0.365 N  
HETATM   37  H   UNK A   1     -10.515  12.692  69.728  1.00  0.00     0.000 HD 
HETATM   38  O   UNK A   1     -11.877  11.294  67.216  1.00  0.00    -0.562 OA 
HETATM   39  C   UNK A   1     -11.122  12.003  67.872  1.00  0.00    -0.236 C  
BRANCH  39  40
HETATM   40  C   UNK A   1      -9.895  12.622  67.220  1.00  0.00    -0.206 C  
BRANCH  40  41
HETATM   41  C   UNK A   1      -9.587  14.090  67.573  1.00  0.00    -0.228 C  
BRANCH  41  42
HETATM   42  C   UNK A   1     -10.253  15.181  66.722  1.00  0.00    -0.264 C  
HETATM   43  N   UNK A   1     -10.232  14.857  65.271  1.00  0.00    -0.370 NA 
HETATM   44  C   UNK A   1      -9.512  16.493  66.901  1.00  0.00    -0.237 C  
HETATM   45  O   UNK A   1      -9.587  17.288  67.821  1.00  0.00    -0.254 OA 
HETATM   46  O   UNK A   1      -8.646  16.652  65.875  1.00  0.00    -0.473 OA 
HETATM   47  H2  UNK A   1     -10.650  13.945  65.091  1.00  0.00     0.000 HD 
HETATM   48  H1  UNK A   1     -10.674  15.582  64.705  1.00  0.00     0.000 HD 
ENDBRANCH  41  42
ENDBRANCH  40  41
ENDBRANCH  39  40
ENDBRANCH  27  36
ENDBRANCH  26  27
ENDBRANCH  25  26
ENDBRANCH  24  25
ENDBRANCH  23  24
ENDBRANCH  14  23
ENDBRANCH  11  14
ENDBRANCH   9  10
ENDBRANCH   8   9
ENDBRANCH   4   8
TORSDOF 17
ENDMDL
MODEL      183
REMARK 921   NORMALIZED FREE ENERGY PREDICTED BY IDOCK:   -4.26 KCAL/MOL
REMARK 922        TOTAL FREE ENERGY PREDICTED BY IDOCK:  -11.46 KCAL/MOL
REMARK 923 INTER-LIGAND FREE ENERGY PREDICTED BY IDOCK:  -10.83 KCAL/MOL
REMARK 924 INTRA-LIGAND FREE ENERGY PREDICTED BY IDOCK:   -0.63 KCAL/MOL
REMARK 927      BINDING AFFINITY PREDICTED BY RF-SCORE:    0.00 PKD
ROOT
HETATM    1  N   UNK A   1     -13.303  15.766  70.550  1.00  0.00    -0.757 NA 
HETATM    2  H1  UNK A   1     -13.059  16.756  70.534  1.00  0.00     0.000 HD 
HETATM    3  H2  UNK A   1     -14.001  15.556  69.836  1.00  0.00     0.000 HD 
HETATM    4  C   UNK A   1     -13.753  15.285  71.883  1.00  0.00    -0.499 C  
HETATM    5  O   UNK A   1     -12.522  15.078  73.999  1.00  0.00    -0.566 OA 
HETATM    6  C   UNK A   1     -12.677  15.637  72.925  1.00  0.00    -0.453 C  
HETATM    7  O   UNK A   1     -11.906  16.668  72.495  1.00  0.00    -0.506 OA 
ENDROOT
BRANCH   4   8
HETATM    8  C   UNK A   1     -14.120  13.799  71.906  1.00  0.00    -0.415 C  
BRANCH   8   9
HETATM    9  C   UNK A   1     -12.940  12.845  72.099  1.00  0.00    -0.350 C  
BRANCH   9  10
HETATM   10  C   UNK A   1     -12.435  12.376  70.755  1.00  0.00    -0.267 C  
HETATM   11  N   UNK A   1     -11.586  13.261  70.124  1.00  0.00    -0.525 N  
HETATM   12  O   UNK A   1     -12.789  11.312  70.256  1.00  0.00    -0.136 OA 
HETATM   13  H   UNK A   1     -11.369  14.159  70.556  1.00  0.00     0.000 HD 
BRANCH  11  14
HETATM   14  C   UNK A   1     -10.999  12.904  68.826  1.00  0.00    -0.254 C  
BRANCH  14  15
HETATM   15  C   UNK A   1     -11.749  13.670  67.717  1.00  0.00    -0.362 C  
ATOM     16  H   GLY A   2     -11.516  12.047  66.455  1.00  0.00     0.000 HD 
ATOM     17  N   GLY A   2     -11.920  12.979  66.538  1.00  0.00    -0.402 N  
HETATM   18  O   UNK A   1     -12.146  14.816  67.861  1.00  0.00    -0.288 OA 
BRANCH  17  19
ATOM     19  CA  GLY A   2     -12.652  13.523  65.407  1.00  0.00    -0.483 C  
ATOM     20  C   GLY A   2     -11.953  13.367  64.066  1.00  0.00    -0.464 C  
ATOM     21  O   GLY A   2     -10.590  13.288  64.127  1.00  0.00    -0.416 OA 
ATOM     22  OXT GLY A   2     -12.536  13.376  62.992  1.00  0.00    -0.669 OA 
ENDBRANCH  17  19
ENDBRANCH  14  15
BRANCH  14  23
HETATM   23  C   UNK A   1     -11.064  11.383  68.600  1.00  0.00    -0.236 C  
BRANCH  23  24
HETATM   24  S   UNK A   1      -9.568  10.446  69.047  1.00  0.00    -0.209 SA 
BRANCH  24  25
HETATM   25  S   UNK A   1     -10.279   8.525  69.132  1.00  0.00    -0.213 SA 
BRANCH  25  26
HETATM   26  C   UNK A   1      -8.836   7.554  68.571  1.00  0.00    -0.126 C  
BRANCH  26  27
HETATM   27  C   UNK A   1      -9.169   6.238  67.844  1.00  0.00    -0.116 C  
BRANCH  27  28
HETATM   28  C   UNK A   1      -8.968   6.395  66.307  1.00  0.00    -0.156 C  
ATOM     29  H   GLY A   2      -8.212   8.329  66.533  1.00  0.00     0.000 HD 
ATOM     30  N   GLY A   2      -8.402   7.576  65.871  1.00  0.00    -0.133 N  
HETATM   31  O   UNK A   1      -9.175   5.476  65.516  1.00  0.00    -0.138 OA 
BRANCH  30  32
ATOM     32  CA  GLY A   2      -8.079   7.740  64.459  1.00  0.00    -0.108 C  
ATOM     33  OXT GLY A   2      -8.730   9.133  62.561  1.00  0.00    -0.216 OA 
ATOM     34  C   GLY A   2      -8.511   9.039  63.763  1.00  0.00    -0.159 C  
ATOM     35  O   GLY A   2      -8.428  10.139  64.534  1.00  0.00    -0.160 OA 
ENDBRANCH  30  32
ENDBRANCH  27  28
BRANCH  27  36
HETATM   36  N   UNK A   1      -8.652   5.018  68.500  1.00  0.00    -0.094 N  
HETATM   37  H   UNK A   1      -7.721   4.682  68.254  1.00  0.00     0.000 HD 
HETATM   38  O   UNK A   1     -10.449   4.722  69.890  1.00  0.00    -0.181 OA 
HETATM   39  C   UNK A   1      -9.385   4.320  69.432  1.00  0.00    -0.166 C  
BRANCH  39  40
HETATM   40  C   UNK A   1      -8.740   3.061  69.990  1.00  0.00    -0.129 C  
BRANCH  40  41
HETATM   41  C   UNK A   1      -7.450   3.247  70.812  1.00  0.00    -0.040 C  
BRANCH  41  42
HETATM   42  C   UNK A   1      -7.556   3.132  72.339  1.00  0.00    -0.057 C  
HETATM   43  N   UNK A   1      -8.049   1.797  72.773  1.00  0.00    -0.052 NA 
HETATM   44  C   UNK A   1      -8.535   4.166  72.864  1.00  0.00    -0.100 C  
HETATM   45  O   UNK A   1      -8.355   5.355  73.054  1.00  0.00    -0.111 OA 
HETATM   46  O   UNK A   1      -9.740   3.578  73.045  1.00  0.00    -0.115 OA 
HETATM   47  H2  UNK A   1      -7.473   1.049  72.386  1.00  0.00     0.000 HD 
HETATM   48  H1  UNK A   1      -8.119   1.721  73.787  1.00  0.00     0.000 HD 
ENDBRANCH  41  42
ENDBRANCH  40  41
ENDBRANCH  39  40
ENDBRANCH  27  36
ENDBRANCH  26  27
ENDBRANCH  25  26
ENDBRANCH  24  25
ENDBRANCH  23  24
ENDBRANCH  14  23
ENDBRANCH  11  14
ENDBRANCH   9  10
ENDBRANCH   8   9
ENDBRANCH   4   8
TORSDOF 17
ENDMDL
MODEL      184
REMARK 921   NORMALIZED FREE ENERGY PREDICTED BY IDOCK:   -4.25 KCAL/MOL
REMARK 922        TOTAL FREE ENERGY PREDICTED BY IDOCK:  -11.45 KCAL/MOL
REMARK 923 INTER-LIGAND FREE ENERGY PREDICTED BY IDOCK:   -9.66 KCAL/MOL
REMARK 924 INTRA-LIGAND FREE ENERGY PREDICTED BY IDOCK:   -1.79 KCAL/MOL
REMARK 927      BINDING AFFINITY PREDICTED BY RF-SCORE:    0.00 PKD
ROOT
HETATM    1  N   UNK A   1      -9.516   3.665  72.560  1.00  0.00    -0.119 NA 
HETATM    2  H1  UNK A   1      -9.510   3.183  73.459  1.00  0.00     0.000 HD 
HETATM    3  H2  UNK A   1      -8.753   3.337  71.969  1.00  0.00     0.000 HD 
HETATM    4  C   UNK A   1      -9.488   5.148  72.681  1.00  0.00    -0.140 C  
HETATM    5  O   UNK A   1     -11.155   6.701  73.598  1.00  0.00    -0.105 OA 
HETATM    6  C   UNK A   1     -10.647   5.591  73.591  1.00  0.00    -0.282 C  
HETATM    7  O   UNK A   1     -11.042   4.578  74.403  1.00  0.00    -0.255 OA 
ENDROOT
BRANCH   4   8
HETATM    8  C   UNK A   1      -9.499   5.871  71.333  1.00  0.00    -0.168 C  
BRANCH   8   9
HETATM    9  C   UNK A   1     -10.298   5.174  70.231  1.00  0.00    -0.331 C  
BRANCH   9  10
HETATM   10  C   UNK A   1     -10.606   6.154  69.123  1.00  0.00    -0.282 C  
HETATM   11  N   UNK A   1      -9.493   6.661  68.486  1.00  0.00    -0.124 N  
HETATM   12  O   UNK A   1     -11.753   6.495  68.848  1.00  0.00    -0.071 OA 
HETATM   13  H   UNK A   1      -8.559   6.389  68.791  1.00  0.00     0.000 HD 
BRANCH  11  14
HETATM   14  C   UNK A   1      -9.662   7.597  67.366  1.00  0.00    -0.161 C  
BRANCH  14  15
HETATM   15  C   UNK A   1      -9.022   6.980  66.106  1.00  0.00    -0.136 C  
ATOM     16  H   GLY A   2      -9.239   5.096  66.934  1.00  0.00     0.000 HD 
ATOM     17  N   GLY A   2      -8.929   5.605  66.107  1.00  0.00    -0.147 N  
HETATM   18  O   UNK A   1      -8.608   7.657  65.178  1.00  0.00    -0.095 OA 
BRANCH  17  19
ATOM     19  CA  GLY A   2      -8.408   4.852  64.980  1.00  0.00    -0.136 C  
ATOM     20  C   GLY A   2      -9.469   4.298  64.042  1.00  0.00    -0.127 C  
ATOM     21  O   GLY A   2     -10.688   4.070  64.616  1.00  0.00    -0.260 OA 
ATOM     22  OXT GLY A   2      -9.258   4.007  62.875  1.00  0.00    -0.108 OA 
ENDBRANCH  17  19
ENDBRANCH  14  15
BRANCH  14  23
HETATM   23  C   UNK A   1      -9.039   8.963  67.701  1.00  0.00    -0.134 C  
BRANCH  23  24
HETATM   24  S   UNK A   1      -9.766  10.401  66.854  1.00  0.00    -0.188 SA 
BRANCH  24  25
HETATM   25  S   UNK A   1      -9.301  11.931  68.137  1.00  0.00    -0.193 SA 
BRANCH  25  26
HETATM   26  C   UNK A   1     -10.918  12.293  68.909  1.00  0.00    -0.219 C  
BRANCH  26  27
HETATM   27  C   UNK A   1     -11.680  13.491  68.313  1.00  0.00    -0.359 C  
BRANCH  27  28
HETATM   28  C   UNK A   1     -12.114  14.479  69.436  1.00  0.00    -0.290 C  
ATOM     29  H   GLY A   2     -11.622  13.105  70.931  1.00  0.00     0.000 HD 
ATOM     30  N   GLY A   2     -11.941  14.055  70.738  1.00  0.00    -0.318 N  
HETATM   31  O   UNK A   1     -12.476  15.630  69.200  1.00  0.00    -0.126 OA 
BRANCH  30  32
ATOM     32  CA  GLY A   2     -12.218  14.973  71.836  1.00  0.00    -0.355 C  
ATOM     33  OXT GLY A   2     -14.134  15.944  72.998  1.00  0.00    -0.518 OA 
ATOM     34  C   GLY A   2     -13.630  14.978  72.439  1.00  0.00    -0.460 C  
ATOM     35  O   GLY A   2     -14.212  13.765  72.503  1.00  0.00    -0.706 OA 
ENDBRANCH  30  32
ENDBRANCH  27  28
BRANCH  27  36
HETATM   36  N   UNK A   1     -11.089  14.048  67.076  1.00  0.00    -0.298 N  
HETATM   37  H   UNK A   1     -10.083  14.211  67.039  1.00  0.00     0.000 HD 
HETATM   38  O   UNK A   1     -13.040  14.065  65.875  1.00  0.00    -0.411 OA 
HETATM   39  C   UNK A   1     -11.853  14.354  65.973  1.00  0.00    -0.372 C  
BRANCH  39  40
HETATM   40  C   UNK A   1     -11.113  14.960  64.790  1.00  0.00    -0.395 C  
BRANCH  40  41
HETATM   41  C   UNK A   1     -11.063  16.498  64.717  1.00  0.00    -0.197 C  
BRANCH  41  42
HETATM   42  C   UNK A   1      -9.867  17.204  65.370  1.00  0.00     0.423 C  
HETATM   43  N   UNK A   1      -8.934  16.247  66.024  1.00  0.00    -0.404 NA 
HETATM   44  C   UNK A   1     -10.358  18.158  66.443  1.00  0.00    -0.394 C  
HETATM   45  O   UNK A   1     -10.830  19.273  66.309  1.00  0.00    -0.383 OA 
HETATM   46  O   UNK A   1     -10.264  17.551  67.647  1.00  0.00    -0.314 OA 
HETATM   47  H2  UNK A   1      -8.625  15.528  65.370  1.00  0.00     0.000 HD 
HETATM   48  H1  UNK A   1      -8.139  16.716  66.459  1.00  0.00     0.000 HD 
ENDBRANCH  41  42
ENDBRANCH  40  41
ENDBRANCH  39  40
ENDBRANCH  27  36
ENDBRANCH  26  27
ENDBRANCH  25  26
ENDBRANCH  24  25
ENDBRANCH  23  24
ENDBRANCH  14  23
ENDBRANCH  11  14
ENDBRANCH   9  10
ENDBRANCH   8   9
ENDBRANCH   4   8
TORSDOF 17
ENDMDL
MODEL      185
REMARK 921   NORMALIZED FREE ENERGY PREDICTED BY IDOCK:   -4.22 KCAL/MOL
REMARK 922        TOTAL FREE ENERGY PREDICTED BY IDOCK:  -11.38 KCAL/MOL
REMARK 923 INTER-LIGAND FREE ENERGY PREDICTED BY IDOCK:   -9.70 KCAL/MOL
REMARK 924 INTRA-LIGAND FREE ENERGY PREDICTED BY IDOCK:   -1.68 KCAL/MOL
REMARK 927      BINDING AFFINITY PREDICTED BY RF-SCORE:    0.00 PKD
ROOT
HETATM    1  N   UNK A   1      -9.972   2.817  72.370  1.00  0.00    -0.157 NA 
HETATM    2  H1  UNK A   1     -10.375   2.558  73.270  1.00  0.00     0.000 HD 
HETATM    3  H2  UNK A   1      -9.409   2.054  71.993  1.00  0.00     0.000 HD 
HETATM    4  C   UNK A   1      -9.187   4.080  72.411  1.00  0.00    -0.116 C  
HETATM    5  O   UNK A   1      -9.909   6.391  72.825  1.00  0.00    -0.168 OA 
HETATM    6  C   UNK A   1     -10.071   5.193  72.998  1.00  0.00    -0.169 C  
HETATM    7  O   UNK A   1     -11.074   4.671  73.749  1.00  0.00    -0.296 OA 
ENDROOT
BRANCH   4   8
HETATM    8  C   UNK A   1      -8.582   4.469  71.061  1.00  0.00    -0.126 C  
BRANCH   8   9
HETATM    9  C   UNK A   1      -9.313   3.907  69.840  1.00  0.00    -0.245 C  
BRANCH   9  10
HETATM   10  C   UNK A   1      -9.508   4.998  68.813  1.00  0.00    -0.139 C  
HETATM   11  N   UNK A   1      -8.336   5.536  68.324  1.00  0.00    -0.099 N  
HETATM   12  O   UNK A   1     -10.621   5.394  68.479  1.00  0.00    -0.167 OA 
HETATM   13  H   UNK A   1      -7.437   5.212  68.677  1.00  0.00     0.000 HD 
BRANCH  11  14
HETATM   14  C   UNK A   1      -8.393   6.581  67.293  1.00  0.00    -0.113 C  
BRANCH  14  15
HETATM   15  C   UNK A   1      -7.714   6.050  66.014  1.00  0.00    -0.095 C  
ATOM     16  H   GLY A   2      -9.202   4.625  65.830  1.00  0.00     0.000 HD 
ATOM     17  N   GLY A   2      -8.361   5.004  65.395  1.00  0.00    -0.126 N  
HETATM   18  O   UNK A   1      -6.665   6.508  65.587  1.00  0.00    -0.046 OA 
BRANCH  17  19
ATOM     19  CA  GLY A   2      -7.897   4.417  64.151  1.00  0.00    -0.085 C  
ATOM     20  C   GLY A   2      -7.431   2.975  64.265  1.00  0.00    -0.071 C  
ATOM     21  O   GLY A   2      -6.974   2.608  65.500  1.00  0.00    -0.050 OA 
ATOM     22  OXT GLY A   2      -7.395   2.197  63.323  1.00  0.00    -0.046 OA 
ENDBRANCH  17  19
ENDBRANCH  14  15
BRANCH  14  23
HETATM   23  C   UNK A   1      -7.723   7.873  67.791  1.00  0.00    -0.121 C  
BRANCH  23  24
HETATM   24  S   UNK A   1      -8.187   9.401  66.917  1.00  0.00    -0.116 SA 
BRANCH  24  25
HETATM   25  S   UNK A   1      -8.279  10.758  68.450  1.00  0.00    -0.137 SA 
BRANCH  25  26
HETATM   26  C   UNK A   1      -9.975  10.510  69.085  1.00  0.00    -0.220 C  
BRANCH  26  27
HETATM   27  C   UNK A   1     -11.003  11.571  68.652  1.00  0.00    -0.223 C  
BRANCH  27  28
HETATM   28  C   UNK A   1     -11.670  12.229  69.897  1.00  0.00    -0.273 C  
ATOM     29  H   GLY A   2     -11.616  14.121  69.011  1.00  0.00     0.000 HD 
ATOM     30  N   GLY A   2     -11.930  13.583  69.819  1.00  0.00    -0.329 N  
HETATM   31  O   UNK A   1     -12.069  11.573  70.857  1.00  0.00    -0.349 OA 
BRANCH  30  32
ATOM     32  CA  GLY A   2     -12.657  14.238  70.900  1.00  0.00    -0.356 C  
ATOM     33  OXT GLY A   2     -12.222  15.724  72.789  1.00  0.00    -0.384 OA 
ATOM     34  C   GLY A   2     -11.973  15.400  71.634  1.00  0.00    -0.387 C  
ATOM     35  O   GLY A   2     -11.220  16.190  70.846  1.00  0.00    -0.361 OA 
ENDBRANCH  30  32
ENDBRANCH  27  28
BRANCH  27  36
HETATM   36  N   UNK A   1     -10.561  12.447  67.545  1.00  0.00    -0.216 N  
HETATM   37  H   UNK A   1      -9.740  13.036  67.680  1.00  0.00     0.000 HD 
HETATM   38  O   UNK A   1     -12.130  11.725  66.039  1.00  0.00    -0.399 OA 
HETATM   39  C   UNK A   1     -11.222  12.493  66.340  1.00  0.00    -0.306 C  
BRANCH  39  40
HETATM   40  C   UNK A   1     -10.677  13.473  65.311  1.00  0.00    -0.328 C  
BRANCH  40  41
HETATM   41  C   UNK A   1     -10.132  14.811  65.847  1.00  0.00    -0.343 C  
BRANCH  41  42
HETATM   42  C   UNK A   1     -11.017  16.056  65.688  1.00  0.00    -0.171 C  
HETATM   43  N   UNK A   1     -11.130  16.490  64.270  1.00  0.00    -1.300 NA 
HETATM   44  C   UNK A   1     -10.419  17.212  66.467  1.00  0.00    -0.255 C  
HETATM   45  O   UNK A   1     -10.477  17.432  67.664  1.00  0.00    -0.347 OA 
HETATM   46  O   UNK A   1      -9.705  17.989  65.622  1.00  0.00    -0.467 OA 
HETATM   47  H2  UNK A   1     -11.456  15.729  63.676  1.00  0.00     0.000 HD 
HETATM   48  H1  UNK A   1     -11.717  17.318  64.164  1.00  0.00     0.000 HD 
ENDBRANCH  41  42
ENDBRANCH  40  41
ENDBRANCH  39  40
ENDBRANCH  27  36
ENDBRANCH  26  27
ENDBRANCH  25  26
ENDBRANCH  24  25
ENDBRANCH  23  24
ENDBRANCH  14  23
ENDBRANCH  11  14
ENDBRANCH   9  10
ENDBRANCH   8   9
ENDBRANCH   4   8
TORSDOF 17
ENDMDL
MODEL      186
REMARK 921   NORMALIZED FREE ENERGY PREDICTED BY IDOCK:   -4.22 KCAL/MOL
REMARK 922        TOTAL FREE ENERGY PREDICTED BY IDOCK:  -11.38 KCAL/MOL
REMARK 923 INTER-LIGAND FREE ENERGY PREDICTED BY IDOCK:   -8.79 KCAL/MOL
REMARK 924 INTRA-LIGAND FREE ENERGY PREDICTED BY IDOCK:   -2.59 KCAL/MOL
REMARK 927      BINDING AFFINITY PREDICTED BY RF-SCORE:    0.00 PKD
ROOT
HETATM    1  N   UNK A   1      -9.947   5.833  66.599  1.00  0.00    -0.164 NA 
HETATM    2  H1  UNK A   1     -10.197   6.680  66.088  1.00  0.00     0.000 HD 
HETATM    3  H2  UNK A   1     -10.439   5.793  67.492  1.00  0.00     0.000 HD 
HETATM    4  C   UNK A   1      -8.482   5.668  66.796  1.00  0.00    -0.111 C  
HETATM    5  O   UNK A   1      -6.689   5.286  65.162  1.00  0.00    -0.046 OA 
HETATM    6  C   UNK A   1      -7.786   5.751  65.426  1.00  0.00    -0.107 C  
HETATM    7  O   UNK A   1      -8.557   6.419  64.531  1.00  0.00     0.043 OA 
ENDROOT
BRANCH   4   8
HETATM    8  C   UNK A   1      -8.108   4.398  67.563  1.00  0.00    -0.099 C  
BRANCH   8   9
HETATM    9  C   UNK A   1      -7.063   4.591  68.663  1.00  0.00    -0.052 C  
BRANCH   9  10
HETATM   10  C   UNK A   1      -7.502   5.692  69.599  1.00  0.00    -0.075 C  
HETATM   11  N   UNK A   1      -8.727   5.478  70.195  1.00  0.00    -0.127 N  
HETATM   12  O   UNK A   1      -6.836   6.708  69.776  1.00  0.00    -0.051 OA 
HETATM   13  H   UNK A   1      -9.268   4.644  69.970  1.00  0.00     0.000 HD 
BRANCH  11  14
HETATM   14  C   UNK A   1      -9.248   6.460  71.155  1.00  0.00    -0.156 C  
BRANCH  14  15
HETATM   15  C   UNK A   1      -9.645   5.723  72.450  1.00  0.00    -0.149 C  
ATOM     16  H   GLY A   2     -11.299   4.941  71.484  1.00  0.00     0.000 HD 
ATOM     17  N   GLY A   2     -10.780   4.948  72.362  1.00  0.00    -0.201 N  
HETATM   18  O   UNK A   1      -9.012   5.832  73.490  1.00  0.00    -0.129 OA 
BRANCH  17  19
ATOM     19  CA  GLY A   2     -11.268   4.139  73.465  1.00  0.00    -0.250 C  
ATOM     20  C   GLY A   2     -10.722   2.721  73.501  1.00  0.00    -0.184 C  
ATOM     21  O   GLY A   2     -10.346   2.213  72.289  1.00  0.00    -0.159 OA 
ATOM     22  OXT GLY A   2     -10.675   2.037  74.513  1.00  0.00    -0.136 OA 
ENDBRANCH  17  19
ENDBRANCH  14  15
BRANCH  14  23
HETATM   23  C   UNK A   1     -10.441   7.226  70.556  1.00  0.00    -0.217 C  
BRANCH  23  24
HETATM   24  S   UNK A   1     -10.884   8.787  71.382  1.00  0.00    -0.318 SA 
BRANCH  24  25
HETATM   25  S   UNK A   1     -10.567  10.161  69.894  1.00  0.00    -0.288 SA 
BRANCH  25  26
HETATM   26  C   UNK A   1     -11.859  11.407  70.237  1.00  0.00    -0.350 C  
BRANCH  26  27
HETATM   27  C   UNK A   1     -12.025  12.498  69.163  1.00  0.00    -0.236 C  
BRANCH  27  28
HETATM   28  C   UNK A   1     -12.083  13.910  69.818  1.00  0.00    -0.345 C  
ATOM     29  H   GLY A   2     -14.047  13.607  70.462  1.00  0.00     0.000 HD 
ATOM     30  N   GLY A   2     -13.247  14.239  70.484  1.00  0.00    -0.141 N  
HETATM   31  O   UNK A   1     -11.108  14.658  69.863  1.00  0.00    -0.251 OA 
BRANCH  30  32
ATOM     32  CA  GLY A   2     -13.324  15.496  71.217  1.00  0.00    -0.511 C  
ATOM     33  OXT GLY A   2     -14.010  16.321  73.411  1.00  0.00    -0.500 OA 
ATOM     34  C   GLY A   2     -13.487  15.438  72.742  1.00  0.00    -0.538 C  
ATOM     35  O   GLY A   2     -12.818  14.431  73.336  1.00  0.00    -0.468 OA 
ENDBRANCH  30  32
ENDBRANCH  27  28
BRANCH  27  36
HETATM   36  N   UNK A   1     -11.185  12.315  67.959  1.00  0.00    -0.249 N  
HETATM   37  H   UNK A   1     -10.280  11.855  68.054  1.00  0.00     0.000 HD 
HETATM   38  O   UNK A   1     -12.707  13.181  66.481  1.00  0.00    -0.199 OA 
HETATM   39  C   UNK A   1     -11.585  12.745  66.715  1.00  0.00    -0.370 C  
BRANCH  39  40
HETATM   40  C   UNK A   1     -10.597  12.527  65.579  1.00  0.00    -0.304 C  
BRANCH  40  41
HETATM   41  C   UNK A   1      -9.301  11.768  65.921  1.00  0.00    -0.214 C  
BRANCH  41  42
HETATM   42  C   UNK A   1      -9.109  10.373  65.307  1.00  0.00    -0.193 C  
HETATM   43  N   UNK A   1     -10.169  10.040  64.319  1.00  0.00    -0.384 NA 
HETATM   44  C   UNK A   1      -9.165   9.321  66.399  1.00  0.00    -0.180 C  
HETATM   45  O   UNK A   1      -8.295   8.997  67.187  1.00  0.00    -0.109 OA 
HETATM   46  O   UNK A   1     -10.410   8.795  66.438  1.00  0.00    -0.271 OA 
HETATM   47  H2  UNK A   1     -10.235  10.755  63.595  1.00  0.00     0.000 HD 
HETATM   48  H1  UNK A   1     -10.042   9.114  63.911  1.00  0.00     0.000 HD 
ENDBRANCH  41  42
ENDBRANCH  40  41
ENDBRANCH  39  40
ENDBRANCH  27  36
ENDBRANCH  26  27
ENDBRANCH  25  26
ENDBRANCH  24  25
ENDBRANCH  23  24
ENDBRANCH  14  23
ENDBRANCH  11  14
ENDBRANCH   9  10
ENDBRANCH   8   9
ENDBRANCH   4   8
TORSDOF 17
ENDMDL
MODEL      187
REMARK 921   NORMALIZED FREE ENERGY PREDICTED BY IDOCK:   -4.22 KCAL/MOL
REMARK 922        TOTAL FREE ENERGY PREDICTED BY IDOCK:  -11.37 KCAL/MOL
REMARK 923 INTER-LIGAND FREE ENERGY PREDICTED BY IDOCK:   -9.49 KCAL/MOL
REMARK 924 INTRA-LIGAND FREE ENERGY PREDICTED BY IDOCK:   -1.89 KCAL/MOL
REMARK 927      BINDING AFFINITY PREDICTED BY RF-SCORE:    0.00 PKD
ROOT
HETATM    1  N   UNK A   1     -11.001  12.034  69.689  1.00  0.00    -0.459 NA 
HETATM    2  H1  UNK A   1     -10.989  12.923  69.189  1.00  0.00     0.000 HD 
HETATM    3  H2  UNK A   1     -10.688  11.276  69.083  1.00  0.00     0.000 HD 
HETATM    4  C   UNK A   1     -12.320  11.712  70.298  1.00  0.00    -0.258 C  
HETATM    5  O   UNK A   1     -13.548  12.821  72.114  1.00  0.00    -0.521 OA 
HETATM    6  C   UNK A   1     -12.753  12.889  71.189  1.00  0.00    -0.276 C  
HETATM    7  O   UNK A   1     -12.134  14.037  70.812  1.00  0.00    -0.331 OA 
ENDROOT
BRANCH   4   8
HETATM    8  C   UNK A   1     -12.337  10.379  71.048  1.00  0.00    -0.490 C  
BRANCH   8   9
HETATM    9  C   UNK A   1     -10.959   9.787  71.347  1.00  0.00    -0.258 C  
BRANCH   9  10
HETATM   10  C   UNK A   1     -10.796   8.473  70.617  1.00  0.00    -0.225 C  
HETATM   11  N   UNK A   1      -9.489   8.138  70.333  1.00  0.00    -0.162 N  
HETATM   12  O   UNK A   1     -11.756   7.790  70.274  1.00  0.00    -0.123 OA 
HETATM   13  H   UNK A   1      -8.730   8.768  70.590  1.00  0.00     0.000 HD 
BRANCH  11  14
HETATM   14  C   UNK A   1      -9.197   6.866  69.659  1.00  0.00    -0.146 C  
BRANCH  14  15
HETATM   15  C   UNK A   1      -8.999   5.773  70.728  1.00  0.00    -0.148 C  
ATOM     16  H   GLY A   2      -8.177   7.183  71.999  1.00  0.00     0.000 HD 
ATOM     17  N   GLY A   2      -8.451   6.205  71.916  1.00  0.00    -0.128 N  
HETATM   18  O   UNK A   1      -9.287   4.602  70.535  1.00  0.00    -0.132 OA 
BRANCH  17  19
ATOM     19  CA  GLY A   2      -8.247   5.326  73.054  1.00  0.00    -0.112 C  
ATOM     20  C   GLY A   2      -6.850   4.735  73.155  1.00  0.00    -0.068 C  
ATOM     21  O   GLY A   2      -6.182   4.617  71.969  1.00  0.00    -0.019 OA 
ATOM     22  OXT GLY A   2      -6.360   4.326  74.198  1.00  0.00    -0.042 OA 
ENDBRANCH  17  19
ENDBRANCH  14  15
BRANCH  14  23
HETATM   23  C   UNK A   1      -7.959   7.001  68.756  1.00  0.00    -0.120 C  
BRANCH  23  24
HETATM   24  S   UNK A   1      -6.849   8.397  69.128  1.00  0.00    -0.056 SA 
BRANCH  24  25
HETATM   25  S   UNK A   1      -6.783   9.377  67.329  1.00  0.00    -0.076 SA 
BRANCH  25  26
HETATM   26  C   UNK A   1      -8.259  10.452  67.420  1.00  0.00    -0.117 C  
BRANCH  26  27
HETATM   27  C   UNK A   1      -8.383  11.498  66.297  1.00  0.00    -0.076 C  
BRANCH  27  28
HETATM   28  C   UNK A   1      -9.572  11.151  65.351  1.00  0.00    -0.229 C  
ATOM     29  H   GLY A   2      -9.235  12.855  64.190  1.00  0.00     0.000 HD 
ATOM     30  N   GLY A   2      -9.787  12.002  64.285  1.00  0.00    -0.212 N  
HETATM   31  O   UNK A   1     -10.217  10.110  65.456  1.00  0.00    -0.286 OA 
BRANCH  30  32
ATOM     32  CA  GLY A   2     -10.807  11.672  63.298  1.00  0.00    -0.304 C  
ATOM     33  OXT GLY A   2     -13.240  11.658  63.084  1.00  0.00    -0.471 OA 
ATOM     34  C   GLY A   2     -12.232  12.197  63.524  1.00  0.00    -0.567 C  
ATOM     35  O   GLY A   2     -12.293  13.427  64.069  1.00  0.00    -0.588 OA 
ENDBRANCH  30  32
ENDBRANCH  27  28
BRANCH  27  36
HETATM   36  N   UNK A   1      -8.221  12.902  66.737  1.00  0.00    -0.408 N  
HETATM   37  H   UNK A   1      -7.292  13.323  66.709  1.00  0.00     0.000 HD 
HETATM   38  O   UNK A   1     -10.447  13.283  67.122  1.00  0.00    -0.246 OA 
HETATM   39  C   UNK A   1      -9.280  13.657  67.183  1.00  0.00    -0.244 C  
BRANCH  39  40
HETATM   40  C   UNK A   1      -8.953  15.069  67.643  1.00  0.00    -0.180 C  
BRANCH  40  41
HETATM   41  C   UNK A   1      -7.983  15.879  66.762  1.00  0.00    -0.287 C  
BRANCH  41  42
HETATM   42  C   UNK A   1      -6.568  16.128  67.304  1.00  0.00    -0.196 C  
HETATM   43  N   UNK A   1      -5.803  14.866  67.489  1.00  0.00    -0.346 NA 
HETATM   44  C   UNK A   1      -6.651  16.807  68.659  1.00  0.00    -0.169 C  
HETATM   45  O   UNK A   1      -6.858  17.981  68.909  1.00  0.00    -0.239 OA 
HETATM   46  O   UNK A   1      -6.525  15.872  69.627  1.00  0.00    -0.175 OA 
HETATM   47  H2  UNK A   1      -5.776  14.322  66.627  1.00  0.00     0.000 HD 
HETATM   48  H1  UNK A   1      -4.863  15.032  67.850  1.00  0.00     0.000 HD 
ENDBRANCH  41  42
ENDBRANCH  40  41
ENDBRANCH  39  40
ENDBRANCH  27  36
ENDBRANCH  26  27
ENDBRANCH  25  26
ENDBRANCH  24  25
ENDBRANCH  23  24
ENDBRANCH  14  23
ENDBRANCH  11  14
ENDBRANCH   9  10
ENDBRANCH   8   9
ENDBRANCH   4   8
TORSDOF 17
ENDMDL
MODEL      188
REMARK 921   NORMALIZED FREE ENERGY PREDICTED BY IDOCK:   -4.21 KCAL/MOL
REMARK 922        TOTAL FREE ENERGY PREDICTED BY IDOCK:  -11.37 KCAL/MOL
REMARK 923 INTER-LIGAND FREE ENERGY PREDICTED BY IDOCK:   -9.64 KCAL/MOL
REMARK 924 INTRA-LIGAND FREE ENERGY PREDICTED BY IDOCK:   -1.73 KCAL/MOL
REMARK 927      BINDING AFFINITY PREDICTED BY RF-SCORE:    0.00 PKD
ROOT
HETATM    1  N   UNK A   1      -8.794  20.348  65.443  1.00  0.00    -0.237 NA 
HETATM    2  H1  UNK A   1      -8.046  20.783  64.903  1.00  0.00     0.000 HD 
HETATM    3  H2  UNK A   1      -9.621  20.946  65.460  1.00  0.00     0.000 HD 
HETATM    4  C   UNK A   1      -8.389  19.971  66.824  1.00  0.00    -0.323 C  
HETATM    5  O   UNK A   1      -6.768  18.299  67.606  1.00  0.00    -0.193 OA 
HETATM    6  C   UNK A   1      -7.133  19.084  66.746  1.00  0.00    -0.205 C  
HETATM    7  O   UNK A   1      -6.468  19.288  65.581  1.00  0.00    -0.212 OA 
ENDROOT
BRANCH   4   8
HETATM    8  C   UNK A   1      -9.511  19.319  67.634  1.00  0.00    -0.385 C  
BRANCH   8   9
HETATM    9  C   UNK A   1     -10.781  19.004  66.842  1.00  0.00    -0.484 C  
BRANCH   9  10
HETATM   10  C   UNK A   1     -10.818  17.534  66.495  1.00  0.00     0.055 C  
HETATM   11  N   UNK A   1     -10.841  16.692  67.586  1.00  0.00    -0.300 N  
HETATM   12  O   UNK A   1     -10.787  17.133  65.335  1.00  0.00    -0.477 OA 
HETATM   13  H   UNK A   1     -10.807  17.075  68.530  1.00  0.00     0.000 HD 
BRANCH  11  14
HETATM   14  C   UNK A   1     -10.913  15.239  67.380  1.00  0.00    -0.321 C  
BRANCH  14  15
HETATM   15  C   UNK A   1     -11.209  14.562  68.733  1.00  0.00    -0.261 C  
ATOM     16  H   GLY A   2     -10.448  16.217  69.714  1.00  0.00     0.000 HD 
ATOM     17  N   GLY A   2     -10.889  15.307  69.846  1.00  0.00    -0.265 N  
HETATM   18  O   UNK A   1     -11.676  13.437  68.818  1.00  0.00    -0.296 OA 
BRANCH  17  19
ATOM     19  CA  GLY A   2     -11.152  14.852  71.200  1.00  0.00    -0.057 C  
ATOM     20  C   GLY A   2     -11.852  15.870  72.086  1.00  0.00    -0.517 C  
ATOM     21  O   GLY A   2     -11.643  17.177  71.747  1.00  0.00     0.299 OA 
ATOM     22  OXT GLY A   2     -12.506  15.573  73.075  1.00  0.00    -0.358 OA 
ENDBRANCH  17  19
ENDBRANCH  14  15
BRANCH  14  23
HETATM   23  C   UNK A   1      -9.607  14.712  66.761  1.00  0.00    -0.253 C  
BRANCH  23  24
HETATM   24  S   UNK A   1      -8.119  14.851  67.801  1.00  0.00    -0.167 SA 
BRANCH  24  25
HETATM   25  S   UNK A   1      -7.961  12.958  68.571  1.00  0.00    -0.046 SA 
BRANCH  25  26
HETATM   26  C   UNK A   1      -7.894  11.930  67.061  1.00  0.00    -0.152 C  
BRANCH  26  27
HETATM   27  C   UNK A   1      -8.966  10.829  66.964  1.00  0.00    -0.141 C  
BRANCH  27  28
HETATM   28  C   UNK A   1      -9.642  10.842  65.561  1.00  0.00    -0.221 C  
ATOM     29  H   GLY A   2     -11.177  12.088  66.236  1.00  0.00     0.000 HD 
ATOM     30  N   GLY A   2     -10.774  11.621  65.424  1.00  0.00    -0.283 N  
HETATM   31  O   UNK A   1      -9.139  10.297  64.580  1.00  0.00    -0.193 OA 
BRANCH  30  32
ATOM     32  CA  GLY A   2     -11.388  11.770  64.110  1.00  0.00    -0.352 C  
ATOM     33  OXT GLY A   2     -13.608  11.749  63.092  1.00  0.00    -0.219 OA 
ATOM     34  C   GLY A   2     -12.896  12.049  64.042  1.00  0.00    -0.236 C  
ATOM     35  O   GLY A   2     -13.359  12.850  65.021  1.00  0.00    -0.682 OA 
ENDBRANCH  30  32
ENDBRANCH  27  28
BRANCH  27  36
HETATM   36  N   UNK A   1      -8.569   9.526  67.542  1.00  0.00    -0.125 N  
HETATM   37  H   UNK A   1      -7.956   8.913  67.004  1.00  0.00     0.000 HD 
HETATM   38  O   UNK A   1      -9.623   9.834  69.553  1.00  0.00    -0.184 OA 
HETATM   39  C   UNK A   1      -9.001   9.112  68.781  1.00  0.00    -0.136 C  
BRANCH  39  40
HETATM   40  C   UNK A   1      -8.547   7.730  69.225  1.00  0.00    -0.138 C  
BRANCH  40  41
HETATM   41  C   UNK A   1      -9.406   6.536  68.767  1.00  0.00    -0.130 C  
BRANCH  41  42
HETATM   42  C   UNK A   1     -10.413   5.956  69.771  1.00  0.00    -0.272 C  
HETATM   43  N   UNK A   1     -11.778   6.518  69.590  1.00  0.00    -0.643 NA 
HETATM   44  C   UNK A   1      -9.974   6.287  71.185  1.00  0.00    -0.181 C  
HETATM   45  O   UNK A   1      -9.119   5.743  71.862  1.00  0.00    -0.139 OA 
HETATM   46  O   UNK A   1     -10.647   7.380  71.610  1.00  0.00    -0.206 OA 
HETATM   47  H2  UNK A   1     -12.103   6.395  68.632  1.00  0.00     0.000 HD 
HETATM   48  H1  UNK A   1     -12.447   6.132  70.258  1.00  0.00     0.000 HD 
ENDBRANCH  41  42
ENDBRANCH  40  41
ENDBRANCH  39  40
ENDBRANCH  27  36
ENDBRANCH  26  27
ENDBRANCH  25  26
ENDBRANCH  24  25
ENDBRANCH  23  24
ENDBRANCH  14  23
ENDBRANCH  11  14
ENDBRANCH   9  10
ENDBRANCH   8   9
ENDBRANCH   4   8
TORSDOF 17
ENDMDL
MODEL      189
REMARK 921   NORMALIZED FREE ENERGY PREDICTED BY IDOCK:   -4.21 KCAL/MOL
REMARK 922        TOTAL FREE ENERGY PREDICTED BY IDOCK:  -11.37 KCAL/MOL
REMARK 923 INTER-LIGAND FREE ENERGY PREDICTED BY IDOCK:  -10.79 KCAL/MOL
REMARK 924 INTRA-LIGAND FREE ENERGY PREDICTED BY IDOCK:   -0.58 KCAL/MOL
REMARK 927      BINDING AFFINITY PREDICTED BY RF-SCORE:    0.00 PKD
ROOT
HETATM    1  N   UNK A   1      -8.277  10.409  70.118  1.00  0.00    -0.372 NA 
HETATM    2  H1  UNK A   1      -8.317   9.397  70.244  1.00  0.00     0.000 HD 
HETATM    3  H2  UNK A   1      -9.215  10.809  70.114  1.00  0.00     0.000 HD 
HETATM    4  C   UNK A   1      -7.521  10.827  68.907  1.00  0.00    -0.116 C  
HETATM    5  O   UNK A   1      -5.136  10.601  68.362  1.00  0.00    -0.035 OA 
HETATM    6  C   UNK A   1      -6.122  10.187  68.952  1.00  0.00    -0.043 C  
HETATM    7  O   UNK A   1      -6.118   9.084  69.742  1.00  0.00    -0.037 OA 
ENDROOT
BRANCH   4   8
HETATM    8  C   UNK A   1      -7.460  12.344  68.717  1.00  0.00    -0.056 C  
BRANCH   8   9
HETATM    9  C   UNK A   1      -7.615  12.822  67.273  1.00  0.00    -0.116 C  
BRANCH   9  10
HETATM   10  C   UNK A   1      -8.628  13.942  67.209  1.00  0.00    -0.211 C  
HETATM   11  N   UNK A   1      -9.212  14.111  65.972  1.00  0.00    -0.513 N  
HETATM   12  O   UNK A   1      -8.872  14.662  68.173  1.00  0.00    -0.162 OA 
HETATM   13  H   UNK A   1      -8.932  13.523  65.187  1.00  0.00     0.000 HD 
BRANCH  11  14
HETATM   14  C   UNK A   1     -10.240  15.145  65.791  1.00  0.00    -0.341 C  
BRANCH  14  15
HETATM   15  C   UNK A   1      -9.587  16.530  65.976  1.00  0.00    -0.290 C  
ATOM     16  H   GLY A   2     -11.211  17.130  67.109  1.00  0.00     0.000 HD 
ATOM     17  N   GLY A   2     -10.301  17.417  66.751  1.00  0.00    -0.317 N  
HETATM   18  O   UNK A   1      -8.522  16.830  65.459  1.00  0.00    -0.211 OA 
BRANCH  17  19
ATOM     19  CA  GLY A   2      -9.811  18.745  67.079  1.00  0.00    -0.325 C  
ATOM     20  C   GLY A   2      -9.285  18.893  68.498  1.00  0.00    -0.361 C  
ATOM     21  O   GLY A   2      -9.824  18.031  69.410  1.00  0.00    -0.101 OA 
ATOM     22  OXT GLY A   2      -8.489  19.755  68.839  1.00  0.00    -0.258 OA 
ENDBRANCH  17  19
ENDBRANCH  14  15
BRANCH  14  23
HETATM   23  C   UNK A   1     -11.402  14.935  66.777  1.00  0.00    -0.328 C  
BRANCH  23  24
HETATM   24  S   UNK A   1     -12.019  13.228  66.931  1.00  0.00    -0.345 SA 
BRANCH  24  25
HETATM   25  S   UNK A   1     -11.745  12.856  68.929  1.00  0.00    -0.327 SA 
BRANCH  25  26
HETATM   26  C   UNK A   1     -12.055  11.058  69.033  1.00  0.00    -0.215 C  
BRANCH  26  27
HETATM   27  C   UNK A   1     -11.882  10.439  70.432  1.00  0.00    -0.328 C  
BRANCH  27  28
HETATM   28  C   UNK A   1     -12.783  11.171  71.471  1.00  0.00    -0.394 C  
ATOM     29  H   GLY A   2     -12.042  13.039  70.901  1.00  0.00     0.000 HD 
ATOM     30  N   GLY A   2     -12.716  12.550  71.489  1.00  0.00    -0.282 N  
HETATM   31  O   UNK A   1     -13.611  10.579  72.161  1.00  0.00    -0.308 OA 
BRANCH  30  32
ATOM     32  CA  GLY A   2     -13.617  13.301  72.355  1.00  0.00    -0.594 C  
ATOM     33  OXT GLY A   2     -13.975  15.597  73.107  1.00  0.00    -0.399 OA 
ATOM     34  C   GLY A   2     -13.659  14.828  72.207  1.00  0.00    -0.429 C  
ATOM     35  O   GLY A   2     -13.529  15.270  70.942  1.00  0.00    -0.437 OA 
ENDBRANCH  30  32
ENDBRANCH  27  28
BRANCH  27  36
HETATM   36  N   UNK A   1     -11.841   8.960  70.455  1.00  0.00    -0.463 N  
HETATM   37  H   UNK A   1     -12.415   8.440  69.792  1.00  0.00     0.000 HD 
HETATM   38  O   UNK A   1     -10.230   8.799  72.077  1.00  0.00    -0.315 OA 
HETATM   39  C   UNK A   1     -11.053   8.264  71.342  1.00  0.00    -0.251 C  
BRANCH  39  40
HETATM   40  C   UNK A   1     -11.146   6.747  71.277  1.00  0.00    -0.303 C  
BRANCH  40  41
HETATM   41  C   UNK A   1     -10.823   6.089  69.922  1.00  0.00    -0.434 C  
BRANCH  41  42
HETATM   42  C   UNK A   1      -9.430   5.468  69.745  1.00  0.00    -0.149 C  
HETATM   43  N   UNK A   1      -8.833   5.786  68.421  1.00  0.00    -0.110 NA 
HETATM   44  C   UNK A   1      -9.527   3.957  69.845  1.00  0.00    -0.197 C  
HETATM   45  O   UNK A   1      -9.612   3.265  70.844  1.00  0.00    -0.159 OA 
HETATM   46  O   UNK A   1      -9.579   3.437  68.597  1.00  0.00    -0.160 OA 
HETATM   47  H2  UNK A   1      -8.811   6.792  68.259  1.00  0.00     0.000 HD 
HETATM   48  H1  UNK A   1      -7.908   5.373  68.304  1.00  0.00     0.000 HD 
ENDBRANCH  41  42
ENDBRANCH  40  41
ENDBRANCH  39  40
ENDBRANCH  27  36
ENDBRANCH  26  27
ENDBRANCH  25  26
ENDBRANCH  24  25
ENDBRANCH  23  24
ENDBRANCH  14  23
ENDBRANCH  11  14
ENDBRANCH   9  10
ENDBRANCH   8   9
ENDBRANCH   4   8
TORSDOF 17
ENDMDL
MODEL      190
REMARK 921   NORMALIZED FREE ENERGY PREDICTED BY IDOCK:   -4.19 KCAL/MOL
REMARK 922        TOTAL FREE ENERGY PREDICTED BY IDOCK:  -11.32 KCAL/MOL
REMARK 923 INTER-LIGAND FREE ENERGY PREDICTED BY IDOCK:   -9.13 KCAL/MOL
REMARK 924 INTRA-LIGAND FREE ENERGY PREDICTED BY IDOCK:   -2.19 KCAL/MOL
REMARK 927      BINDING AFFINITY PREDICTED BY RF-SCORE:    0.00 PKD
ROOT
HETATM    1  N   UNK A   1     -12.879   8.916  71.262  1.00  0.00    -0.469 NA 
HETATM    2  H1  UNK A   1     -13.707   8.321  71.305  1.00  0.00     0.000 HD 
HETATM    3  H2  UNK A   1     -13.126   9.855  70.948  1.00  0.00     0.000 HD 
HETATM    4  C   UNK A   1     -11.783   8.352  70.429  1.00  0.00     0.014 C  
HETATM    5  O   UNK A   1     -10.402   6.348  70.758  1.00  0.00    -0.193 OA 
HETATM    6  C   UNK A   1     -11.459   6.935  70.931  1.00  0.00    -0.323 C  
HETATM    7  O   UNK A   1     -12.513   6.405  71.602  1.00  0.00    -0.285 OA 
ENDROOT
BRANCH   4   8
HETATM    8  C   UNK A   1     -10.542   9.245  70.366  1.00  0.00    -0.298 C  
BRANCH   8   9
HETATM    9  C   UNK A   1     -10.828  10.739  70.200  1.00  0.00    -0.148 C  
BRANCH   9  10
HETATM   10  C   UNK A   1     -11.381  11.004  68.819  1.00  0.00    -0.283 C  
HETATM   11  N   UNK A   1     -10.421  11.247  67.859  1.00  0.00    -0.182 N  
HETATM   12  O   UNK A   1     -12.586  11.039  68.589  1.00  0.00    -0.304 OA 
HETATM   13  H   UNK A   1      -9.434  11.263  68.113  1.00  0.00     0.000 HD 
BRANCH  11  14
HETATM   14  C   UNK A   1     -10.830  11.484  66.468  1.00  0.00    -0.288 C  
BRANCH  14  15
HETATM   15  C   UNK A   1     -10.118  10.459  65.562  1.00  0.00    -0.283 C  
ATOM     16  H   GLY A   2      -9.261   9.594  67.235  1.00  0.00     0.000 HD 
ATOM     17  N   GLY A   2      -9.347   9.527  66.221  1.00  0.00    -0.173 N  
HETATM   18  O   UNK A   1     -10.210  10.480  64.344  1.00  0.00    -0.346 OA 
BRANCH  17  19
ATOM     19  CA  GLY A   2      -8.651   8.453  65.534  1.00  0.00    -0.176 C  
ATOM     20  C   GLY A   2      -8.030   7.412  66.451  1.00  0.00    -0.108 C  
ATOM     21  O   GLY A   2      -7.699   7.861  67.699  1.00  0.00    -0.112 OA 
ATOM     22  OXT GLY A   2      -7.772   6.269  66.103  1.00  0.00    -0.091 OA 
ENDBRANCH  17  19
ENDBRANCH  14  15
BRANCH  14  23
HETATM   23  C   UNK A   1     -10.509  12.927  66.045  1.00  0.00    -0.276 C  
BRANCH  23  24
HETATM   24  S   UNK A   1     -11.495  14.232  66.846  1.00  0.00    -0.379 SA 
BRANCH  24  25
HETATM   25  S   UNK A   1     -10.130  15.751  67.019  1.00  0.00    -0.267 SA 
BRANCH  25  26
HETATM   26  C   UNK A   1      -8.543  14.844  67.036  1.00  0.00    -0.238 C  
BRANCH  26  27
HETATM   27  C   UNK A   1      -7.723  14.973  68.334  1.00  0.00    -0.113 C  
BRANCH  27  28
HETATM   28  C   UNK A   1      -6.721  13.789  68.471  1.00  0.00    -0.094 C  
ATOM     29  H   GLY A   2      -6.639  14.006  70.546  1.00  0.00     0.000 HD 
ATOM     30  N   GLY A   2      -6.336  13.445  69.751  1.00  0.00    -0.112 N  
HETATM   31  O   UNK A   1      -6.377  13.100  67.512  1.00  0.00    -0.158 OA 
BRANCH  30  32
ATOM     32  CA  GLY A   2      -5.492  12.274  69.957  1.00  0.00    -0.111 C  
ATOM     33  OXT GLY A   2      -5.653  10.014  70.870  1.00  0.00    -0.068 OA 
ATOM     34  C   GLY A   2      -6.175  10.930  70.245  1.00  0.00    -0.141 C  
ATOM     35  O   GLY A   2      -7.327  10.735  69.576  1.00  0.00    -0.133 OA 
ENDBRANCH  30  32
ENDBRANCH  27  28
BRANCH  27  36
HETATM   36  N   UNK A   1      -7.241  16.340  68.629  1.00  0.00    -0.156 N  
HETATM   37  H   UNK A   1      -7.528  16.788  69.499  1.00  0.00     0.000 HD 
HETATM   38  O   UNK A   1      -5.912  16.523  66.771  1.00  0.00    -0.309 OA 
HETATM   39  C   UNK A   1      -6.418  17.028  67.768  1.00  0.00    -0.142 C  
BRANCH  39  40
HETATM   40  C   UNK A   1      -6.039  18.441  68.185  1.00  0.00    -0.183 C  
BRANCH  40  41
HETATM   41  C   UNK A   1      -6.951  19.579  67.689  1.00  0.00    -0.264 C  
BRANCH  41  42
HETATM   42  C   UNK A   1      -8.217  19.191  66.912  1.00  0.00    -0.272 C  
HETATM   43  N   UNK A   1      -8.297  19.866  65.589  1.00  0.00    -0.471 NA 
HETATM   44  C   UNK A   1      -9.448  19.597  67.700  1.00  0.00    -0.337 C  
HETATM   45  O   UNK A   1      -9.963  19.032  68.648  1.00  0.00    -0.383 OA 
HETATM   46  O   UNK A   1      -9.897  20.784  67.232  1.00  0.00    -0.474 OA 
HETATM   47  H2  UNK A   1      -7.458  19.694  65.036  1.00  0.00     0.000 HD 
HETATM   48  H1  UNK A   1      -9.138  19.608  65.072  1.00  0.00     0.000 HD 
ENDBRANCH  41  42
ENDBRANCH  40  41
ENDBRANCH  39  40
ENDBRANCH  27  36
ENDBRANCH  26  27
ENDBRANCH  25  26
ENDBRANCH  24  25
ENDBRANCH  23  24
ENDBRANCH  14  23
ENDBRANCH  11  14
ENDBRANCH   9  10
ENDBRANCH   8   9
ENDBRANCH   4   8
TORSDOF 17
ENDMDL
MODEL      191
REMARK 921   NORMALIZED FREE ENERGY PREDICTED BY IDOCK:   -4.18 KCAL/MOL
REMARK 922        TOTAL FREE ENERGY PREDICTED BY IDOCK:  -11.31 KCAL/MOL
REMARK 923 INTER-LIGAND FREE ENERGY PREDICTED BY IDOCK:   -9.34 KCAL/MOL
REMARK 924 INTRA-LIGAND FREE ENERGY PREDICTED BY IDOCK:   -1.97 KCAL/MOL
REMARK 927      BINDING AFFINITY PREDICTED BY RF-SCORE:    0.00 PKD
ROOT
HETATM    1  N   UNK A   1      -8.863  14.000  68.833  1.00  0.00    -0.377 NA 
HETATM    2  H1  UNK A   1      -8.011  14.307  68.363  1.00  0.00     0.000 HD 
HETATM    3  H2  UNK A   1      -8.986  12.992  68.734  1.00  0.00     0.000 HD 
HETATM    4  C   UNK A   1     -10.082  14.726  68.387  1.00  0.00    -0.225 C  
HETATM    5  O   UNK A   1     -10.714  17.085  68.646  1.00  0.00    -0.345 OA 
HETATM    6  C   UNK A   1      -9.842  16.237  68.541  1.00  0.00    -0.223 C  
HETATM    7  O   UNK A   1      -8.514  16.520  68.545  1.00  0.00    -0.205 OA 
ENDROOT
BRANCH   4   8
HETATM    8  C   UNK A   1     -11.360  14.265  69.092  1.00  0.00    -0.312 C  
BRANCH   8   9
HETATM    9  C   UNK A   1     -12.205  13.259  68.308  1.00  0.00    -0.094 C  
BRANCH   9  10
HETATM   10  C   UNK A   1     -11.634  11.870  68.475  1.00  0.00    -0.318 C  
HETATM   11  N   UNK A   1     -11.014  11.652  69.687  1.00  0.00    -0.466 N  
HETATM   12  O   UNK A   1     -11.687  11.027  67.585  1.00  0.00    -0.576 OA 
HETATM   13  H   UNK A   1     -10.946  12.404  70.372  1.00  0.00     0.000 HD 
BRANCH  11  14
HETATM   14  C   UNK A   1     -10.450  10.329  69.986  1.00  0.00    -0.241 C  
BRANCH  14  15
HETATM   15  C   UNK A   1      -8.962  10.322  69.579  1.00  0.00    -0.157 C  
ATOM     16  H   GLY A   2      -8.519   9.208  71.265  1.00  0.00     0.000 HD 
ATOM     17  N   GLY A   2      -8.125   9.627  70.424  1.00  0.00    -0.188 N  
HETATM   18  O   UNK A   1      -8.547  10.907  68.591  1.00  0.00    -0.140 OA 
BRANCH  17  19
ATOM     19  CA  GLY A   2      -6.704   9.467  70.167  1.00  0.00    -0.078 C  
ATOM     20  C   GLY A   2      -6.316   8.125  69.569  1.00  0.00    -0.034 C  
ATOM     21  O   GLY A   2      -7.160   7.091  69.865  1.00  0.00    -0.066 OA 
ATOM     22  OXT GLY A   2      -5.295   7.939  68.923  1.00  0.00    -0.025 OA 
ENDBRANCH  17  19
ENDBRANCH  14  15
BRANCH  14  23
HETATM   23  C   UNK A   1     -11.237   9.226  69.257  1.00  0.00     0.092 C  
BRANCH  23  24
HETATM   24  S   UNK A   1     -10.966   7.526  69.851  1.00  0.00    -0.165 SA 
BRANCH  24  25
HETATM   25  S   UNK A   1     -10.037   6.657  68.245  1.00  0.00    -0.171 SA 
BRANCH  25  26
HETATM   26  C   UNK A   1     -10.534   7.754  66.870  1.00  0.00    -0.317 C  
BRANCH  26  27
HETATM   27  C   UNK A   1      -9.377   8.461  66.139  1.00  0.00    -0.201 C  
BRANCH  27  28
HETATM   28  C   UNK A   1      -8.178   7.487  65.939  1.00  0.00    -0.134 C  
ATOM     29  H   GLY A   2      -9.438   5.961  65.272  1.00  0.00     0.000 HD 
ATOM     30  N   GLY A   2      -8.469   6.239  65.426  1.00  0.00    -0.147 N  
HETATM   31  O   UNK A   1      -7.010   7.835  66.102  1.00  0.00    -0.060 OA 
BRANCH  30  32
ATOM     32  CA  GLY A   2      -7.382   5.323  65.105  1.00  0.00    -0.068 C  
ATOM     33  OXT GLY A   2      -6.533   3.142  65.803  1.00  0.00    -0.031 OA 
ATOM     34  C   GLY A   2      -7.494   3.868  65.584  1.00  0.00    -0.081 C  
ATOM     35  O   GLY A   2      -8.742   3.364  65.545  1.00  0.00    -0.112 OA 
ENDBRANCH  30  32
ENDBRANCH  27  28
BRANCH  27  36
HETATM   36  N   UNK A   1      -9.791   9.311  65.001  1.00  0.00    -0.343 N  
HETATM   37  H   UNK A   1     -10.614   9.047  64.461  1.00  0.00     0.000 HD 
HETATM   38  O   UNK A   1      -8.187  10.917  65.318  1.00  0.00    -0.103 OA 
HETATM   39  C   UNK A   1      -9.101  10.447  64.648  1.00  0.00    -0.222 C  
BRANCH  39  40
HETATM   40  C   UNK A   1      -9.618  11.197  63.430  1.00  0.00    -0.355 C  
BRANCH  40  41
HETATM   41  C   UNK A   1     -11.132  11.478  63.379  1.00  0.00    -0.370 C  
BRANCH  41  42
HETATM   42  C   UNK A   1     -11.751  12.257  64.548  1.00  0.00    -0.353 C  
HETATM   43  N   UNK A   1     -13.237  12.181  64.554  1.00  0.00    -0.612 NA 
HETATM   44  C   UNK A   1     -11.376  13.724  64.442  1.00  0.00    -0.360 C  
HETATM   45  O   UNK A   1     -10.330  14.264  64.752  1.00  0.00    -0.433 OA 
HETATM   46  O   UNK A   1     -12.394  14.396  63.857  1.00  0.00    -0.720 OA 
HETATM   47  H2  UNK A   1     -13.556  11.213  64.547  1.00  0.00     0.000 HD 
HETATM   48  H1  UNK A   1     -13.648  12.699  65.330  1.00  0.00     0.000 HD 
ENDBRANCH  41  42
ENDBRANCH  40  41
ENDBRANCH  39  40
ENDBRANCH  27  36
ENDBRANCH  26  27
ENDBRANCH  25  26
ENDBRANCH  24  25
ENDBRANCH  23  24
ENDBRANCH  14  23
ENDBRANCH  11  14
ENDBRANCH   9  10
ENDBRANCH   8   9
ENDBRANCH   4   8
TORSDOF 17
ENDMDL
MODEL      192
REMARK 921   NORMALIZED FREE ENERGY PREDICTED BY IDOCK:   -4.17 KCAL/MOL
REMARK 922        TOTAL FREE ENERGY PREDICTED BY IDOCK:  -11.28 KCAL/MOL
REMARK 923 INTER-LIGAND FREE ENERGY PREDICTED BY IDOCK:   -9.10 KCAL/MOL
REMARK 924 INTRA-LIGAND FREE ENERGY PREDICTED BY IDOCK:   -2.18 KCAL/MOL
REMARK 927      BINDING AFFINITY PREDICTED BY RF-SCORE:    0.00 PKD
ROOT
HETATM    1  N   UNK A   1     -11.879   9.937  69.981  1.00  0.00    -0.443 NA 
HETATM    2  H1  UNK A   1     -12.841  10.250  70.107  1.00  0.00     0.000 HD 
HETATM    3  H2  UNK A   1     -11.626   9.940  68.992  1.00  0.00     0.000 HD 
HETATM    4  C   UNK A   1     -11.601   8.609  70.591  1.00  0.00    -0.200 C  
HETATM    5  O   UNK A   1     -11.584   7.913  72.947  1.00  0.00    -0.383 OA 
HETATM    6  C   UNK A   1     -12.011   8.651  72.074  1.00  0.00    -0.372 C  
HETATM    7  O   UNK A   1     -12.927   9.628  72.296  1.00  0.00    -0.395 OA 
ENDROOT
BRANCH   4   8
HETATM    8  C   UNK A   1     -10.157   8.139  70.401  1.00  0.00    -0.196 C  
BRANCH   8   9
HETATM    9  C   UNK A   1      -9.091   9.202  70.671  1.00  0.00    -0.307 C  
BRANCH   9  10
HETATM   10  C   UNK A   1      -8.433   9.609  69.374  1.00  0.00    -0.156 C  
HETATM   11  N   UNK A   1      -7.205  10.218  69.524  1.00  0.00    -0.105 N  
HETATM   12  O   UNK A   1      -8.974   9.445  68.284  1.00  0.00    -0.128 OA 
HETATM   13  H   UNK A   1      -6.825  10.383  70.456  1.00  0.00     0.000 HD 
BRANCH  11  14
HETATM   14  C   UNK A   1      -6.448  10.628  68.334  1.00  0.00    -0.054 C  
BRANCH  14  15
HETATM   15  C   UNK A   1      -7.091  11.904  67.754  1.00  0.00    -0.103 C  
ATOM     16  H   GLY A   2      -6.418  12.972  69.394  1.00  0.00     0.000 HD 
ATOM     17  N   GLY A   2      -6.912  13.045  68.505  1.00  0.00    -0.095 N  
HETATM   18  O   UNK A   1      -7.732  11.905  66.715  1.00  0.00    -0.135 OA 
BRANCH  17  19
ATOM     19  CA  GLY A   2      -7.399  14.347  68.084  1.00  0.00    -0.130 C  
ATOM     20  C   GLY A   2      -8.803  14.683  68.559  1.00  0.00    -0.182 C  
ATOM     21  O   GLY A   2      -9.610  13.605  68.792  1.00  0.00    -0.143 OA 
ATOM     22  OXT GLY A   2      -9.229  15.823  68.669  1.00  0.00    -0.189 OA 
ENDBRANCH  17  19
ENDBRANCH  14  15
BRANCH  14  23
HETATM   23  C   UNK A   1      -6.413   9.494  67.295  1.00  0.00    -0.070 C  
BRANCH  23  24
HETATM   24  S   UNK A   1      -5.293   8.107  67.664  1.00  0.00    -0.034 SA 
BRANCH  24  25
HETATM   25  S   UNK A   1      -5.944   6.673  66.352  1.00  0.00    -0.030 SA 
BRANCH  25  26
HETATM   26  C   UNK A   1      -6.714   7.677  65.033  1.00  0.00    -0.047 C  
BRANCH  26  27
HETATM   27  C   UNK A   1      -8.229   7.473  64.848  1.00  0.00    -0.083 C  
BRANCH  27  28
HETATM   28  C   UNK A   1      -8.648   6.040  65.293  1.00  0.00    -0.099 C  
ATOM     29  H   GLY A   2      -9.650   6.778  66.970  1.00  0.00     0.000 HD 
ATOM     30  N   GLY A   2      -9.436   5.945  66.422  1.00  0.00    -0.156 N  
HETATM   31  O   UNK A   1      -8.408   5.041  64.616  1.00  0.00    -0.128 OA 
BRANCH  30  32
ATOM     32  CA  GLY A   2      -9.959   4.645  66.826  1.00  0.00    -0.225 C  
ATOM     33  OXT GLY A   2      -9.144   2.505  67.676  1.00  0.00    -0.151 OA 
ATOM     34  C   GLY A   2      -9.054   3.727  67.660  1.00  0.00    -0.158 C  
ATOM     35  O   GLY A   2      -8.277   4.370  68.552  1.00  0.00    -0.084 OA 
ENDBRANCH  30  32
ENDBRANCH  27  28
BRANCH  27  36
HETATM   36  N   UNK A   1      -9.066   8.615  65.277  1.00  0.00    -0.413 N  
HETATM   37  H   UNK A   1      -9.413   8.640  66.236  1.00  0.00     0.000 HD 
HETATM   38  O   UNK A   1      -8.911   9.769  63.304  1.00  0.00    -0.234 OA 
HETATM   39  C   UNK A   1      -9.393   9.644  64.425  1.00  0.00    -0.148 C  
BRANCH  39  40
HETATM   40  C   UNK A   1     -10.296  10.728  64.994  1.00  0.00    -0.357 C  
BRANCH  40  41
HETATM   41  C   UNK A   1     -10.816  11.788  64.004  1.00  0.00    -0.446 C  
BRANCH  41  42
HETATM   42  C   UNK A   1     -10.545  13.263  64.334  1.00  0.00    -0.419 C  
HETATM   43  N   UNK A   1      -9.805  13.430  65.613  1.00  0.00    -0.454 NA 
HETATM   44  C   UNK A   1     -11.860  14.007  64.474  1.00  0.00    -0.434 C  
HETATM   45  O   UNK A   1     -12.592  14.428  63.596  1.00  0.00    -0.817 OA 
HETATM   46  O   UNK A   1     -12.179  14.091  65.785  1.00  0.00    -0.404 OA 
HETATM   47  H2  UNK A   1      -8.941  12.889  65.612  1.00  0.00     0.000 HD 
HETATM   48  H1  UNK A   1      -9.625  14.410  65.832  1.00  0.00     0.000 HD 
ENDBRANCH  41  42
ENDBRANCH  40  41
ENDBRANCH  39  40
ENDBRANCH  27  36
ENDBRANCH  26  27
ENDBRANCH  25  26
ENDBRANCH  24  25
ENDBRANCH  23  24
ENDBRANCH  14  23
ENDBRANCH  11  14
ENDBRANCH   9  10
ENDBRANCH   8   9
ENDBRANCH   4   8
TORSDOF 17
ENDMDL
MODEL      193
REMARK 921   NORMALIZED FREE ENERGY PREDICTED BY IDOCK:   -4.15 KCAL/MOL
REMARK 922        TOTAL FREE ENERGY PREDICTED BY IDOCK:  -11.25 KCAL/MOL
REMARK 923 INTER-LIGAND FREE ENERGY PREDICTED BY IDOCK:   -9.13 KCAL/MOL
REMARK 924 INTRA-LIGAND FREE ENERGY PREDICTED BY IDOCK:   -2.12 KCAL/MOL
REMARK 927      BINDING AFFINITY PREDICTED BY RF-SCORE:    0.00 PKD
ROOT
HETATM    1  N   UNK A   1     -11.726  16.079  64.071  1.00  0.00    -1.249 NA 
HETATM    2  H1  UNK A   1     -11.531  15.837  63.100  1.00  0.00     0.000 HD 
HETATM    3  H2  UNK A   1     -11.225  16.926  64.340  1.00  0.00     0.000 HD 
HETATM    4  C   UNK A   1     -11.446  14.975  65.028  1.00  0.00    -0.364 C  
HETATM    5  O   UNK A   1     -12.526  12.784  65.290  1.00  0.00    -0.496 OA 
HETATM    6  C   UNK A   1     -12.211  13.720  64.572  1.00  0.00    -0.403 C  
HETATM    7  O   UNK A   1     -12.499  13.782  63.247  1.00  0.00    -0.819 OA 
ENDROOT
BRANCH   4   8
HETATM    8  C   UNK A   1     -11.740  15.338  66.485  1.00  0.00     0.077 C  
BRANCH   8   9
HETATM    9  C   UNK A   1     -11.898  14.146  67.429  1.00  0.00    -0.447 C  
BRANCH   9  10
HETATM   10  C   UNK A   1     -10.538  13.656  67.869  1.00  0.00    -0.249 C  
HETATM   11  N   UNK A   1     -10.292  12.329  67.587  1.00  0.00    -0.202 N  
HETATM   12  O   UNK A   1      -9.742  14.376  68.464  1.00  0.00    -0.216 OA 
HETATM   13  H   UNK A   1     -11.010  11.758  67.142  1.00  0.00     0.000 HD 
BRANCH  11  14
HETATM   14  C   UNK A   1      -8.990  11.743  67.932  1.00  0.00    -0.180 C  
BRANCH  14  15
HETATM   15  C   UNK A   1      -8.250  11.380  66.629  1.00  0.00    -0.163 C  
ATOM     16  H   GLY A   2     -10.071  11.070  65.696  1.00  0.00     0.000 HD 
ATOM     17  N   GLY A   2      -9.061  11.077  65.557  1.00  0.00    -0.207 N  
HETATM   18  O   UNK A   1      -7.032  11.341  66.552  1.00  0.00    -0.140 OA 
BRANCH  17  19
ATOM     19  CA  GLY A   2      -8.538  10.769  64.238  1.00  0.00    -0.032 C  
ATOM     20  C   GLY A   2      -8.577   9.294  63.870  1.00  0.00    -0.192 C  
ATOM     21  O   GLY A   2      -8.538   8.430  64.928  1.00  0.00    -0.161 OA 
ATOM     22  OXT GLY A   2      -8.576   8.882  62.719  1.00  0.00    -0.210 OA 
ENDBRANCH  17  19
ENDBRANCH  14  15
BRANCH  14  23
HETATM   23  C   UNK A   1      -9.170  10.513  68.838  1.00  0.00    -0.183 C  
BRANCH  23  24
HETATM   24  S   UNK A   1     -10.877  10.149  69.359  1.00  0.00    -0.254 SA 
BRANCH  24  25
HETATM   25  S   UNK A   1     -10.588   8.697  70.777  1.00  0.00    -0.221 SA 
BRANCH  25  26
HETATM   26  C   UNK A   1     -11.447   7.261  70.041  1.00  0.00    -0.110 C  
BRANCH  26  27
HETATM   27  C   UNK A   1     -10.530   6.124  69.552  1.00  0.00    -0.254 C  
BRANCH  27  28
HETATM   28  C   UNK A   1     -10.390   6.160  68.001  1.00  0.00    -0.199 C  
ATOM     29  H   GLY A   2      -9.733   4.178  67.945  1.00  0.00     0.000 HD 
ATOM     30  N   GLY A   2      -9.996   4.989  67.385  1.00  0.00    -0.176 N  
HETATM   31  O   UNK A   1     -10.731   7.132  67.329  1.00  0.00    -0.286 OA 
BRANCH  30  32
ATOM     32  CA  GLY A   2      -9.957   4.921  65.930  1.00  0.00    -0.203 C  
ATOM     33  OXT GLY A   2      -8.384   5.298  64.100  1.00  0.00    -0.132 OA 
ATOM     34  C   GLY A   2      -8.586   4.899  65.241  1.00  0.00    -0.142 C  
ATOM     35  O   GLY A   2      -7.640   4.208  65.904  1.00  0.00    -0.086 OA 
ENDBRANCH  30  32
ENDBRANCH  27  28
BRANCH  27  36
HETATM   36  N   UNK A   1      -9.311   5.919  70.364  1.00  0.00    -0.157 N  
HETATM   37  H   UNK A   1      -8.704   6.716  70.554  1.00  0.00     0.000 HD 
HETATM   38  O   UNK A   1      -9.701   3.706  70.812  1.00  0.00    -0.176 OA 
HETATM   39  C   UNK A   1      -8.968   4.687  70.871  1.00  0.00    -0.120 C  
BRANCH  39  40
HETATM   40  C   UNK A   1      -7.663   4.620  71.650  1.00  0.00    -0.095 C  
BRANCH  40  41
HETATM   41  C   UNK A   1      -7.521   5.577  72.849  1.00  0.00    -0.096 C  
BRANCH  41  42
HETATM   42  C   UNK A   1      -6.415   6.640  72.785  1.00  0.00    -0.062 C  
HETATM   43  N   UNK A   1      -6.059   7.166  74.130  1.00  0.00    -0.072 NA 
HETATM   44  C   UNK A   1      -6.884   7.817  71.950  1.00  0.00    -0.060 C  
HETATM   45  O   UNK A   1      -6.929   7.918  70.737  1.00  0.00    -0.044 OA 
HETATM   46  O   UNK A   1      -7.341   8.786  72.775  1.00  0.00    -0.344 OA 
HETATM   47  H2  UNK A   1      -5.806   6.411  74.766  1.00  0.00     0.000 HD 
HETATM   48  H1  UNK A   1      -5.324   7.873  74.087  1.00  0.00     0.000 HD 
ENDBRANCH  41  42
ENDBRANCH  40  41
ENDBRANCH  39  40
ENDBRANCH  27  36
ENDBRANCH  26  27
ENDBRANCH  25  26
ENDBRANCH  24  25
ENDBRANCH  23  24
ENDBRANCH  14  23
ENDBRANCH  11  14
ENDBRANCH   9  10
ENDBRANCH   8   9
ENDBRANCH   4   8
TORSDOF 17
ENDMDL
MODEL      194
REMARK 921   NORMALIZED FREE ENERGY PREDICTED BY IDOCK:   -4.13 KCAL/MOL
REMARK 922        TOTAL FREE ENERGY PREDICTED BY IDOCK:  -11.20 KCAL/MOL
REMARK 923 INTER-LIGAND FREE ENERGY PREDICTED BY IDOCK:   -8.67 KCAL/MOL
REMARK 924 INTRA-LIGAND FREE ENERGY PREDICTED BY IDOCK:   -2.53 KCAL/MOL
REMARK 927      BINDING AFFINITY PREDICTED BY RF-SCORE:    0.00 PKD
ROOT
HETATM    1  N   UNK A   1     -11.195  14.866  65.967  1.00  0.00    -0.338 NA 
HETATM    2  H1  UNK A   1     -10.881  15.307  65.103  1.00  0.00     0.000 HD 
HETATM    3  H2  UNK A   1     -10.555  15.078  66.733  1.00  0.00     0.000 HD 
HETATM    4  C   UNK A   1     -11.401  13.398  65.845  1.00  0.00    -0.309 C  
HETATM    5  O   UNK A   1     -13.039  12.125  64.528  1.00  0.00    -0.720 OA 
HETATM    6  C   UNK A   1     -12.359  13.130  64.671  1.00  0.00    -0.405 C  
HETATM    7  O   UNK A   1     -12.355  14.166  63.795  1.00  0.00    -0.716 OA 
ENDROOT
BRANCH   4   8
HETATM    8  C   UNK A   1     -11.872  12.736  67.142  1.00  0.00    -0.415 C  
BRANCH   8   9
HETATM    9  C   UNK A   1     -11.323  11.329  67.387  1.00  0.00    -0.349 C  
BRANCH   9  10
HETATM   10  C   UNK A   1     -11.524  10.946  68.834  1.00  0.00    -0.300 C  
HETATM   11  N   UNK A   1     -11.165   9.649  69.134  1.00  0.00    -0.443 N  
HETATM   12  O   UNK A   1     -12.005  11.719  69.658  1.00  0.00    -0.306 OA 
HETATM   13  H   UNK A   1     -10.823   9.028  68.401  1.00  0.00     0.000 HD 
BRANCH  11  14
HETATM   14  C   UNK A   1     -11.279   9.166  70.517  1.00  0.00    -0.264 C  
BRANCH  14  15
HETATM   15  C   UNK A   1      -9.866   9.082  71.129  1.00  0.00    -0.300 C  
ATOM     16  H   GLY A   2      -9.051   9.511  69.276  1.00  0.00     0.000 HD 
ATOM     17  N   GLY A   2      -8.831   9.332  70.256  1.00  0.00    -0.204 N  
HETATM   18  O   UNK A   1      -9.671   8.794  72.300  1.00  0.00    -0.301 OA 
BRANCH  17  19
ATOM     19  CA  GLY A   2      -7.439   9.353  70.670  1.00  0.00    -0.136 C  
ATOM     20  C   GLY A   2      -6.682  10.613  70.284  1.00  0.00    -0.094 C  
ATOM     21  O   GLY A   2      -7.160  11.263  69.180  1.00  0.00    -0.107 OA 
ATOM     22  OXT GLY A   2      -5.676  11.004  70.858  1.00  0.00    -0.239 OA 
ENDBRANCH  17  19
ENDBRANCH  14  15
BRANCH  14  23
HETATM   23  C   UNK A   1     -11.993   7.804  70.561  1.00  0.00     0.020 C  
BRANCH  23  24
HETATM   24  S   UNK A   1     -10.940   6.343  70.292  1.00  0.00    -0.349 SA 
BRANCH  24  25
HETATM   25  S   UNK A   1     -10.992   6.151  68.251  1.00  0.00    -0.226 SA 
BRANCH  25  26
HETATM   26  C   UNK A   1      -9.397   6.890  67.753  1.00  0.00    -0.120 C  
BRANCH  26  27
HETATM   27  C   UNK A   1      -8.572   6.064  66.748  1.00  0.00    -0.110 C  
BRANCH  27  28
HETATM   28  C   UNK A   1      -7.964   6.985  65.649  1.00  0.00    -0.123 C  
ATOM     29  H   GLY A   2      -9.720   8.108  65.520  1.00  0.00     0.000 HD 
ATOM     30  N   GLY A   2      -8.757   8.021  65.197  1.00  0.00    -0.051 N  
HETATM   31  O   UNK A   1      -6.794   6.890  65.280  1.00  0.00    -0.049 OA 
BRANCH  30  32
ATOM     32  CA  GLY A   2      -8.207   8.987  64.255  1.00  0.00    -0.164 C  
ATOM     33  OXT GLY A   2      -8.967  10.472  62.471  1.00  0.00    -0.216 OA 
ATOM     34  C   GLY A   2      -9.175   9.957  63.563  1.00  0.00    -0.238 C  
ATOM     35  O   GLY A   2     -10.191  10.380  64.339  1.00  0.00    -0.333 OA 
ENDBRANCH  30  32
ENDBRANCH  27  28
BRANCH  27  36
HETATM   36  N   UNK A   1      -7.707   5.030  67.357  1.00  0.00    -0.091 N  
HETATM   37  H   UNK A   1      -7.780   4.068  67.026  1.00  0.00     0.000 HD 
HETATM   38  O   UNK A   1      -6.554   6.466  68.720  1.00  0.00    -0.047 OA 
HETATM   39  C   UNK A   1      -6.809   5.322  68.357  1.00  0.00    -0.056 C  
BRANCH  39  40
HETATM   40  C   UNK A   1      -6.018   4.149  68.916  1.00  0.00    -0.023 C  
BRANCH  40  41
HETATM   41  C   UNK A   1      -6.591   3.462  70.170  1.00  0.00    -0.033 C  
BRANCH  41  42
HETATM   42  C   UNK A   1      -7.959   3.936  70.680  1.00  0.00    -0.054 C  
HETATM   43  N   UNK A   1      -8.041   3.933  72.166  1.00  0.00    -0.082 NA 
HETATM   44  C   UNK A   1      -9.046   3.009  70.168  1.00  0.00    -0.119 C  
HETATM   45  O   UNK A   1      -9.564   2.983  69.066  1.00  0.00    -0.147 OA 
HETATM   46  O   UNK A   1      -9.344   2.107  71.130  1.00  0.00    -0.108 OA 
HETATM   47  H2  UNK A   1      -7.285   4.480  72.577  1.00  0.00     0.000 HD 
HETATM   48  H1  UNK A   1      -8.950   4.247  72.504  1.00  0.00     0.000 HD 
ENDBRANCH  41  42
ENDBRANCH  40  41
ENDBRANCH  39  40
ENDBRANCH  27  36
ENDBRANCH  26  27
ENDBRANCH  25  26
ENDBRANCH  24  25
ENDBRANCH  23  24
ENDBRANCH  14  23
ENDBRANCH  11  14
ENDBRANCH   9  10
ENDBRANCH   8   9
ENDBRANCH   4   8
TORSDOF 17
ENDMDL
MODEL      195
REMARK 921   NORMALIZED FREE ENERGY PREDICTED BY IDOCK:   -4.11 KCAL/MOL
REMARK 922        TOTAL FREE ENERGY PREDICTED BY IDOCK:  -11.17 KCAL/MOL
REMARK 923 INTER-LIGAND FREE ENERGY PREDICTED BY IDOCK:  -11.55 KCAL/MOL
REMARK 924 INTRA-LIGAND FREE ENERGY PREDICTED BY IDOCK:    0.39 KCAL/MOL
REMARK 927      BINDING AFFINITY PREDICTED BY RF-SCORE:    0.00 PKD
ROOT
HETATM    1  N   UNK A   1      -6.937  11.613  70.093  1.00  0.00    -0.396 NA 
HETATM    2  H1  UNK A   1      -7.019  10.964  70.876  1.00  0.00     0.000 HD 
HETATM    3  H2  UNK A   1      -7.676  12.316  70.129  1.00  0.00     0.000 HD 
HETATM    4  C   UNK A   1      -6.911  10.943  68.765  1.00  0.00    -0.078 C  
HETATM    5  O   UNK A   1      -5.241   9.439  67.774  1.00  0.00    -0.037 OA 
HETATM    6  C   UNK A   1      -5.793   9.885  68.767  1.00  0.00    -0.038 C  
HETATM    7  O   UNK A   1      -5.491   9.501  70.033  1.00  0.00    -0.031 OA 
ENDROOT
BRANCH   4   8
HETATM    8  C   UNK A   1      -6.789  11.916  67.591  1.00  0.00    -0.112 C  
BRANCH   8   9
HETATM    9  C   UNK A   1      -8.080  12.146  66.804  1.00  0.00    -0.055 C  
BRANCH   9  10
HETATM   10  C   UNK A   1      -8.611  13.532  67.085  1.00  0.00    -0.195 C  
HETATM   11  N   UNK A   1      -9.094  14.193  65.975  1.00  0.00    -0.486 N  
HETATM   12  O   UNK A   1      -8.574  14.036  68.204  1.00  0.00    -0.165 OA 
HETATM   13  H   UNK A   1      -9.050  13.752  65.056  1.00  0.00     0.000 HD 
BRANCH  11  14
HETATM   14  C   UNK A   1      -9.671  15.535  66.123  1.00  0.00    -0.319 C  
BRANCH  14  15
HETATM   15  C   UNK A   1      -8.565  16.499  66.598  1.00  0.00    -0.254 C  
ATOM     16  H   GLY A   2     -10.006  17.712  67.454  1.00  0.00     0.000 HD 
ATOM     17  N   GLY A   2      -9.003  17.588  67.318  1.00  0.00    -0.232 N  
HETATM   18  O   UNK A   1      -7.384  16.325  66.338  1.00  0.00    -0.165 OA 
BRANCH  17  19
ATOM     19  CA  GLY A   2      -8.097  18.568  67.893  1.00  0.00    -0.256 C  
ATOM     20  C   GLY A   2      -7.862  19.796  67.029  1.00  0.00    -0.284 C  
ATOM     21  O   GLY A   2      -8.025  19.601  65.686  1.00  0.00    -0.405 OA 
ATOM     22  OXT GLY A   2      -7.489  20.874  67.469  1.00  0.00    -0.329 OA 
ENDBRANCH  17  19
ENDBRANCH  14  15
BRANCH  14  23
HETATM   23  C   UNK A   1     -10.856  15.512  67.105  1.00  0.00    -0.316 C  
BRANCH  23  24
HETATM   24  S   UNK A   1     -11.923  14.039  67.033  1.00  0.00    -0.422 SA 
BRANCH  24  25
HETATM   25  S   UNK A   1     -11.898  13.400  68.980  1.00  0.00    -0.327 SA 
BRANCH  25  26
HETATM   26  C   UNK A   1     -11.964  11.583  68.792  1.00  0.00    -0.271 C  
BRANCH  26  27
HETATM   27  C   UNK A   1     -11.832  10.780  70.099  1.00  0.00    -0.343 C  
BRANCH  27  28
HETATM   28  C   UNK A   1     -12.687  11.426  71.230  1.00  0.00    -0.393 C  
ATOM     29  H   GLY A   2     -12.207  13.354  70.585  1.00  0.00     0.000 HD 
ATOM     30  N   GLY A   2     -12.761  12.805  71.242  1.00  0.00    -0.336 N  
HETATM   31  O   UNK A   1     -13.372  10.760  72.004  1.00  0.00    -0.447 OA 
BRANCH  30  32
ATOM     32  CA  GLY A   2     -13.636  13.469  72.200  1.00  0.00    -0.557 C  
ATOM     33  OXT GLY A   2     -14.117  15.720  73.018  1.00  0.00    -0.473 OA 
ATOM     34  C   GLY A   2     -13.824  14.988  72.080  1.00  0.00    -0.479 C  
ATOM     35  O   GLY A   2     -13.853  15.447  70.815  1.00  0.00    -0.386 OA 
ENDBRANCH  30  32
ENDBRANCH  27  28
BRANCH  27  36
HETATM   36  N   UNK A   1     -11.883   9.311  69.932  1.00  0.00    -0.401 N  
HETATM   37  H   UNK A   1     -12.791   8.854  69.851  1.00  0.00     0.000 HD 
HETATM   38  O   UNK A   1      -9.614   9.010  69.833  1.00  0.00    -0.169 OA 
HETATM   39  C   UNK A   1     -10.745   8.540  69.883  1.00  0.00    -0.224 C  
BRANCH  39  40
HETATM   40  C   UNK A   1     -10.955   7.039  69.751  1.00  0.00    -0.283 C  
BRANCH  40  41
HETATM   41  C   UNK A   1     -10.488   6.166  70.931  1.00  0.00    -0.282 C  
BRANCH  41  42
HETATM   42  C   UNK A   1     -11.326   6.200  72.217  1.00  0.00    -0.300 C  
HETATM   43  N   UNK A   1     -12.744   6.566  71.958  1.00  0.00    -0.505 NA 
HETATM   44  C   UNK A   1     -10.761   7.236  73.171  1.00  0.00    -0.365 C  
HETATM   45  O   UNK A   1      -9.796   7.143  73.908  1.00  0.00    -0.271 OA 
HETATM   46  O   UNK A   1     -11.469   8.381  73.045  1.00  0.00    -0.167 OA 
HETATM   47  H2  UNK A   1     -13.162   5.950  71.262  1.00  0.00     0.000 HD 
HETATM   48  H1  UNK A   1     -13.301   6.589  72.812  1.00  0.00     0.000 HD 
ENDBRANCH  41  42
ENDBRANCH  40  41
ENDBRANCH  39  40
ENDBRANCH  27  36
ENDBRANCH  26  27
ENDBRANCH  25  26
ENDBRANCH  24  25
ENDBRANCH  23  24
ENDBRANCH  14  23
ENDBRANCH  11  14
ENDBRANCH   9  10
ENDBRANCH   8   9
ENDBRANCH   4   8
TORSDOF 17
ENDMDL
MODEL      196
REMARK 921   NORMALIZED FREE ENERGY PREDICTED BY IDOCK:   -4.11 KCAL/MOL
REMARK 922        TOTAL FREE ENERGY PREDICTED BY IDOCK:  -11.16 KCAL/MOL
REMARK 923 INTER-LIGAND FREE ENERGY PREDICTED BY IDOCK:  -10.40 KCAL/MOL
REMARK 924 INTRA-LIGAND FREE ENERGY PREDICTED BY IDOCK:   -0.76 KCAL/MOL
REMARK 927      BINDING AFFINITY PREDICTED BY RF-SCORE:    0.00 PKD
ROOT
HETATM    1  N   UNK A   1      -8.297   8.142  71.300  1.00  0.00    -0.112 NA 
HETATM    2  H1  UNK A   1      -8.319   9.138  71.517  1.00  0.00     0.000 HD 
HETATM    3  H2  UNK A   1      -8.493   7.984  70.311  1.00  0.00     0.000 HD 
HETATM    4  C   UNK A   1      -9.204   7.328  72.153  1.00  0.00    -0.132 C  
HETATM    5  O   UNK A   1      -9.133   6.868  74.564  1.00  0.00    -0.192 OA 
HETATM    6  C   UNK A   1      -8.880   7.611  73.630  1.00  0.00    -0.243 C  
HETATM    7  O   UNK A   1      -8.267   8.814  73.769  1.00  0.00    -0.356 OA 
ENDROOT
BRANCH   4   8
HETATM    8  C   UNK A   1      -9.171   5.833  71.827  1.00  0.00    -0.157 C  
BRANCH   8   9
HETATM    9  C   UNK A   1     -10.435   5.288  71.159  1.00  0.00    -0.275 C  
BRANCH   9  10
HETATM   10  C   UNK A   1     -10.678   6.013  69.856  1.00  0.00    -0.325 C  
HETATM   11  N   UNK A   1      -9.540   6.243  69.111  1.00  0.00    -0.135 N  
HETATM   12  O   UNK A   1     -11.793   6.398  69.517  1.00  0.00    -0.274 OA 
HETATM   13  H   UNK A   1      -8.629   5.953  69.464  1.00  0.00     0.000 HD 
BRANCH  11  14
HETATM   14  C   UNK A   1      -9.650   6.908  67.805  1.00  0.00    -0.122 C  
BRANCH  14  15
HETATM   15  C   UNK A   1      -8.655   6.248  66.830  1.00  0.00    -0.116 C  
ATOM     16  H   GLY A   2      -7.584   5.511  68.440  1.00  0.00     0.000 HD 
ATOM     17  N   GLY A   2      -7.640   5.528  67.422  1.00  0.00    -0.088 N  
HETATM   18  O   UNK A   1      -8.743   6.368  65.617  1.00  0.00    -0.149 OA 
BRANCH  17  19
ATOM     19  CA  GLY A   2      -6.647   4.794  66.658  1.00  0.00    -0.050 C  
ATOM     20  C   GLY A   2      -7.208   3.660  65.814  1.00  0.00    -0.071 C  
ATOM     21  O   GLY A   2      -8.374   3.116  66.274  1.00  0.00    -0.095 OA 
ATOM     22  OXT GLY A   2      -6.646   3.204  64.829  1.00  0.00    -0.037 OA 
ENDBRANCH  17  19
ENDBRANCH  14  15
BRANCH  14  23
HETATM   23  C   UNK A   1      -9.388   8.417  67.941  1.00  0.00    -0.135 C  
BRANCH  23  24
HETATM   24  S   UNK A   1      -9.960   9.454  66.558  1.00  0.00    -0.271 SA 
BRANCH  24  25
HETATM   25  S   UNK A   1      -9.312  11.315  67.124  1.00  0.00    -0.164 SA 
BRANCH  25  26
HETATM   26  C   UNK A   1     -10.102  11.518  68.760  1.00  0.00    -0.179 C  
BRANCH  26  27
HETATM   27  C   UNK A   1     -10.851  12.847  68.969  1.00  0.00    -0.145 C  
BRANCH  27  28
HETATM   28  C   UNK A   1     -11.493  13.332  67.635  1.00  0.00    -0.321 C  
ATOM     29  H   GLY A   2     -10.122  14.899  67.464  1.00  0.00     0.000 HD 
ATOM     30  N   GLY A   2     -10.894  14.408  67.012  1.00  0.00    -0.292 N  
HETATM   31  O   UNK A   1     -12.407  12.723  67.082  1.00  0.00    -0.357 OA 
BRANCH  30  32
ATOM     32  CA  GLY A   2     -11.373  14.839  65.705  1.00  0.00    -0.343 C  
ATOM     33  OXT GLY A   2     -11.382  16.839  64.303  1.00  0.00    -1.170 OA 
ATOM     34  C   GLY A   2     -10.792  16.129  65.109  1.00  0.00    -0.361 C  
ATOM     35  O   GLY A   2      -9.486  16.325  65.369  1.00  0.00    -0.405 OA 
ENDBRANCH  30  32
ENDBRANCH  27  28
BRANCH  27  36
HETATM   36  N   UNK A   1     -11.662  12.913  70.205  1.00  0.00    -0.544 N  
HETATM   37  H   UNK A   1     -11.542  13.709  70.832  1.00  0.00     0.000 HD 
HETATM   38  O   UNK A   1     -12.883  11.021  69.783  1.00  0.00    -0.133 OA 
HETATM   39  C   UNK A   1     -12.572  11.937  70.537  1.00  0.00    -0.128 C  
BRANCH  39  40
HETATM   40  C   UNK A   1     -13.302  12.119  71.859  1.00  0.00    -0.421 C  
BRANCH  40  41
HETATM   41  C   UNK A   1     -13.461  13.563  72.371  1.00  0.00    -0.685 C  
BRANCH  41  42
HETATM   42  C   UNK A   1     -12.182  14.368  72.641  1.00  0.00    -0.023 C  
HETATM   43  N   UNK A   1     -11.970  14.624  74.091  1.00  0.00    -0.467 NA 
HETATM   44  C   UNK A   1     -12.273  15.719  71.954  1.00  0.00    -0.459 C  
HETATM   45  O   UNK A   1     -12.090  15.988  70.781  1.00  0.00    -0.380 OA 
HETATM   46  O   UNK A   1     -12.676  16.643  72.855  1.00  0.00    -0.086 OA 
HETATM   47  H2  UNK A   1     -11.976  13.754  74.622  1.00  0.00     0.000 HD 
HETATM   48  H1  UNK A   1     -11.120  15.159  74.270  1.00  0.00     0.000 HD 
ENDBRANCH  41  42
ENDBRANCH  40  41
ENDBRANCH  39  40
ENDBRANCH  27  36
ENDBRANCH  26  27
ENDBRANCH  25  26
ENDBRANCH  24  25
ENDBRANCH  23  24
ENDBRANCH  14  23
ENDBRANCH  11  14
ENDBRANCH   9  10
ENDBRANCH   8   9
ENDBRANCH   4   8
TORSDOF 17
ENDMDL
MODEL      197
REMARK 921   NORMALIZED FREE ENERGY PREDICTED BY IDOCK:   -4.10 KCAL/MOL
REMARK 922        TOTAL FREE ENERGY PREDICTED BY IDOCK:  -11.15 KCAL/MOL
REMARK 923 INTER-LIGAND FREE ENERGY PREDICTED BY IDOCK:   -9.09 KCAL/MOL
REMARK 924 INTRA-LIGAND FREE ENERGY PREDICTED BY IDOCK:   -2.06 KCAL/MOL
REMARK 927      BINDING AFFINITY PREDICTED BY RF-SCORE:    0.00 PKD
ROOT
HETATM    1  N   UNK A   1     -10.908  18.635  67.374  1.00  0.00    -0.404 NA 
HETATM    2  H1  UNK A   1     -10.957  19.311  68.137  1.00  0.00     0.000 HD 
HETATM    3  H2  UNK A   1     -11.379  17.767  67.630  1.00  0.00     0.000 HD 
HETATM    4  C   UNK A   1      -9.521  18.363  66.910  1.00  0.00    -0.291 C  
HETATM    5  O   UNK A   1      -7.899  19.833  65.796  1.00  0.00    -0.342 OA 
HETATM    6  C   UNK A   1      -8.849  19.700  66.551  1.00  0.00    -0.364 C  
HETATM    7  O   UNK A   1      -9.453  20.733  67.190  1.00  0.00    -0.405 OA 
ENDROOT
BRANCH   4   8
HETATM    8  C   UNK A   1      -9.447  17.349  65.766  1.00  0.00     0.112 C  
BRANCH   8   9
HETATM    9  C   UNK A   1     -10.596  16.340  65.721  1.00  0.00    -0.336 C  
BRANCH   9  10
HETATM   10  C   UNK A   1     -10.325  15.213  66.691  1.00  0.00    -0.274 C  
HETATM   11  N   UNK A   1      -9.286  14.384  66.325  1.00  0.00    -0.476 N  
HETATM   12  O   UNK A   1     -11.007  15.034  67.696  1.00  0.00    -0.286 OA 
HETATM   13  H   UNK A   1      -8.787  14.542  65.450  1.00  0.00     0.000 HD 
BRANCH  11  14
HETATM   14  C   UNK A   1      -8.901  13.272  67.204  1.00  0.00    -0.222 C  
BRANCH  14  15
HETATM   15  C   UNK A   1      -7.499  13.559  67.779  1.00  0.00    -0.166 C  
ATOM     16  H   GLY A   2      -8.289  15.110  68.898  1.00  0.00     0.000 HD 
ATOM     17  N   GLY A   2      -7.438  14.587  68.694  1.00  0.00    -0.121 N  
HETATM   18  O   UNK A   1      -6.507  12.935  67.437  1.00  0.00    -0.160 OA 
BRANCH  17  19
ATOM     19  CA  GLY A   2      -6.212  14.957  69.380  1.00  0.00    -0.114 C  
ATOM     20  C   GLY A   2      -6.096  16.435  69.717  1.00  0.00    -0.212 C  
ATOM     21  O   GLY A   2      -6.796  17.274  68.896  1.00  0.00    -0.204 OA 
ATOM     22  OXT GLY A   2      -5.385  16.874  70.608  1.00  0.00    -0.220 OA 
ENDBRANCH  17  19
ENDBRANCH  14  15
BRANCH  14  23
HETATM   23  C   UNK A   1      -8.933  11.938  66.438  1.00  0.00    -0.180 C  
BRANCH  23  24
HETATM   24  S   UNK A   1     -10.584  11.235  66.128  1.00  0.00    -0.241 SA 
BRANCH  24  25
HETATM   25  S   UNK A   1     -11.506  11.501  67.940  1.00  0.00    -0.290 SA 
BRANCH  25  26
HETATM   26  C   UNK A   1     -10.449  10.517  69.060  1.00  0.00    -0.217 C  
BRANCH  26  27
HETATM   27  C   UNK A   1     -10.519   8.991  68.862  1.00  0.00    -0.210 C  
BRANCH  27  28
HETATM   28  C   UNK A   1      -9.157   8.442  68.341  1.00  0.00    -0.135 C  
ATOM     29  H   GLY A   2      -9.960   8.044  66.454  1.00  0.00     0.000 HD 
ATOM     30  N   GLY A   2      -9.111   8.047  67.019  1.00  0.00    -0.139 N  
HETATM   31  O   UNK A   1      -8.131   8.470  69.018  1.00  0.00    -0.111 OA 
BRANCH  30  32
ATOM     32  CA  GLY A   2      -7.840   7.633  66.437  1.00  0.00    -0.094 C  
ATOM     33  OXT GLY A   2      -6.821   7.337  64.237  1.00  0.00    -0.046 OA 
ATOM     34  C   GLY A   2      -7.571   7.977  64.965  1.00  0.00    -0.104 C  
ATOM     35  O   GLY A   2      -8.055   9.170  64.574  1.00  0.00    -0.123 OA 
ENDBRANCH  30  32
ENDBRANCH  27  28
BRANCH  27  36
HETATM   36  N   UNK A   1     -11.205   8.256  69.947  1.00  0.00    -0.448 N  
HETATM   37  H   UNK A   1     -11.903   7.554  69.703  1.00  0.00     0.000 HD 
HETATM   38  O   UNK A   1     -10.018   9.210  71.659  1.00  0.00    -0.316 OA 
HETATM   39  C   UNK A   1     -10.933   8.489  71.275  1.00  0.00    -0.256 C  
BRANCH  39  40
HETATM   40  C   UNK A   1     -11.748   7.688  72.279  1.00  0.00    -0.371 C  
BRANCH  40  41
HETATM   41  C   UNK A   1     -10.997   6.600  73.072  1.00  0.00    -0.279 C  
BRANCH  41  42
HETATM   42  C   UNK A   1     -11.134   5.148  72.592  1.00  0.00    -0.234 C  
HETATM   43  N   UNK A   1     -10.800   4.167  73.659  1.00  0.00    -0.239 NA 
HETATM   44  C   UNK A   1     -10.182   4.898  71.437  1.00  0.00    -0.187 C  
HETATM   45  O   UNK A   1     -10.313   5.204  70.266  1.00  0.00    -0.268 OA 
HETATM   46  O   UNK A   1      -9.060   4.312  71.912  1.00  0.00    -0.117 OA 
HETATM   47  H2  UNK A   1     -11.356   4.332  74.498  1.00  0.00     0.000 HD 
HETATM   48  H1  UNK A   1     -10.891   3.202  73.341  1.00  0.00     0.000 HD 
ENDBRANCH  41  42
ENDBRANCH  40  41
ENDBRANCH  39  40
ENDBRANCH  27  36
ENDBRANCH  26  27
ENDBRANCH  25  26
ENDBRANCH  24  25
ENDBRANCH  23  24
ENDBRANCH  14  23
ENDBRANCH  11  14
ENDBRANCH   9  10
ENDBRANCH   8   9
ENDBRANCH   4   8
TORSDOF 17
ENDMDL
MODEL      198
REMARK 921   NORMALIZED FREE ENERGY PREDICTED BY IDOCK:   -4.09 KCAL/MOL
REMARK 922        TOTAL FREE ENERGY PREDICTED BY IDOCK:  -11.13 KCAL/MOL
REMARK 923 INTER-LIGAND FREE ENERGY PREDICTED BY IDOCK:   -9.68 KCAL/MOL
REMARK 924 INTRA-LIGAND FREE ENERGY PREDICTED BY IDOCK:   -1.45 KCAL/MOL
REMARK 927      BINDING AFFINITY PREDICTED BY RF-SCORE:    0.00 PKD
ROOT
HETATM    1  N   UNK A   1     -10.228  10.284  63.557  1.00  0.00    -0.457 NA 
HETATM    2  H1  UNK A   1     -10.129  10.130  62.553  1.00  0.00     0.000 HD 
HETATM    3  H2  UNK A   1     -10.770  11.129  63.740  1.00  0.00     0.000 HD 
HETATM    4  C   UNK A   1      -8.931  10.322  64.284  1.00  0.00    -0.234 C  
HETATM    5  O   UNK A   1      -7.263   8.558  64.657  1.00  0.00    -0.082 OA 
HETATM    6  C   UNK A   1      -8.147   9.037  63.965  1.00  0.00    -0.158 C  
HETATM    7  O   UNK A   1      -8.567   8.490  62.795  1.00  0.00    -0.158 OA 
ENDROOT
BRANCH   4   8
HETATM    8  C   UNK A   1      -9.080  10.553  65.789  1.00  0.00    -0.204 C  
BRANCH   8   9
HETATM    9  C   UNK A   1      -7.925  11.311  66.445  1.00  0.00    -0.125 C  
BRANCH   9  10
HETATM   10  C   UNK A   1      -8.452  12.542  67.145  1.00  0.00    -0.186 C  
HETATM   11  N   UNK A   1      -9.330  13.293  66.392  1.00  0.00    -0.408 N  
HETATM   12  O   UNK A   1      -8.091  12.861  68.274  1.00  0.00    -0.143 OA 
HETATM   13  H   UNK A   1      -9.554  13.016  65.437  1.00  0.00     0.000 HD 
BRANCH  11  14
HETATM   14  C   UNK A   1      -9.940  14.496  66.975  1.00  0.00    -0.255 C  
BRANCH  14  15
HETATM   15  C   UNK A   1      -9.009  15.698  66.716  1.00  0.00    -0.261 C  
ATOM     16  H   GLY A   2      -8.681  15.865  68.752  1.00  0.00     0.000 HD 
ATOM     17  N   GLY A   2      -8.432  16.247  67.840  1.00  0.00    -0.163 N  
HETATM   18  O   UNK A   1      -8.810  16.148  65.599  1.00  0.00    -0.329 OA 
BRANCH  17  19
ATOM     19  CA  GLY A   2      -7.484  17.346  67.780  1.00  0.00    -0.188 C  
ATOM     20  C   GLY A   2      -7.948  18.620  68.467  1.00  0.00    -0.337 C  
ATOM     21  O   GLY A   2      -9.303  18.783  68.536  1.00  0.00    -0.324 OA 
ATOM     22  OXT GLY A   2      -7.188  19.485  68.878  1.00  0.00    -0.340 OA 
ENDBRANCH  17  19
ENDBRANCH  14  15
BRANCH  14  23
HETATM   23  C   UNK A   1     -10.200  14.299  68.479  1.00  0.00    -0.245 C  
BRANCH  23  24
HETATM   24  S   UNK A   1     -11.883  13.776  68.936  1.00  0.00    -0.371 SA 
BRANCH  24  25
HETATM   25  S   UNK A   1     -11.813  11.758  68.578  1.00  0.00    -0.238 SA 
BRANCH  25  26
HETATM   26  C   UNK A   1     -12.242  11.061  70.213  1.00  0.00    -0.363 C  
BRANCH  26  27
HETATM   27  C   UNK A   1     -11.240  10.036  70.775  1.00  0.00    -0.352 C  
BRANCH  27  28
HETATM   28  C   UNK A   1     -11.987   8.890  71.520  1.00  0.00    -0.333 C  
ATOM     29  H   GLY A   2     -11.050   7.429  70.357  1.00  0.00     0.000 HD 
ATOM     30  N   GLY A   2     -11.677   7.598  71.143  1.00  0.00    -0.286 N  
HETATM   31  O   UNK A   1     -12.723   9.097  72.483  1.00  0.00    -0.367 OA 
BRANCH  30  32
ATOM     32  CA  GLY A   2     -12.253   6.478  71.878  1.00  0.00    -0.324 C  
ATOM     33  OXT GLY A   2     -11.527   4.616  73.281  1.00  0.00    -0.320 OA 
ATOM     34  C   GLY A   2     -11.386   5.783  72.937  1.00  0.00    -0.252 C  
ATOM     35  O   GLY A   2     -10.582   6.611  73.630  1.00  0.00    -0.295 OA 
ENDBRANCH  30  32
ENDBRANCH  27  28
BRANCH  27  36
HETATM   36  N   UNK A   1     -10.138   9.676  69.855  1.00  0.00    -0.229 N  
HETATM   37  H   UNK A   1     -10.298   9.730  68.850  1.00  0.00     0.000 HD 
HETATM   38  O   UNK A   1      -8.579   9.309  71.494  1.00  0.00    -0.320 OA 
HETATM   39  C   UNK A   1      -8.906   9.271  70.312  1.00  0.00    -0.224 C  
BRANCH  39  40
HETATM   40  C   UNK A   1      -7.886   8.892  69.249  1.00  0.00    -0.096 C  
BRANCH  40  41
HETATM   41  C   UNK A   1      -7.790   7.400  68.880  1.00  0.00    -0.117 C  
BRANCH  41  42
HETATM   42  C   UNK A   1      -8.963   6.491  69.276  1.00  0.00    -0.131 C  
HETATM   43  N   UNK A   1      -8.662   5.672  70.480  1.00  0.00    -0.135 NA 
HETATM   44  C   UNK A   1      -9.272   5.530  68.143  1.00  0.00    -0.109 C  
HETATM   45  O   UNK A   1      -9.895   5.740  67.117  1.00  0.00    -0.126 OA 
HETATM   46  O   UNK A   1      -8.670   4.346  68.396  1.00  0.00    -0.096 OA 
HETATM   47  H2  UNK A   1      -8.371   6.259  71.261  1.00  0.00     0.000 HD 
HETATM   48  H1  UNK A   1      -9.441   5.069  70.743  1.00  0.00     0.000 HD 
ENDBRANCH  41  42
ENDBRANCH  40  41
ENDBRANCH  39  40
ENDBRANCH  27  36
ENDBRANCH  26  27
ENDBRANCH  25  26
ENDBRANCH  24  25
ENDBRANCH  23  24
ENDBRANCH  14  23
ENDBRANCH  11  14
ENDBRANCH   9  10
ENDBRANCH   8   9
ENDBRANCH   4   8
TORSDOF 17
ENDMDL
MODEL      199
REMARK 921   NORMALIZED FREE ENERGY PREDICTED BY IDOCK:   -4.07 KCAL/MOL
REMARK 922        TOTAL FREE ENERGY PREDICTED BY IDOCK:  -11.09 KCAL/MOL
REMARK 923 INTER-LIGAND FREE ENERGY PREDICTED BY IDOCK:   -9.63 KCAL/MOL
REMARK 924 INTRA-LIGAND FREE ENERGY PREDICTED BY IDOCK:   -1.47 KCAL/MOL
REMARK 927      BINDING AFFINITY PREDICTED BY RF-SCORE:    0.00 PKD
ROOT
HETATM    1  N   UNK A   1      -9.270  18.927  65.997  1.00  0.00    -0.464 NA 
HETATM    2  H1  UNK A   1      -9.003  19.266  65.072  1.00  0.00     0.000 HD 
HETATM    3  H2  UNK A   1     -10.166  19.322  66.281  1.00  0.00     0.000 HD 
HETATM    4  C   UNK A   1      -8.235  19.167  67.039  1.00  0.00    -0.267 C  
HETATM    5  O   UNK A   1      -5.975  18.236  67.280  1.00  0.00    -0.147 OA 
HETATM    6  C   UNK A   1      -6.902  18.567  66.558  1.00  0.00    -0.202 C  
HETATM    7  O   UNK A   1      -6.882  18.450  65.206  1.00  0.00    -0.520 OA 
ENDROOT
BRANCH   4   8
HETATM    8  C   UNK A   1      -8.635  18.658  68.425  1.00  0.00    -0.366 C  
BRANCH   8   9
HETATM    9  C   UNK A   1      -8.775  17.139  68.542  1.00  0.00    -0.261 C  
BRANCH   9  10
HETATM   10  C   UNK A   1     -10.222  16.743  68.361  1.00  0.00    -0.296 C  
HETATM   11  N   UNK A   1     -10.492  15.424  68.658  1.00  0.00    -0.232 N  
HETATM   12  O   UNK A   1     -11.070  17.527  67.945  1.00  0.00    -0.241 OA 
HETATM   13  H   UNK A   1      -9.740  14.798  68.945  1.00  0.00     0.000 HD 
BRANCH  11  14
HETATM   14  C   UNK A   1     -11.870  14.925  68.556  1.00  0.00    -0.294 C  
BRANCH  14  15
HETATM   15  C   UNK A   1     -12.363  14.544  69.967  1.00  0.00    -0.323 C  
ATOM     16  H   GLY A   2     -13.124  16.453  70.204  1.00  0.00     0.000 HD 
ATOM     17  N   GLY A   2     -13.034  15.538  70.644  1.00  0.00    -0.440 N  
HETATM   18  O   UNK A   1     -12.159  13.446  70.462  1.00  0.00    -0.349 OA 
BRANCH  17  19
ATOM     19  CA  GLY A   2     -13.618  15.339  71.959  1.00  0.00    -0.469 C  
ATOM     20  C   GLY A   2     -12.787  15.882  73.110  1.00  0.00    -0.537 C  
ATOM     21  O   GLY A   2     -11.443  15.952  72.874  1.00  0.00    -0.294 OA 
ATOM     22  OXT GLY A   2     -13.251  16.180  74.201  1.00  0.00    -0.559 OA 
ENDBRANCH  17  19
ENDBRANCH  14  15
BRANCH  14  23
HETATM   23  C   UNK A   1     -11.946  13.729  67.592  1.00  0.00    -0.356 C  
BRANCH  23  24
HETATM   24  S   UNK A   1     -10.522  12.594  67.614  1.00  0.00    -0.222 SA 
BRANCH  24  25
HETATM   25  S   UNK A   1     -11.406  10.813  68.114  1.00  0.00    -0.270 SA 
BRANCH  25  26
HETATM   26  C   UNK A   1     -10.112   9.602  67.669  1.00  0.00    -0.194 C  
BRANCH  26  27
HETATM   27  C   UNK A   1      -9.713   8.621  68.788  1.00  0.00    -0.166 C  
BRANCH  27  28
HETATM   28  C   UNK A   1     -10.078   7.159  68.392  1.00  0.00    -0.168 C  
ATOM     29  H   GLY A   2     -10.588   7.738  66.451  1.00  0.00     0.000 HD 
ATOM     30  N   GLY A   2     -10.469   6.948  67.085  1.00  0.00    -0.266 N  
HETATM   31  O   UNK A   1      -9.910   6.208  69.153  1.00  0.00    -0.139 OA 
BRANCH  30  32
ATOM     32  CA  GLY A   2     -10.712   5.589  66.619  1.00  0.00    -0.261 C  
ATOM     33  OXT GLY A   2      -9.605   3.860  65.295  1.00  0.00    -0.164 OA 
ATOM     34  C   GLY A   2      -9.517   4.773  66.107  1.00  0.00    -0.163 C  
ATOM     35  O   GLY A   2      -8.368   4.987  66.777  1.00  0.00    -0.108 OA 
ENDBRANCH  30  32
ENDBRANCH  27  28
BRANCH  27  36
HETATM   36  N   UNK A   1      -8.388   8.877  69.393  1.00  0.00    -0.110 N  
HETATM   37  H   UNK A   1      -7.589   9.040  68.781  1.00  0.00     0.000 HD 
HETATM   38  O   UNK A   1      -9.117   8.854  71.565  1.00  0.00    -0.233 OA 
HETATM   39  C   UNK A   1      -8.197   8.901  70.755  1.00  0.00    -0.171 C  
BRANCH  39  40
HETATM   40  C   UNK A   1      -6.771   9.133  71.231  1.00  0.00    -0.073 C  
BRANCH  40  41
HETATM   41  C   UNK A   1      -6.270   8.241  72.383  1.00  0.00    -0.064 C  
BRANCH  41  42
HETATM   42  C   UNK A   1      -5.532   6.947  72.013  1.00  0.00    -0.037 C  
HETATM   43  N   UNK A   1      -5.191   6.884  70.566  1.00  0.00    -0.022 NA 
HETATM   44  C   UNK A   1      -6.412   5.749  72.320  1.00  0.00    -0.057 C  
HETATM   45  O   UNK A   1      -6.622   5.218  73.396  1.00  0.00    -0.067 OA 
HETATM   46  O   UNK A   1      -7.032   5.357  71.185  1.00  0.00    -0.056 OA 
HETATM   47  H2  UNK A   1      -4.661   7.706  70.277  1.00  0.00     0.000 HD 
HETATM   48  H1  UNK A   1      -4.701   6.025  70.320  1.00  0.00     0.000 HD 
ENDBRANCH  41  42
ENDBRANCH  40  41
ENDBRANCH  39  40
ENDBRANCH  27  36
ENDBRANCH  26  27
ENDBRANCH  25  26
ENDBRANCH  24  25
ENDBRANCH  23  24
ENDBRANCH  14  23
ENDBRANCH  11  14
ENDBRANCH   9  10
ENDBRANCH   8   9
ENDBRANCH   4   8
TORSDOF 17
ENDMDL
MODEL      200
REMARK 921   NORMALIZED FREE ENERGY PREDICTED BY IDOCK:   -4.07 KCAL/MOL
REMARK 922        TOTAL FREE ENERGY PREDICTED BY IDOCK:  -11.09 KCAL/MOL
REMARK 923 INTER-LIGAND FREE ENERGY PREDICTED BY IDOCK:   -8.68 KCAL/MOL
REMARK 924 INTRA-LIGAND FREE ENERGY PREDICTED BY IDOCK:   -2.41 KCAL/MOL
REMARK 927      BINDING AFFINITY PREDICTED BY RF-SCORE:    0.00 PKD
ROOT
HETATM    1  N   UNK A   1      -6.112   9.925  71.813  1.00  0.00    -0.298 NA 
HETATM    2  H1  UNK A   1      -6.652  10.600  72.354  1.00  0.00     0.000 HD 
HETATM    3  H2  UNK A   1      -6.270  10.055  70.813  1.00  0.00     0.000 HD 
HETATM    4  C   UNK A   1      -6.361   8.512  72.206  1.00  0.00    -0.073 C  
HETATM    5  O   UNK A   1      -5.857   7.330  74.299  1.00  0.00    -0.064 OA 
HETATM    6  C   UNK A   1      -6.123   8.371  73.719  1.00  0.00    -0.115 C  
HETATM    7  O   UNK A   1      -6.251   9.569  74.344  1.00  0.00    -0.349 OA 
ENDROOT
BRANCH   4   8
HETATM    8  C   UNK A   1      -5.550   7.500  71.393  1.00  0.00    -0.035 C  
BRANCH   8   9
HETATM    9  C   UNK A   1      -6.306   6.228  71.005  1.00  0.00    -0.048 C  
BRANCH   9  10
HETATM   10  C   UNK A   1      -7.088   6.465  69.734  1.00  0.00    -0.072 C  
HETATM   11  N   UNK A   1      -6.308   6.648  68.611  1.00  0.00    -0.030 N  
HETATM   12  O   UNK A   1      -8.314   6.531  69.719  1.00  0.00    -0.124 OA 
HETATM   13  H   UNK A   1      -5.291   6.642  68.686  1.00  0.00     0.000 HD 
BRANCH  11  14
HETATM   14  C   UNK A   1      -6.951   6.851  67.306  1.00  0.00    -0.078 C  
BRANCH  14  15
HETATM   15  C   UNK A   1      -6.751   5.582  66.453  1.00  0.00    -0.057 C  
ATOM     16  H   GLY A   2      -8.766   5.152  66.644  1.00  0.00     0.000 HD 
ATOM     17  N   GLY A   2      -7.892   4.846  66.217  1.00  0.00    -0.095 N  
HETATM   18  O   UNK A   1      -5.659   5.238  66.031  1.00  0.00    -0.013 OA 
BRANCH  17  19
ATOM     19  CA  GLY A   2      -7.902   3.655  65.387  1.00  0.00    -0.086 C  
ATOM     20  C   GLY A   2      -9.083   3.554  64.436  1.00  0.00    -0.128 C  
ATOM     21  O   GLY A   2     -10.211   4.214  64.840  1.00  0.00    -0.219 OA 
ATOM     22  OXT GLY A   2      -9.076   2.886  63.413  1.00  0.00    -0.095 OA 
ENDBRANCH  17  19
ENDBRANCH  14  15
BRANCH  14  23
HETATM   23  C   UNK A   1      -6.378   8.096  66.606  1.00  0.00    -0.055 C  
BRANCH  23  24
HETATM   24  S   UNK A   1      -7.334   8.726  65.190  1.00  0.00    -0.090 SA 
BRANCH  24  25
HETATM   25  S   UNK A   1      -7.637  10.683  65.719  1.00  0.00    -0.079 SA 
BRANCH  25  26
HETATM   26  C   UNK A   1      -8.124  10.538  67.475  1.00  0.00    -0.107 C  
BRANCH  26  27
HETATM   27  C   UNK A   1      -9.540   9.985  67.723  1.00  0.00    -0.148 C  
BRANCH  27  28
HETATM   28  C   UNK A   1      -9.716   9.577  69.216  1.00  0.00    -0.176 C  
ATOM     29  H   GLY A   2     -11.578   8.711  68.831  1.00  0.00     0.000 HD 
ATOM     30  N   GLY A   2     -10.859   8.872  69.537  1.00  0.00    -0.198 N  
HETATM   31  O   UNK A   1      -8.836   9.752  70.057  1.00  0.00    -0.209 OA 
BRANCH  30  32
ATOM     32  CA  GLY A   2     -11.030   8.360  70.890  1.00  0.00    -0.243 C  
ATOM     33  OXT GLY A   2     -12.411   6.748  72.099  1.00  0.00    -0.266 OA 
ATOM     34  C   GLY A   2     -11.806   7.048  71.077  1.00  0.00    -0.351 C  
ATOM     35  O   GLY A   2     -11.602   6.137  70.107  1.00  0.00    -0.375 OA 
ENDBRANCH  30  32
ENDBRANCH  27  28
BRANCH  27  36
HETATM   36  N   UNK A   1     -10.626  10.747  67.068  1.00  0.00    -0.248 N  
HETATM   37  H   UNK A   1     -11.232  10.269  66.402  1.00  0.00     0.000 HD 
HETATM   38  O   UNK A   1     -10.262  12.699  68.211  1.00  0.00    -0.229 OA 
HETATM   39  C   UNK A   1     -10.846  12.079  67.329  1.00  0.00    -0.246 C  
BRANCH  39  40
HETATM   40  C   UNK A   1     -11.973  12.741  66.549  1.00  0.00    -0.428 C  
BRANCH  40  41
HETATM   41  C   UNK A   1     -11.823  14.245  66.254  1.00  0.00    -0.420 C  
BRANCH  41  42
HETATM   42  C   UNK A   1     -10.818  14.662  65.170  1.00  0.00    -0.401 C  
HETATM   43  N   UNK A   1      -9.445  14.841  65.711  1.00  0.00    -0.506 NA 
HETATM   44  C   UNK A   1     -11.240  15.988  64.564  1.00  0.00    -0.297 C  
HETATM   45  O   UNK A   1     -12.098  16.202  63.727  1.00  0.00    -0.946 OA 
HETATM   46  O   UNK A   1     -10.543  16.984  65.158  1.00  0.00    -0.688 OA 
HETATM   47  H2  UNK A   1      -9.130  14.005  66.202  1.00  0.00     0.000 HD 
HETATM   48  H1  UNK A   1      -8.777  15.119  64.991  1.00  0.00     0.000 HD 
ENDBRANCH  41  42
ENDBRANCH  40  41
ENDBRANCH  39  40
ENDBRANCH  27  36
ENDBRANCH  26  27
ENDBRANCH  25  26
ENDBRANCH  24  25
ENDBRANCH  23  24
ENDBRANCH  14  23
ENDBRANCH  11  14
ENDBRANCH   9  10
ENDBRANCH   8   9
ENDBRANCH   4   8
TORSDOF 17
ENDMDL
MODEL      201
REMARK 921   NORMALIZED FREE ENERGY PREDICTED BY IDOCK:   -4.04 KCAL/MOL
REMARK 922        TOTAL FREE ENERGY PREDICTED BY IDOCK:  -11.02 KCAL/MOL
REMARK 923 INTER-LIGAND FREE ENERGY PREDICTED BY IDOCK:   -8.56 KCAL/MOL
REMARK 924 INTRA-LIGAND FREE ENERGY PREDICTED BY IDOCK:   -2.46 KCAL/MOL
REMARK 927      BINDING AFFINITY PREDICTED BY RF-SCORE:    0.00 PKD
ROOT
HETATM    1  N   UNK A   1     -10.786  17.378  67.609  1.00  0.00    -0.347 NA 
HETATM    2  H1  UNK A   1     -10.654  17.850  68.504  1.00  0.00     0.000 HD 
HETATM    3  H2  UNK A   1     -11.462  16.619  67.699  1.00  0.00     0.000 HD 
HETATM    4  C   UNK A   1      -9.519  16.886  67.004  1.00  0.00    -0.244 C  
HETATM    5  O   UNK A   1      -7.584  18.125  66.135  1.00  0.00    -0.309 OA 
HETATM    6  C   UNK A   1      -8.530  18.060  66.904  1.00  0.00    -0.249 C  
HETATM    7  O   UNK A   1      -8.844  19.035  67.795  1.00  0.00    -0.286 OA 
ENDROOT
BRANCH   4   8
HETATM    8  C   UNK A   1      -9.717  16.177  65.662  1.00  0.00    -0.239 C  
BRANCH   8   9
HETATM    9  C   UNK A   1     -10.712  15.015  65.686  1.00  0.00    -0.365 C  
BRANCH   9  10
HETATM   10  C   UNK A   1     -10.189  13.911  66.576  1.00  0.00    -0.280 C  
HETATM   11  N   UNK A   1      -8.921  13.474  66.256  1.00  0.00    -0.460 N  
HETATM   12  O   UNK A   1     -10.861  13.423  67.479  1.00  0.00    -0.258 OA 
HETATM   13  H   UNK A   1      -8.427  13.874  65.458  1.00  0.00     0.000 HD 
BRANCH  11  14
HETATM   14  C   UNK A   1      -8.287  12.429  67.070  1.00  0.00    -0.157 C  
BRANCH  14  15
HETATM   15  C   UNK A   1      -6.958  12.975  67.628  1.00  0.00    -0.154 C  
ATOM     16  H   GLY A   2      -7.972  13.739  69.262  1.00  0.00     0.000 HD 
ATOM     17  N   GLY A   2      -7.051  13.624  68.840  1.00  0.00    -0.110 N  
HETATM   18  O   UNK A   1      -5.897  12.861  67.033  1.00  0.00    -0.306 OA 
BRANCH  17  19
ATOM     19  CA  GLY A   2      -5.894  14.151  69.541  1.00  0.00    -0.102 C  
ATOM     20  C   GLY A   2      -5.992  15.622  69.910  1.00  0.00    -0.156 C  
ATOM     21  O   GLY A   2      -6.802  16.370  69.103  1.00  0.00    -0.185 OA 
ATOM     22  OXT GLY A   2      -5.354  16.139  70.815  1.00  0.00    -0.168 OA 
ENDBRANCH  17  19
ENDBRANCH  14  15
BRANCH  14  23
HETATM   23  C   UNK A   1      -8.067  11.152  66.239  1.00  0.00    -0.142 C  
BRANCH  23  24
HETATM   24  S   UNK A   1      -9.539  10.475  65.410  1.00  0.00    -0.260 SA 
BRANCH  24  25
HETATM   25  S   UNK A   1     -10.655   9.812  66.997  1.00  0.00    -0.158 SA 
BRANCH  25  26
HETATM   26  C   UNK A   1     -10.476   7.998  66.864  1.00  0.00    -0.317 C  
BRANCH  26  27
HETATM   27  C   UNK A   1     -10.479   7.235  68.202  1.00  0.00    -0.198 C  
BRANCH  27  28
HETATM   28  C   UNK A   1      -9.105   6.541  68.442  1.00  0.00    -0.123 C  
ATOM     29  H   GLY A   2      -8.118   7.915  67.217  1.00  0.00     0.000 HD 
ATOM     30  N   GLY A   2      -8.003   7.122  67.846  1.00  0.00    -0.114 N  
HETATM   31  O   UNK A   1      -8.968   5.600  69.221  1.00  0.00    -0.113 OA 
BRANCH  30  32
ATOM     32  CA  GLY A   2      -6.674   6.591  68.124  1.00  0.00    -0.068 C  
ATOM     33  OXT GLY A   2      -5.279   4.681  67.516  1.00  0.00    -0.010 OA 
ATOM     34  C   GLY A   2      -6.111   5.517  67.184  1.00  0.00    -0.030 C  
ATOM     35  O   GLY A   2      -6.436   5.684  65.888  1.00  0.00    -0.038 OA 
ENDBRANCH  30  32
ENDBRANCH  27  28
BRANCH  27  36
HETATM   36  N   UNK A   1     -11.106   7.962  69.328  1.00  0.00    -0.436 N  
HETATM   37  H   UNK A   1     -11.009   8.976  69.376  1.00  0.00     0.000 HD 
HETATM   38  O   UNK A   1     -12.101   6.122  70.264  1.00  0.00    -0.009 OA 
HETATM   39  C   UNK A   1     -11.816   7.314  70.312  1.00  0.00    -0.070 C  
BRANCH  39  40
HETATM   40  C   UNK A   1     -12.367   8.187  71.429  1.00  0.00    -0.323 C  
BRANCH  40  41
HETATM   41  C   UNK A   1     -11.467   8.385  72.664  1.00  0.00    -0.359 C  
BRANCH  41  42
HETATM   42  C   UNK A   1     -10.199   7.524  72.766  1.00  0.00    -0.255 C  
HETATM   43  N   UNK A   1      -9.946   7.054  74.155  1.00  0.00    -0.411 NA 
HETATM   44  C   UNK A   1      -8.992   8.337  72.339  1.00  0.00    -0.228 C  
HETATM   45  O   UNK A   1      -8.615   8.602  71.211  1.00  0.00    -0.154 OA 
HETATM   46  O   UNK A   1      -8.378   8.825  73.441  1.00  0.00    -0.374 OA 
HETATM   47  H2  UNK A   1     -10.756   6.563  74.530  1.00  0.00     0.000 HD 
HETATM   48  H1  UNK A   1      -9.104   6.483  74.223  1.00  0.00     0.000 HD 
ENDBRANCH  41  42
ENDBRANCH  40  41
ENDBRANCH  39  40
ENDBRANCH  27  36
ENDBRANCH  26  27
ENDBRANCH  25  26
ENDBRANCH  24  25
ENDBRANCH  23  24
ENDBRANCH  14  23
ENDBRANCH  11  14
ENDBRANCH   9  10
ENDBRANCH   8   9
ENDBRANCH   4   8
TORSDOF 17
ENDMDL
MODEL      202
REMARK 921   NORMALIZED FREE ENERGY PREDICTED BY IDOCK:   -4.01 KCAL/MOL
REMARK 922        TOTAL FREE ENERGY PREDICTED BY IDOCK:  -10.97 KCAL/MOL
REMARK 923 INTER-LIGAND FREE ENERGY PREDICTED BY IDOCK:  -10.56 KCAL/MOL
REMARK 924 INTRA-LIGAND FREE ENERGY PREDICTED BY IDOCK:   -0.41 KCAL/MOL
REMARK 927      BINDING AFFINITY PREDICTED BY RF-SCORE:    0.00 PKD
ROOT
HETATM    1  N   UNK A   1      -5.990   3.819  66.071  1.00  0.00    -0.026 NA 
HETATM    2  H1  UNK A   1      -5.921   3.018  66.699  1.00  0.00     0.000 HD 
HETATM    3  H2  UNK A   1      -6.262   4.658  66.584  1.00  0.00     0.000 HD 
HETATM    4  C   UNK A   1      -6.899   3.590  64.915  1.00  0.00    -0.049 C  
HETATM    5  O   UNK A   1      -6.706   2.040  63.020  1.00  0.00    -0.021 OA 
HETATM    6  C   UNK A   1      -6.458   2.310  64.185  1.00  0.00    -0.022 C  
HETATM    7  O   UNK A   1      -5.747   1.501  65.010  1.00  0.00    -0.008 OA 
ENDROOT
BRANCH   4   8
HETATM    8  C   UNK A   1      -7.003   4.791  63.973  1.00  0.00    -0.049 C  
BRANCH   8   9
HETATM    9  C   UNK A   1      -8.304   5.589  64.083  1.00  0.00    -0.102 C  
BRANCH   9  10
HETATM   10  C   UNK A   1      -8.245   6.500  65.287  1.00  0.00    -0.135 C  
HETATM   11  N   UNK A   1      -9.390   6.504  66.055  1.00  0.00    -0.355 N  
HETATM   12  O   UNK A   1      -7.270   7.206  65.530  1.00  0.00    -0.066 OA 
HETATM   13  H   UNK A   1     -10.195   5.943  65.778  1.00  0.00     0.000 HD 
BRANCH  11  14
HETATM   14  C   UNK A   1      -9.444   7.323  67.274  1.00  0.00    -0.138 C  
BRANCH  14  15
HETATM   15  C   UNK A   1     -10.161   6.519  68.377  1.00  0.00    -0.172 C  
ATOM     16  H   GLY A   2     -11.008   8.270  69.084  1.00  0.00     0.000 HD 
ATOM     17  N   GLY A   2     -10.968   7.259  69.214  1.00  0.00    -0.152 N  
HETATM   18  O   UNK A   1     -10.012   5.315  68.518  1.00  0.00    -0.149 OA 
BRANCH  17  19
ATOM     19  CA  GLY A   2     -11.763   6.661  70.271  1.00  0.00    -0.371 C  
ATOM     20  C   GLY A   2     -12.223   7.634  71.345  1.00  0.00    -0.326 C  
ATOM     21  O   GLY A   2     -11.425   8.730  71.516  1.00  0.00    -0.264 OA 
ATOM     22  OXT GLY A   2     -13.193   7.442  72.064  1.00  0.00    -0.247 OA 
ENDBRANCH  17  19
ENDBRANCH  14  15
BRANCH  14  23
HETATM   23  C   UNK A   1     -10.154   8.660  67.000  1.00  0.00    -0.272 C  
BRANCH  23  24
HETATM   24  S   UNK A   1      -9.786  10.012  68.161  1.00  0.00    -0.142 SA 
BRANCH  24  25
HETATM   25  S   UNK A   1      -8.516  11.185  67.060  1.00  0.00    -0.151 SA 
BRANCH  25  26
HETATM   26  C   UNK A   1      -8.677  12.809  67.883  1.00  0.00    -0.185 C  
BRANCH  26  27
HETATM   27  C   UNK A   1      -9.554  13.838  67.146  1.00  0.00    -0.244 C  
BRANCH  27  28
HETATM   28  C   UNK A   1     -10.497  13.128  66.129  1.00  0.00    -0.281 C  
ATOM     29  H   GLY A   2      -9.159  13.452  64.557  1.00  0.00     0.000 HD 
ATOM     30  N   GLY A   2     -10.038  13.012  64.832  1.00  0.00    -0.252 N  
HETATM   31  O   UNK A   1     -11.543  12.579  66.470  1.00  0.00    -0.347 OA 
BRANCH  30  32
ATOM     32  CA  GLY A   2     -10.818  12.258  63.859  1.00  0.00    -0.412 C  
ATOM     33  OXT GLY A   2     -13.151  11.919  63.220  1.00  0.00    -0.674 OA 
ATOM     34  C   GLY A   2     -12.274  12.678  63.615  1.00  0.00    -0.536 C  
ATOM     35  O   GLY A   2     -12.486  14.007  63.661  1.00  0.00    -0.803 OA 
ENDBRANCH  30  32
ENDBRANCH  27  28
BRANCH  27  36
HETATM   36  N   UNK A   1     -10.119  14.901  68.006  1.00  0.00    -0.219 N  
HETATM   37  H   UNK A   1     -10.040  15.873  67.706  1.00  0.00     0.000 HD 
HETATM   38  O   UNK A   1     -11.010  13.483  69.570  1.00  0.00    -0.124 OA 
HETATM   39  C   UNK A   1     -10.747  14.622  69.198  1.00  0.00    -0.255 C  
BRANCH  39  40
HETATM   40  C   UNK A   1     -11.240  15.820  69.995  1.00  0.00    -0.346 C  
BRANCH  40  41
HETATM   41  C   UNK A   1     -11.287  15.661  71.527  1.00  0.00    -0.454 C  
BRANCH  41  42
HETATM   42  C   UNK A   1     -12.584  16.062  72.245  1.00  0.00    -0.432 C  
HETATM   43  N   UNK A   1     -12.460  15.978  73.724  1.00  0.00    -0.552 NA 
HETATM   44  C   UNK A   1     -13.707  15.127  71.833  1.00  0.00    -0.474 C  
HETATM   45  O   UNK A   1     -14.371  15.142  70.812  1.00  0.00    -0.115 OA 
HETATM   46  O   UNK A   1     -13.846  14.166  72.774  1.00  0.00    -0.645 OA 
HETATM   47  H2  UNK A   1     -11.670  16.528  74.059  1.00  0.00     0.000 HD 
HETATM   48  H1  UNK A   1     -13.322  16.244  74.201  1.00  0.00     0.000 HD 
ENDBRANCH  41  42
ENDBRANCH  40  41
ENDBRANCH  39  40
ENDBRANCH  27  36
ENDBRANCH  26  27
ENDBRANCH  25  26
ENDBRANCH  24  25
ENDBRANCH  23  24
ENDBRANCH  14  23
ENDBRANCH  11  14
ENDBRANCH   9  10
ENDBRANCH   8   9
ENDBRANCH   4   8
TORSDOF 17
ENDMDL
MODEL      203
REMARK 921   NORMALIZED FREE ENERGY PREDICTED BY IDOCK:   -4.01 KCAL/MOL
REMARK 922        TOTAL FREE ENERGY PREDICTED BY IDOCK:  -10.97 KCAL/MOL
REMARK 923 INTER-LIGAND FREE ENERGY PREDICTED BY IDOCK:  -10.11 KCAL/MOL
REMARK 924 INTRA-LIGAND FREE ENERGY PREDICTED BY IDOCK:   -0.86 KCAL/MOL
REMARK 927      BINDING AFFINITY PREDICTED BY RF-SCORE:    0.00 PKD
ROOT
HETATM    1  N   UNK A   1      -7.842  20.473  64.487  1.00  0.00     0.150 NA 
HETATM    2  H1  UNK A   1      -7.098  20.633  63.808  1.00  0.00     0.000 HD 
HETATM    3  H2  UNK A   1      -8.414  21.310  64.600  1.00  0.00     0.000 HD 
HETATM    4  C   UNK A   1      -7.351  19.989  65.806  1.00  0.00    -0.304 C  
HETATM    5  O   UNK A   1      -6.253  17.880  66.419  1.00  0.00    -0.165 OA 
HETATM    6  C   UNK A   1      -6.485  18.737  65.582  1.00  0.00    -0.272 C  
HETATM    7  O   UNK A   1      -6.000  18.703  64.315  1.00  0.00    -0.338 OA 
ENDROOT
BRANCH   4   8
HETATM    8  C   UNK A   1      -8.468  19.749  66.824  1.00  0.00    -0.363 C  
BRANCH   8   9
HETATM    9  C   UNK A   1      -9.698  19.025  66.275  1.00  0.00    -0.392 C  
BRANCH   9  10
HETATM   10  C   UNK A   1      -9.711  17.595  66.764  1.00  0.00    -0.300 C  
HETATM   11  N   UNK A   1      -8.943  17.370  67.886  1.00  0.00    -0.246 N  
HETATM   12  O   UNK A   1     -10.324  16.707  66.179  1.00  0.00    -0.322 OA 
HETATM   13  H   UNK A   1      -8.406  18.131  68.301  1.00  0.00     0.000 HD 
BRANCH  11  14
HETATM   14  C   UNK A   1      -8.902  16.027  68.480  1.00  0.00    -0.199 C  
BRANCH  14  15
HETATM   15  C   UNK A   1      -7.801  15.998  69.561  1.00  0.00    -0.065 C  
ATOM     16  H   GLY A   2      -6.870  17.599  68.638  1.00  0.00     0.000 HD 
ATOM     17  N   GLY A   2      -6.830  16.967  69.437  1.00  0.00    -0.228 N  
HETATM   18  O   UNK A   1      -7.777  15.165  70.453  1.00  0.00     0.302 OA 
BRANCH  17  19
ATOM     19  CA  GLY A   2      -5.750  17.125  70.395  1.00  0.00    -0.115 C  
ATOM     20  C   GLY A   2      -5.682  18.494  71.052  1.00  0.00     0.070 C  
ATOM     21  O   GLY A   2      -6.205  19.519  70.314  1.00  0.00    -0.257 OA 
ATOM     22  OXT GLY A   2      -5.145  18.704  72.130  1.00  0.00    -0.759 OA 
ENDBRANCH  17  19
ENDBRANCH  14  15
BRANCH  14  23
HETATM   23  C   UNK A   1      -8.656  14.962  67.398  1.00  0.00    -0.193 C  
BRANCH  23  24
HETATM   24  S   UNK A   1      -6.956  14.320  67.282  1.00  0.00     0.336 SA 
BRANCH  24  25
HETATM   25  S   UNK A   1      -7.066  12.617  68.419  1.00  0.00    -0.109 SA 
BRANCH  25  26
HETATM   26  C   UNK A   1      -7.886  11.445  67.281  1.00  0.00    -0.149 C  
BRANCH  26  27
HETATM   27  C   UNK A   1      -9.404  11.281  67.485  1.00  0.00    -0.162 C  
BRANCH  27  28
HETATM   28  C   UNK A   1     -10.121  11.062  66.120  1.00  0.00    -0.237 C  
ATOM     29  H   GLY A   2     -10.236  13.118  65.771  1.00  0.00     0.000 HD 
ATOM     30  N   GLY A   2     -10.413  12.192  65.383  1.00  0.00    -0.261 N  
HETATM   31  O   UNK A   1     -10.311   9.943  65.646  1.00  0.00    -0.220 OA 
BRANCH  30  32
ATOM     32  CA  GLY A   2     -10.978  12.051  64.046  1.00  0.00    -0.381 C  
ATOM     33  OXT GLY A   2     -13.152  11.737  62.979  1.00  0.00    -0.508 OA 
ATOM     34  C   GLY A   2     -12.490  12.250  63.873  1.00  0.00    -0.485 C  
ATOM     35  O   GLY A   2     -13.019  13.210  64.655  1.00  0.00    -0.708 OA 
ENDBRANCH  30  32
ENDBRANCH  27  28
BRANCH  27  36
HETATM   36  N   UNK A   1      -9.787  10.422  68.627  1.00  0.00    -0.170 N  
HETATM   37  H   UNK A   1      -9.069   9.859  69.084  1.00  0.00     0.000 HD 
HETATM   38  O   UNK A   1     -11.976  11.094  68.700  1.00  0.00    -0.487 OA 
HETATM   39  C   UNK A   1     -11.079  10.356  69.093  1.00  0.00    -0.246 C  
BRANCH  39  40
HETATM   40  C   UNK A   1     -11.330   9.396  70.246  1.00  0.00    -0.261 C  
BRANCH  40  41
HETATM   41  C   UNK A   1     -12.557   9.683  71.133  1.00  0.00    -0.411 C  
BRANCH  41  42
HETATM   42  C   UNK A   1     -13.292   8.480  71.743  1.00  0.00    -0.367 C  
HETATM   43  N   UNK A   1     -13.997   8.830  73.005  1.00  0.00    -1.092 NA 
HETATM   44  C   UNK A   1     -12.295   7.385  72.073  1.00  0.00    -0.266 C  
HETATM   45  O   UNK A   1     -11.778   6.576  71.323  1.00  0.00    -0.311 OA 
HETATM   46  O   UNK A   1     -11.975   7.463  73.385  1.00  0.00     0.381 OA 
HETATM   47  H2  UNK A   1     -14.631   9.616  72.866  1.00  0.00     0.000 HD 
HETATM   48  H1  UNK A   1     -14.485   8.031  73.410  1.00  0.00     0.000 HD 
ENDBRANCH  41  42
ENDBRANCH  40  41
ENDBRANCH  39  40
ENDBRANCH  27  36
ENDBRANCH  26  27
ENDBRANCH  25  26
ENDBRANCH  24  25
ENDBRANCH  23  24
ENDBRANCH  14  23
ENDBRANCH  11  14
ENDBRANCH   9  10
ENDBRANCH   8   9
ENDBRANCH   4   8
TORSDOF 17
ENDMDL
MODEL      204
REMARK 921   NORMALIZED FREE ENERGY PREDICTED BY IDOCK:   -4.01 KCAL/MOL
REMARK 922        TOTAL FREE ENERGY PREDICTED BY IDOCK:  -10.96 KCAL/MOL
REMARK 923 INTER-LIGAND FREE ENERGY PREDICTED BY IDOCK:   -8.76 KCAL/MOL
REMARK 924 INTRA-LIGAND FREE ENERGY PREDICTED BY IDOCK:   -2.19 KCAL/MOL
REMARK 927      BINDING AFFINITY PREDICTED BY RF-SCORE:    0.00 PKD
ROOT
HETATM    1  N   UNK A   1     -12.505  15.177  63.576  1.00  0.00    -0.712 NA 
HETATM    2  H1  UNK A   1     -12.948  16.095  63.615  1.00  0.00     0.000 HD 
HETATM    3  H2  UNK A   1     -13.189  14.457  63.341  1.00  0.00     0.000 HD 
HETATM    4  C   UNK A   1     -11.767  14.818  64.816  1.00  0.00    -0.422 C  
HETATM    5  O   UNK A   1      -9.756  15.813  65.816  1.00  0.00    -0.324 OA 
HETATM    6  C   UNK A   1     -10.761  15.938  65.134  1.00  0.00    -0.429 C  
HETATM    7  O   UNK A   1     -11.137  17.106  64.555  1.00  0.00    -1.105 OA 
ENDROOT
BRANCH   4   8
HETATM    8  C   UNK A   1     -11.104  13.441  64.756  1.00  0.00    -0.363 C  
BRANCH   8   9
HETATM    9  C   UNK A   1     -11.509  12.478  65.873  1.00  0.00    -0.417 C  
BRANCH   9  10
HETATM   10  C   UNK A   1     -10.447  12.463  66.947  1.00  0.00    -0.224 C  
HETATM   11  N   UNK A   1      -9.597  11.378  66.893  1.00  0.00    -0.183 N  
HETATM   12  O   UNK A   1     -10.381  13.327  67.817  1.00  0.00    -0.226 OA 
HETATM   13  H   UNK A   1      -9.731  10.657  66.185  1.00  0.00     0.000 HD 
BRANCH  11  14
HETATM   14  C   UNK A   1      -8.499  11.268  67.862  1.00  0.00    -0.133 C  
BRANCH  14  15
HETATM   15  C   UNK A   1      -7.266  10.680  67.147  1.00  0.00    -0.097 C  
ATOM     16  H   GLY A   2      -7.882   8.777  67.676  1.00  0.00     0.000 HD 
ATOM     17  N   GLY A   2      -7.174   9.306  67.168  1.00  0.00    -0.086 N  
HETATM   18  O   UNK A   1      -6.417  11.379  66.616  1.00  0.00    -0.132 OA 
BRANCH  17  19
ATOM     19  CA  GLY A   2      -6.111   8.579  66.496  1.00  0.00    -0.056 C  
ATOM     20  C   GLY A   2      -6.238   7.065  66.564  1.00  0.00    -0.042 C  
ATOM     21  O   GLY A   2      -6.926   6.588  67.644  1.00  0.00    -0.073 OA 
ATOM     22  OXT GLY A   2      -5.717   6.304  65.762  1.00  0.00    -0.020 OA 
ENDBRANCH  17  19
ENDBRANCH  14  15
BRANCH  14  23
HETATM   23  C   UNK A   1      -8.919  10.403  69.063  1.00  0.00    -0.179 C  
BRANCH  23  24
HETATM   24  S   UNK A   1     -10.155   9.110  68.722  1.00  0.00    -0.202 SA 
BRANCH  24  25
HETATM   25  S   UNK A   1     -10.450   8.302  70.582  1.00  0.00    -0.207 SA 
BRANCH  25  26
HETATM   26  C   UNK A   1      -8.822   7.551  70.940  1.00  0.00    -0.144 C  
BRANCH  26  27
HETATM   27  C   UNK A   1      -8.760   6.018  70.806  1.00  0.00    -0.135 C  
BRANCH  27  28
HETATM   28  C   UNK A   1      -9.113   5.333  72.160  1.00  0.00    -0.136 C  
ATOM     29  H   GLY A   2     -11.048   4.889  71.510  1.00  0.00     0.000 HD 
ATOM     30  N   GLY A   2     -10.371   4.774  72.264  1.00  0.00    -0.200 N  
HETATM   31  O   UNK A   1      -8.286   5.175  73.056  1.00  0.00    -0.104 OA 
BRANCH  30  32
ATOM     32  CA  GLY A   2     -10.724   4.017  73.459  1.00  0.00    -0.221 C  
ATOM     33  OXT GLY A   2     -11.560   1.805  74.070  1.00  0.00    -0.144 OA 
ATOM     34  C   GLY A   2     -10.857   2.493  73.339  1.00  0.00    -0.189 C  
ATOM     35  O   GLY A   2      -9.973   1.920  72.500  1.00  0.00    -0.110 OA 
ENDBRANCH  30  32
ENDBRANCH  27  28
BRANCH  27  36
HETATM   36  N   UNK A   1      -9.362   5.479  69.567  1.00  0.00    -0.126 N  
HETATM   37  H   UNK A   1     -10.146   5.975  69.143  1.00  0.00     0.000 HD 
HETATM   38  O   UNK A   1      -7.881   3.748  69.323  1.00  0.00    -0.052 OA 
HETATM   39  C   UNK A   1      -8.899   4.331  68.967  1.00  0.00    -0.096 C  
BRANCH  39  40
HETATM   40  C   UNK A   1      -9.645   3.875  67.722  1.00  0.00    -0.199 C  
BRANCH  40  41
HETATM   41  C   UNK A   1      -8.789   3.510  66.494  1.00  0.00    -0.136 C  
BRANCH  41  42
HETATM   42  C   UNK A   1      -9.067   4.260  65.184  1.00  0.00    -0.145 C  
HETATM   43  N   UNK A   1      -9.404   5.691  65.412  1.00  0.00    -0.362 NA 
HETATM   44  C   UNK A   1     -10.248   3.627  64.472  1.00  0.00    -0.174 C  
HETATM   45  O   UNK A   1     -10.273   2.615  63.795  1.00  0.00    -0.155 OA 
HETATM   46  O   UNK A   1     -11.363   4.337  64.755  1.00  0.00    -0.302 OA 
HETATM   47  H2  UNK A   1      -8.679   6.157  65.957  1.00  0.00     0.000 HD 
HETATM   48  H1  UNK A   1      -9.588   6.189  64.541  1.00  0.00     0.000 HD 
ENDBRANCH  41  42
ENDBRANCH  40  41
ENDBRANCH  39  40
ENDBRANCH  27  36
ENDBRANCH  26  27
ENDBRANCH  25  26
ENDBRANCH  24  25
ENDBRANCH  23  24
ENDBRANCH  14  23
ENDBRANCH  11  14
ENDBRANCH   9  10
ENDBRANCH   8   9
ENDBRANCH   4   8
TORSDOF 17
ENDMDL
MODEL      205
REMARK 921   NORMALIZED FREE ENERGY PREDICTED BY IDOCK:   -4.00 KCAL/MOL
REMARK 922        TOTAL FREE ENERGY PREDICTED BY IDOCK:  -10.95 KCAL/MOL
REMARK 923 INTER-LIGAND FREE ENERGY PREDICTED BY IDOCK:   -8.26 KCAL/MOL
REMARK 924 INTRA-LIGAND FREE ENERGY PREDICTED BY IDOCK:   -2.69 KCAL/MOL
REMARK 927      BINDING AFFINITY PREDICTED BY RF-SCORE:    0.00 PKD
ROOT
HETATM    1  N   UNK A   1      -7.569  10.129  69.755  1.00  0.00    -0.158 NA 
HETATM    2  H1  UNK A   1      -6.931   9.681  70.413  1.00  0.00     0.000 HD 
HETATM    3  H2  UNK A   1      -8.018   9.434  69.158  1.00  0.00     0.000 HD 
HETATM    4  C   UNK A   1      -6.928  11.192  68.936  1.00  0.00    -0.095 C  
HETATM    5  O   UNK A   1      -5.987  13.362  69.598  1.00  0.00    -0.104 OA 
HETATM    6  C   UNK A   1      -6.255  12.205  69.878  1.00  0.00    -0.120 C  
HETATM    7  O   UNK A   1      -5.987  11.641  71.084  1.00  0.00    -0.355 OA 
ENDROOT
BRANCH   4   8
HETATM    8  C   UNK A   1      -7.886  11.865  67.950  1.00  0.00    -0.138 C  
BRANCH   8   9
HETATM    9  C   UNK A   1      -9.035  10.981  67.460  1.00  0.00    -0.137 C  
BRANCH   9  10
HETATM   10  C   UNK A   1     -10.357  11.657  67.741  1.00  0.00    -0.182 C  
HETATM   11  N   UNK A   1     -10.454  12.217  68.998  1.00  0.00    -0.419 N  
HETATM   12  O   UNK A   1     -11.276  11.665  66.928  1.00  0.00    -0.294 OA 
HETATM   13  H   UNK A   1      -9.681  12.133  69.658  1.00  0.00     0.000 HD 
BRANCH  11  14
HETATM   14  C   UNK A   1     -11.677  12.935  69.379  1.00  0.00    -0.321 C  
BRANCH  14  15
HETATM   15  C   UNK A   1     -11.315  14.403  69.681  1.00  0.00    -0.263 C  
ATOM     16  H   GLY A   2      -9.648  14.228  68.468  1.00  0.00     0.000 HD 
ATOM     17  N   GLY A   2     -10.185  14.872  69.047  1.00  0.00    -0.238 N  
HETATM   18  O   UNK A   1     -11.968  15.100  70.442  1.00  0.00    -0.274 OA 
BRANCH  17  19
ATOM     19  CA  GLY A   2      -9.728  16.245  69.169  1.00  0.00    -0.265 C  
ATOM     20  C   GLY A   2     -10.298  17.198  68.131  1.00  0.00    -0.350 C  
ATOM     21  O   GLY A   2     -10.665  16.617  66.949  1.00  0.00    -0.266 OA 
ATOM     22  OXT GLY A   2     -10.373  18.407  68.288  1.00  0.00    -0.373 OA 
ENDBRANCH  17  19
ENDBRANCH  14  15
BRANCH  14  23
HETATM   23  C   UNK A   1     -12.348  12.261  70.589  1.00  0.00    -0.286 C  
BRANCH  23  24
HETATM   24  S   UNK A   1     -12.768  10.501  70.391  1.00  0.00    -0.165 SA 
BRANCH  24  25
HETATM   25  S   UNK A   1     -11.212   9.581  71.357  1.00  0.00    -0.358 SA 
BRANCH  25  26
HETATM   26  C   UNK A   1     -10.911   8.119  70.301  1.00  0.00    -0.244 C  
BRANCH  26  27
HETATM   27  C   UNK A   1     -10.046   7.014  70.936  1.00  0.00    -0.193 C  
BRANCH  27  28
HETATM   28  C   UNK A   1     -10.923   6.058  71.798  1.00  0.00    -0.269 C  
ATOM     29  H   GLY A   2      -9.236   5.146  72.628  1.00  0.00     0.000 HD 
ATOM     30  N   GLY A   2     -10.255   5.196  72.644  1.00  0.00    -0.179 N  
HETATM   31  O   UNK A   1     -12.149   6.138  71.833  1.00  0.00    -0.304 OA 
BRANCH  30  32
ATOM     32  CA  GLY A   2     -11.016   4.357  73.562  1.00  0.00    -0.295 C  
ATOM     33  OXT GLY A   2     -11.878   2.076  73.702  1.00  0.00    -0.215 OA 
ATOM     34  C   GLY A   2     -10.984   2.837  73.350  1.00  0.00    -0.193 C  
ATOM     35  O   GLY A   2      -9.797   2.356  72.935  1.00  0.00    -0.103 OA 
ENDBRANCH  30  32
ENDBRANCH  27  28
BRANCH  27  36
HETATM   36  N   UNK A   1      -9.037   6.420  70.031  1.00  0.00    -0.149 N  
HETATM   37  H   UNK A   1      -9.352   5.933  69.192  1.00  0.00     0.000 HD 
HETATM   38  O   UNK A   1      -7.212   7.181  71.188  1.00  0.00    -0.071 OA 
HETATM   39  C   UNK A   1      -7.688   6.502  70.284  1.00  0.00    -0.098 C  
BRANCH  39  40
HETATM   40  C   UNK A   1      -6.773   5.807  69.288  1.00  0.00    -0.060 C  
BRANCH  40  41
HETATM   41  C   UNK A   1      -7.079   4.329  68.979  1.00  0.00    -0.051 C  
BRANCH  41  42
HETATM   42  C   UNK A   1      -7.602   3.988  67.576  1.00  0.00    -0.068 C  
HETATM   43  N   UNK A   1      -7.453   5.123  66.626  1.00  0.00    -0.086 NA 
HETATM   44  C   UNK A   1      -9.080   3.651  67.648  1.00  0.00    -0.157 C  
HETATM   45  O   UNK A   1      -9.605   2.611  68.000  1.00  0.00    -0.197 OA 
HETATM   46  O   UNK A   1      -9.796   4.748  67.313  1.00  0.00    -0.169 OA 
HETATM   47  H2  UNK A   1      -6.488   5.448  66.590  1.00  0.00     0.000 HD 
HETATM   48  H1  UNK A   1      -7.800   4.896  65.695  1.00  0.00     0.000 HD 
ENDBRANCH  41  42
ENDBRANCH  40  41
ENDBRANCH  39  40
ENDBRANCH  27  36
ENDBRANCH  26  27
ENDBRANCH  25  26
ENDBRANCH  24  25
ENDBRANCH  23  24
ENDBRANCH  14  23
ENDBRANCH  11  14
ENDBRANCH   9  10
ENDBRANCH   8   9
ENDBRANCH   4   8
TORSDOF 17
ENDMDL
MODEL      206
REMARK 921   NORMALIZED FREE ENERGY PREDICTED BY IDOCK:   -4.00 KCAL/MOL
REMARK 922        TOTAL FREE ENERGY PREDICTED BY IDOCK:  -10.95 KCAL/MOL
REMARK 923 INTER-LIGAND FREE ENERGY PREDICTED BY IDOCK:   -8.93 KCAL/MOL
REMARK 924 INTRA-LIGAND FREE ENERGY PREDICTED BY IDOCK:   -2.02 KCAL/MOL
REMARK 927      BINDING AFFINITY PREDICTED BY RF-SCORE:    0.00 PKD
ROOT
HETATM    1  N   UNK A   1     -10.829  18.898  67.292  1.00  0.00    -0.443 NA 
HETATM    2  H1  UNK A   1     -10.550  19.695  67.864  1.00  0.00     0.000 HD 
HETATM    3  H2  UNK A   1     -11.606  18.397  67.725  1.00  0.00     0.000 HD 
HETATM    4  C   UNK A   1      -9.711  17.968  66.981  1.00  0.00    -0.303 C  
HETATM    5  O   UNK A   1      -7.687  18.307  65.632  1.00  0.00    -0.529 OA 
HETATM    6  C   UNK A   1      -8.563  18.770  66.345  1.00  0.00    -0.284 C  
HETATM    7  O   UNK A   1      -8.643  20.082  66.682  1.00  0.00    -0.317 OA 
ENDROOT
BRANCH   4   8
HETATM    8  C   UNK A   1     -10.130  16.773  66.123  1.00  0.00    -0.360 C  
BRANCH   8   9
HETATM    9  C   UNK A   1     -11.106  15.804  66.794  1.00  0.00    -0.116 C  
BRANCH   9  10
HETATM   10  C   UNK A   1     -10.359  14.912  67.759  1.00  0.00    -0.244 C  
HETATM   11  N   UNK A   1      -9.230  14.323  67.231  1.00  0.00    -0.205 N  
HETATM   12  O   UNK A   1     -10.756  14.703  68.901  1.00  0.00    -0.234 OA 
HETATM   13  H   UNK A   1      -8.975  14.483  66.257  1.00  0.00     0.000 HD 
BRANCH  11  14
HETATM   14  C   UNK A   1      -8.398  13.460  68.081  1.00  0.00    -0.164 C  
BRANCH  14  15
HETATM   15  C   UNK A   1      -7.036  14.150  68.301  1.00  0.00    -0.112 C  
ATOM     16  H   GLY A   2      -7.806  15.111  69.964  1.00  0.00     0.000 HD 
ATOM     17  N   GLY A   2      -6.966  14.975  69.402  1.00  0.00    -0.158 N  
HETATM   18  O   UNK A   1      -6.089  13.996  67.545  1.00  0.00    -0.323 OA 
BRANCH  17  19
ATOM     19  CA  GLY A   2      -5.748  15.660  69.795  1.00  0.00    -0.132 C  
ATOM     20  C   GLY A   2      -5.890  17.166  69.954  1.00  0.00    -0.236 C  
ATOM     21  O   GLY A   2      -6.880  17.738  69.205  1.00  0.00    -0.249 OA 
ATOM     22  OXT GLY A   2      -5.145  17.849  70.642  1.00  0.00    -0.237 OA 
ENDBRANCH  17  19
ENDBRANCH  14  15
BRANCH  14  23
HETATM   23  C   UNK A   1      -8.227  12.071  67.443  1.00  0.00    -0.168 C  
BRANCH  23  24
HETATM   24  S   UNK A   1      -9.342  11.687  66.056  1.00  0.00    -0.211 SA 
BRANCH  24  25
HETATM   25  S   UNK A   1     -10.856  10.672  66.995  1.00  0.00    -0.198 SA 
BRANCH  25  26
HETATM   26  C   UNK A   1     -10.195   8.970  67.065  1.00  0.00    -0.266 C  
BRANCH  26  27
HETATM   27  C   UNK A   1      -9.586   8.554  68.418  1.00  0.00    -0.147 C  
BRANCH  27  28
HETATM   28  C   UNK A   1     -10.159   9.431  69.570  1.00  0.00    -0.205 C  
ATOM     29  H   GLY A   2     -12.116   8.833  69.146  1.00  0.00     0.000 HD 
ATOM     30  N   GLY A   2     -11.522   9.368  69.781  1.00  0.00    -0.047 N  
HETATM   31  O   UNK A   1      -9.439  10.055  70.347  1.00  0.00    -0.123 OA 
BRANCH  30  32
ATOM     32  CA  GLY A   2     -12.108  10.072  70.915  1.00  0.00    -0.355 C  
ATOM     33  OXT GLY A   2     -13.725   9.680  72.703  1.00  0.00    -0.328 OA 
ATOM     34  C   GLY A   2     -12.830   9.245  71.988  1.00  0.00    -0.415 C  
ATOM     35  O   GLY A   2     -12.267   8.050  72.244  1.00  0.00    -0.327 OA 
ENDBRANCH  30  32
ENDBRANCH  27  28
BRANCH  27  36
HETATM   36  N   UNK A   1      -9.485   7.093  68.629  1.00  0.00    -0.140 N  
HETATM   37  H   UNK A   1     -10.290   6.591  69.004  1.00  0.00     0.000 HD 
HETATM   38  O   UNK A   1      -7.377   6.879  67.758  1.00  0.00    -0.091 OA 
HETATM   39  C   UNK A   1      -8.340   6.389  68.337  1.00  0.00    -0.116 C  
BRANCH  39  40
HETATM   40  C   UNK A   1      -8.368   4.900  68.647  1.00  0.00    -0.083 C  
BRANCH  40  41
HETATM   41  C   UNK A   1      -9.519   4.399  69.541  1.00  0.00    -0.251 C  
BRANCH  41  42
HETATM   42  C   UNK A   1      -9.236   4.239  71.042  1.00  0.00    -0.140 C  
HETATM   43  N   UNK A   1      -9.997   3.110  71.642  1.00  0.00    -0.143 NA 
HETATM   44  C   UNK A   1      -9.647   5.501  71.778  1.00  0.00    -0.151 C  
HETATM   45  O   UNK A   1      -9.047   6.557  71.867  1.00  0.00    -0.148 OA 
HETATM   46  O   UNK A   1     -10.880   5.321  72.304  1.00  0.00    -0.224 OA 
HETATM   47  H2  UNK A   1      -9.822   2.240  71.140  1.00  0.00     0.000 HD 
HETATM   48  H1  UNK A   1      -9.809   3.004  72.639  1.00  0.00     0.000 HD 
ENDBRANCH  41  42
ENDBRANCH  40  41
ENDBRANCH  39  40
ENDBRANCH  27  36
ENDBRANCH  26  27
ENDBRANCH  25  26
ENDBRANCH  24  25
ENDBRANCH  23  24
ENDBRANCH  14  23
ENDBRANCH  11  14
ENDBRANCH   9  10
ENDBRANCH   8   9
ENDBRANCH   4   8
TORSDOF 17
ENDMDL
MODEL      207
REMARK 921   NORMALIZED FREE ENERGY PREDICTED BY IDOCK:   -4.00 KCAL/MOL
REMARK 922        TOTAL FREE ENERGY PREDICTED BY IDOCK:  -10.94 KCAL/MOL
REMARK 923 INTER-LIGAND FREE ENERGY PREDICTED BY IDOCK:  -10.94 KCAL/MOL
REMARK 924 INTRA-LIGAND FREE ENERGY PREDICTED BY IDOCK:   -0.00 KCAL/MOL
REMARK 927      BINDING AFFINITY PREDICTED BY RF-SCORE:    0.00 PKD
ROOT
HETATM    1  N   UNK A   1     -10.210   5.750  73.459  1.00  0.00    -0.197 NA 
HETATM    2  H1  UNK A   1     -10.799   5.575  74.273  1.00  0.00     0.000 HD 
HETATM    3  H2  UNK A   1     -10.354   6.696  73.106  1.00  0.00     0.000 HD 
HETATM    4  C   UNK A   1     -10.385   4.750  72.372  1.00  0.00    -0.201 C  
HETATM    5  O   UNK A   1      -9.858   2.351  72.315  1.00  0.00    -0.126 OA 
HETATM    6  C   UNK A   1     -10.171   3.342  72.956  1.00  0.00    -0.160 C  
HETATM    7  O   UNK A   1     -10.381   3.337  74.297  1.00  0.00    -0.152 OA 
ENDROOT
BRANCH   4   8
HETATM    8  C   UNK A   1      -9.500   5.013  71.151  1.00  0.00    -0.212 C  
BRANCH   8   9
HETATM    9  C   UNK A   1     -10.089   4.555  69.815  1.00  0.00    -0.177 C  
BRANCH   9  10
HETATM   10  C   UNK A   1      -9.661   5.499  68.716  1.00  0.00    -0.135 C  
HETATM   11  N   UNK A   1     -10.702   6.147  68.085  1.00  0.00    -0.268 N  
HETATM   12  O   UNK A   1      -8.485   5.639  68.392  1.00  0.00    -0.105 OA 
HETATM   13  H   UNK A   1     -11.666   5.952  68.354  1.00  0.00     0.000 HD 
BRANCH  11  14
HETATM   14  C   UNK A   1     -10.413   7.119  67.022  1.00  0.00    -0.322 C  
BRANCH  14  15
HETATM   15  C   UNK A   1      -9.228   6.597  66.184  1.00  0.00    -0.087 C  
ATOM     16  H   GLY A   2     -10.353   4.947  65.644  1.00  0.00     0.000 HD 
ATOM     17  N   GLY A   2      -9.456   5.415  65.515  1.00  0.00    -0.056 N  
HETATM   18  O   UNK A   1      -8.154   7.177  66.130  1.00  0.00    -0.110 OA 
BRANCH  17  19
ATOM     19  CA  GLY A   2      -8.474   4.808  64.634  1.00  0.00    -0.139 C  
ATOM     20  C   GLY A   2      -9.064   3.993  63.494  1.00  0.00    -0.128 C  
ATOM     21  O   GLY A   2     -10.302   3.467  63.737  1.00  0.00    -0.193 OA 
ATOM     22  OXT GLY A   2      -8.470   3.753  62.453  1.00  0.00    -0.075 OA 
ENDBRANCH  17  19
ENDBRANCH  14  15
BRANCH  14  23
HETATM   23  C   UNK A   1     -10.112   8.504  67.620  1.00  0.00    -0.213 C  
BRANCH  23  24
HETATM   24  S   UNK A   1      -9.538   8.521  69.347  1.00  0.00    -0.172 SA 
BRANCH  24  25
HETATM   25  S   UNK A   1      -8.629  10.354  69.476  1.00  0.00    -0.025 SA 
BRANCH  25  26
HETATM   26  C   UNK A   1      -9.443  11.284  68.130  1.00  0.00    -0.184 C  
BRANCH  26  27
HETATM   27  C   UNK A   1     -10.717  12.050  68.534  1.00  0.00    -0.234 C  
BRANCH  27  28
HETATM   28  C   UNK A   1     -11.391  12.691  67.284  1.00  0.00    -0.318 C  
ATOM     29  H   GLY A   2     -10.516  14.547  67.677  1.00  0.00     0.000 HD 
ATOM     30  N   GLY A   2     -11.088  14.012  67.024  1.00  0.00    -0.298 N  
HETATM   31  O   UNK A   1     -12.060  12.037  66.486  1.00  0.00    -0.617 OA 
BRANCH  30  32
ATOM     32  CA  GLY A   2     -11.593  14.639  65.808  1.00  0.00    -0.328 C  
ATOM     33  OXT GLY A   2     -11.364  16.733  64.572  1.00  0.00    -0.959 OA 
ATOM     34  C   GLY A   2     -10.844  15.860  65.257  1.00  0.00    -0.387 C  
ATOM     35  O   GLY A   2      -9.506  15.805  65.398  1.00  0.00    -0.321 OA 
ENDBRANCH  30  32
ENDBRANCH  27  28
BRANCH  27  36
HETATM   36  N   UNK A   1     -11.575  11.352  69.516  1.00  0.00    -0.300 N  
HETATM   37  H   UNK A   1     -11.674  10.339  69.453  1.00  0.00     0.000 HD 
HETATM   38  O   UNK A   1     -12.078  13.216  70.750  1.00  0.00    -0.339 OA 
HETATM   39  C   UNK A   1     -12.244  12.024  70.512  1.00  0.00    -0.325 C  
BRANCH  39  40
HETATM   40  C   UNK A   1     -13.123  11.179  71.421  1.00  0.00    -0.422 C  
BRANCH  40  41
HETATM   41  C   UNK A   1     -13.666   9.862  70.833  1.00  0.00     0.040 C  
BRANCH  41  42
HETATM   42  C   UNK A   1     -13.786   8.657  71.776  1.00  0.00    -0.425 C  
HETATM   43  N   UNK A   1     -13.892   9.064  73.203  1.00  0.00    -1.177 NA 
HETATM   44  C   UNK A   1     -12.553   7.781  71.648  1.00  0.00    -0.332 C  
HETATM   45  O   UNK A   1     -12.288   6.966  70.783  1.00  0.00    -0.376 OA 
HETATM   46  O   UNK A   1     -11.693   8.086  72.646  1.00  0.00    -0.388 OA 
HETATM   47  H2  UNK A   1     -14.661   9.719  73.343  1.00  0.00     0.000 HD 
HETATM   48  H1  UNK A   1     -13.971   8.263  73.830  1.00  0.00     0.000 HD 
ENDBRANCH  41  42
ENDBRANCH  40  41
ENDBRANCH  39  40
ENDBRANCH  27  36
ENDBRANCH  26  27
ENDBRANCH  25  26
ENDBRANCH  24  25
ENDBRANCH  23  24
ENDBRANCH  14  23
ENDBRANCH  11  14
ENDBRANCH   9  10
ENDBRANCH   8   9
ENDBRANCH   4   8
TORSDOF 17
ENDMDL
MODEL      208
REMARK 921   NORMALIZED FREE ENERGY PREDICTED BY IDOCK:   -3.97 KCAL/MOL
REMARK 922        TOTAL FREE ENERGY PREDICTED BY IDOCK:  -10.89 KCAL/MOL
REMARK 923 INTER-LIGAND FREE ENERGY PREDICTED BY IDOCK:   -8.49 KCAL/MOL
REMARK 924 INTRA-LIGAND FREE ENERGY PREDICTED BY IDOCK:   -2.40 KCAL/MOL
REMARK 927      BINDING AFFINITY PREDICTED BY RF-SCORE:    0.00 PKD
ROOT
HETATM    1  N   UNK A   1     -10.786  17.878  67.308  1.00  0.00    -0.321 NA 
HETATM    2  H1  UNK A   1     -10.508  18.476  68.086  1.00  0.00     0.000 HD 
HETATM    3  H2  UNK A   1     -11.607  17.325  67.555  1.00  0.00     0.000 HD 
HETATM    4  C   UNK A   1      -9.691  17.002  66.811  1.00  0.00    -0.269 C  
HETATM    5  O   UNK A   1      -7.577  17.574  65.697  1.00  0.00    -0.480 OA 
HETATM    6  C   UNK A   1      -8.474  17.879  66.467  1.00  0.00    -0.258 C  
HETATM    7  O   UNK A   1      -8.519  19.056  67.141  1.00  0.00    -0.272 OA 
ENDROOT
BRANCH   4   8
HETATM    8  C   UNK A   1     -10.109  16.105  65.644  1.00  0.00    -0.366 C  
BRANCH   8   9
HETATM    9  C   UNK A   1     -11.156  15.044  65.987  1.00  0.00    -0.329 C  
BRANCH   9  10
HETATM   10  C   UNK A   1     -10.532  13.966  66.842  1.00  0.00    -0.276 C  
HETATM   11  N   UNK A   1      -9.329  13.487  66.367  1.00  0.00    -0.421 N  
HETATM   12  O   UNK A   1     -11.078  13.529  67.850  1.00  0.00    -0.250 OA 
HETATM   13  H   UNK A   1      -8.945  13.843  65.492  1.00  0.00     0.000 HD 
BRANCH  11  14
HETATM   14  C   UNK A   1      -8.604  12.462  67.129  1.00  0.00    -0.189 C  
BRANCH  14  15
HETATM   15  C   UNK A   1      -7.247  13.043  67.574  1.00  0.00    -0.151 C  
ATOM     16  H   GLY A   2      -7.913  14.940  67.086  1.00  0.00     0.000 HD 
ATOM     17  N   GLY A   2      -7.133  14.412  67.475  1.00  0.00    -0.187 N  
HETATM   18  O   UNK A   1      -6.327  12.342  67.967  1.00  0.00    -0.065 OA 
BRANCH  17  19
ATOM     19  CA  GLY A   2      -5.949  15.136  67.903  1.00  0.00    -0.150 C  
ATOM     20  C   GLY A   2      -6.123  15.936  69.184  1.00  0.00    -0.129 C  
ATOM     21  O   GLY A   2      -7.402  16.342  69.445  1.00  0.00    -0.230 OA 
ATOM     22  OXT GLY A   2      -5.197  16.266  69.910  1.00  0.00    -0.122 OA 
ENDBRANCH  17  19
ENDBRANCH  14  15
BRANCH  14  23
HETATM   23  C   UNK A   1      -8.421  11.187  66.287  1.00  0.00    -0.168 C  
BRANCH  23  24
HETATM   24  S   UNK A   1      -9.951  10.376  65.724  1.00  0.00    -0.273 SA 
BRANCH  24  25
HETATM   25  S   UNK A   1     -10.668   9.565  67.465  1.00  0.00    -0.174 SA 
BRANCH  25  26
HETATM   26  C   UNK A   1     -10.590   7.772  67.117  1.00  0.00    -0.331 C  
BRANCH  26  27
HETATM   27  C   UNK A   1      -9.685   6.956  68.059  1.00  0.00    -0.130 C  
BRANCH  27  28
HETATM   28  C   UNK A   1     -10.450   6.575  69.362  1.00  0.00    -0.221 C  
ATOM     29  H   GLY A   2      -8.731   6.814  70.524  1.00  0.00     0.000 HD 
ATOM     30  N   GLY A   2      -9.732   6.620  70.540  1.00  0.00    -0.175 N  
HETATM   31  O   UNK A   1     -11.662   6.366  69.379  1.00  0.00    -0.327 OA 
BRANCH  30  32
ATOM     32  CA  GLY A   2     -10.416   6.388  71.806  1.00  0.00    -0.214 C  
ATOM     33  OXT GLY A   2     -10.459   7.285  74.078  1.00  0.00    -0.311 OA 
ATOM     34  C   GLY A   2     -10.358   7.490  72.874  1.00  0.00    -0.296 C  
ATOM     35  O   GLY A   2     -10.401   8.743  72.385  1.00  0.00    -0.300 OA 
ENDBRANCH  30  32
ENDBRANCH  27  28
BRANCH  27  36
HETATM   36  N   UNK A   1      -8.872   5.917  67.391  1.00  0.00    -0.108 N  
HETATM   37  H   UNK A   1      -9.252   4.974  67.303  1.00  0.00     0.000 HD 
HETATM   38  O   UNK A   1      -7.142   7.307  66.821  1.00  0.00    -0.077 OA 
HETATM   39  C   UNK A   1      -7.621   6.179  66.885  1.00  0.00    -0.099 C  
BRANCH  39  40
HETATM   40  C   UNK A   1      -6.885   5.001  66.264  1.00  0.00    -0.062 C  
BRANCH  40  41
HETATM   41  C   UNK A   1      -7.205   4.682  64.790  1.00  0.00    -0.063 C  
BRANCH  41  42
HETATM   42  C   UNK A   1      -8.115   3.479  64.503  1.00  0.00    -0.086 C  
HETATM   43  N   UNK A   1      -7.818   2.847  63.190  1.00  0.00    -0.067 NA 
HETATM   44  C   UNK A   1      -9.564   3.929  64.470  1.00  0.00    -0.173 C  
HETATM   45  O   UNK A   1     -10.309   4.158  65.405  1.00  0.00    -0.215 OA 
HETATM   46  O   UNK A   1      -9.933   4.124  63.183  1.00  0.00    -0.153 OA 
HETATM   47  H2  UNK A   1      -6.834   2.590  63.119  1.00  0.00     0.000 HD 
HETATM   48  H1  UNK A   1      -8.422   2.048  62.999  1.00  0.00     0.000 HD 
ENDBRANCH  41  42
ENDBRANCH  40  41
ENDBRANCH  39  40
ENDBRANCH  27  36
ENDBRANCH  26  27
ENDBRANCH  25  26
ENDBRANCH  24  25
ENDBRANCH  23  24
ENDBRANCH  14  23
ENDBRANCH  11  14
ENDBRANCH   9  10
ENDBRANCH   8   9
ENDBRANCH   4   8
TORSDOF 17
ENDMDL
MODEL      209
REMARK 921   NORMALIZED FREE ENERGY PREDICTED BY IDOCK:   -3.95 KCAL/MOL
REMARK 922        TOTAL FREE ENERGY PREDICTED BY IDOCK:  -10.84 KCAL/MOL
REMARK 923 INTER-LIGAND FREE ENERGY PREDICTED BY IDOCK:   -8.31 KCAL/MOL
REMARK 924 INTRA-LIGAND FREE ENERGY PREDICTED BY IDOCK:   -2.53 KCAL/MOL
REMARK 927      BINDING AFFINITY PREDICTED BY RF-SCORE:    0.00 PKD
ROOT
HETATM    1  N   UNK A   1     -11.176  14.764  66.620  1.00  0.00    -0.341 NA 
HETATM    2  H1  UNK A   1     -10.898  15.355  65.836  1.00  0.00     0.000 HD 
HETATM    3  H2  UNK A   1     -10.472  14.789  67.358  1.00  0.00     0.000 HD 
HETATM    4  C   UNK A   1     -11.479  13.361  66.229  1.00  0.00    -0.325 C  
HETATM    5  O   UNK A   1     -13.279  12.453  64.825  1.00  0.00    -0.784 OA 
HETATM    6  C   UNK A   1     -12.532  13.377  65.107  1.00  0.00    -0.459 C  
HETATM    7  O   UNK A   1     -12.527  14.567  64.454  1.00  0.00    -0.633 OA 
ENDROOT
BRANCH   4   8
HETATM    8  C   UNK A   1     -11.896  12.475  67.404  1.00  0.00    -0.381 C  
BRANCH   8   9
HETATM    9  C   UNK A   1     -11.159  11.138  67.500  1.00  0.00    -0.353 C  
BRANCH   9  10
HETATM   10  C   UNK A   1     -11.603  10.396  68.739  1.00  0.00    -0.119 C  
HETATM   11  N   UNK A   1     -10.912   9.227  68.981  1.00  0.00    -0.420 N  
HETATM   12  O   UNK A   1     -12.530  10.787  69.442  1.00  0.00    -0.333 OA 
HETATM   13  H   UNK A   1     -10.188   8.916  68.334  1.00  0.00     0.000 HD 
BRANCH  11  14
HETATM   14  C   UNK A   1     -11.226   8.433  70.176  1.00  0.00    -0.136 C  
BRANCH  14  15
HETATM   15  C   UNK A   1     -10.097   8.626  71.208  1.00  0.00    -0.242 C  
ATOM     16  H   GLY A   2     -11.141   7.449  72.552  1.00  0.00     0.000 HD 
ATOM     17  N   GLY A   2     -10.278   7.972  72.407  1.00  0.00    -0.255 N  
HETATM   18  O   UNK A   1      -9.119   9.324  70.992  1.00  0.00    -0.239 OA 
BRANCH  17  19
ATOM     19  CA  GLY A   2      -9.291   7.994  73.472  1.00  0.00    -0.215 C  
ATOM     20  C   GLY A   2      -8.543   6.685  73.670  1.00  0.00    -0.123 C  
ATOM     21  O   GLY A   2      -9.220   5.564  73.280  1.00  0.00    -0.133 OA 
ATOM     22  OXT GLY A   2      -7.444   6.605  74.198  1.00  0.00    -0.097 OA 
ENDBRANCH  17  19
ENDBRANCH  14  15
BRANCH  14  23
HETATM   23  C   UNK A   1     -11.406   6.949  69.810  1.00  0.00    -0.237 C  
BRANCH  23  24
HETATM   24  S   UNK A   1      -9.880   6.026  69.445  1.00  0.00    -0.172 SA 
BRANCH  24  25
HETATM   25  S   UNK A   1     -10.228   5.369  67.535  1.00  0.00    -0.184 SA 
BRANCH  25  26
HETATM   26  C   UNK A   1      -9.617   6.767  66.528  1.00  0.00    -0.140 C  
BRANCH  26  27
HETATM   27  C   UNK A   1      -8.453   6.434  65.575  1.00  0.00    -0.139 C  
BRANCH  27  28
HETATM   28  C   UNK A   1      -8.102   7.665  64.687  1.00  0.00    -0.112 C  
ATOM     29  H   GLY A   2      -9.430   8.889  65.738  1.00  0.00     0.000 HD 
ATOM     30  N   GLY A   2      -8.719   8.858  65.006  1.00  0.00    -0.183 N  
HETATM   31  O   UNK A   1      -7.227   7.629  63.823  1.00  0.00    -0.075 OA 
BRANCH  30  32
ATOM     32  CA  GLY A   2      -8.348  10.073  64.291  1.00  0.00    -0.169 C  
ATOM     33  OXT GLY A   2      -9.166  11.464  62.458  1.00  0.00    -0.335 OA 
ATOM     34  C   GLY A   2      -9.416  10.762  63.430  1.00  0.00    -0.316 C  
ATOM     35  O   GLY A   2     -10.660  10.720  63.945  1.00  0.00    -0.314 OA 
ENDBRANCH  30  32
ENDBRANCH  27  28
BRANCH  27  36
HETATM   36  N   UNK A   1      -7.345   5.673  66.192  1.00  0.00    -0.077 N  
HETATM   37  H   UNK A   1      -7.177   4.713  65.890  1.00  0.00     0.000 HD 
HETATM   38  O   UNK A   1      -6.570   7.398  67.485  1.00  0.00    -0.057 OA 
HETATM   39  C   UNK A   1      -6.533   6.216  67.160  1.00  0.00    -0.050 C  
BRANCH  39  40
HETATM   40  C   UNK A   1      -5.463   5.299  67.733  1.00  0.00    -0.012 C  
BRANCH  40  41
HETATM   41  C   UNK A   1      -5.946   3.987  68.380  1.00  0.00    -0.027 C  
BRANCH  41  42
HETATM   42  C   UNK A   1      -5.513   3.704  69.825  1.00  0.00    -0.016 C  
HETATM   43  N   UNK A   1      -5.538   2.252  70.148  1.00  0.00    -0.016 NA 
HETATM   44  C   UNK A   1      -6.460   4.396  70.788  1.00  0.00    -0.030 C  
HETATM   45  O   UNK A   1      -6.485   5.568  71.119  1.00  0.00    -0.033 OA 
HETATM   46  O   UNK A   1      -7.382   3.503  71.215  1.00  0.00    -0.033 OA 
HETATM   47  H2  UNK A   1      -4.978   1.718  69.485  1.00  0.00     0.000 HD 
HETATM   48  H1  UNK A   1      -5.251   2.064  71.109  1.00  0.00     0.000 HD 
ENDBRANCH  41  42
ENDBRANCH  40  41
ENDBRANCH  39  40
ENDBRANCH  27  36
ENDBRANCH  26  27
ENDBRANCH  25  26
ENDBRANCH  24  25
ENDBRANCH  23  24
ENDBRANCH  14  23
ENDBRANCH  11  14
ENDBRANCH   9  10
ENDBRANCH   8   9
ENDBRANCH   4   8
TORSDOF 17
ENDMDL
MODEL      210
REMARK 921   NORMALIZED FREE ENERGY PREDICTED BY IDOCK:   -3.94 KCAL/MOL
REMARK 922        TOTAL FREE ENERGY PREDICTED BY IDOCK:  -10.83 KCAL/MOL
REMARK 923 INTER-LIGAND FREE ENERGY PREDICTED BY IDOCK:   -9.46 KCAL/MOL
REMARK 924 INTRA-LIGAND FREE ENERGY PREDICTED BY IDOCK:   -1.37 KCAL/MOL
REMARK 927      BINDING AFFINITY PREDICTED BY RF-SCORE:    0.00 PKD
ROOT
HETATM    1  N   UNK A   1      -9.240  16.086  65.556  1.00  0.00    -0.311 NA 
HETATM    2  H1  UNK A   1      -8.826  16.569  64.758  1.00  0.00     0.000 HD 
HETATM    3  H2  UNK A   1      -9.674  15.211  65.262  1.00  0.00     0.000 HD 
HETATM    4  C   UNK A   1     -10.203  16.922  66.322  1.00  0.00    -0.329 C  
HETATM    5  O   UNK A   1      -9.839  18.950  67.658  1.00  0.00    -0.310 OA 
HETATM    6  C   UNK A   1      -9.507  18.232  66.729  1.00  0.00    -0.300 C  
HETATM    7  O   UNK A   1      -8.458  18.498  65.909  1.00  0.00    -0.497 OA 
ENDROOT
BRANCH   4   8
HETATM    8  C   UNK A   1     -10.823  16.197  67.519  1.00  0.00    -0.284 C  
BRANCH   8   9
HETATM    9  C   UNK A   1     -10.033  14.988  68.023  1.00  0.00    -0.219 C  
BRANCH   9  10
HETATM   10  C   UNK A   1     -10.842  13.728  67.825  1.00  0.00    -0.250 C  
HETATM   11  N   UNK A   1     -10.153  12.562  68.082  1.00  0.00    -0.220 N  
HETATM   12  O   UNK A   1     -12.004  13.750  67.429  1.00  0.00    -0.379 OA 
HETATM   13  H   UNK A   1      -9.171  12.596  68.353  1.00  0.00     0.000 HD 
BRANCH  11  14
HETATM   14  C   UNK A   1     -10.841  11.270  67.960  1.00  0.00    -0.218 C  
BRANCH  14  15
HETATM   15  C   UNK A   1     -10.671  10.493  69.281  1.00  0.00    -0.234 C  
ATOM     16  H   GLY A   2     -12.717  10.576  69.579  1.00  0.00     0.000 HD 
ATOM     17  N   GLY A   2     -11.839  10.220  69.958  1.00  0.00    -0.248 N  
HETATM   18  O   UNK A   1      -9.578  10.158  69.712  1.00  0.00    -0.222 OA 
BRANCH  17  19
ATOM     19  CA  GLY A   2     -11.874   9.449  71.188  1.00  0.00    -0.338 C  
ATOM     20  C   GLY A   2     -13.060   9.748  72.090  1.00  0.00    -0.422 C  
ATOM     21  O   GLY A   2     -13.586  11.003  71.960  1.00  0.00    -0.281 OA 
ATOM     22  OXT GLY A   2     -13.490   8.968  72.927  1.00  0.00    -0.354 OA 
ENDBRANCH  17  19
ENDBRANCH  14  15
BRANCH  14  23
HETATM   23  C   UNK A   1     -10.294  10.473  66.764  1.00  0.00    -0.245 C  
BRANCH  23  24
HETATM   24  S   UNK A   1     -10.259   8.663  66.959  1.00  0.00    -0.295 SA 
BRANCH  24  25
HETATM   25  S   UNK A   1      -8.253   8.261  66.835  1.00  0.00    -0.104 SA 
BRANCH  25  26
HETATM   26  C   UNK A   1      -8.145   6.597  67.586  1.00  0.00    -0.119 C  
BRANCH  26  27
HETATM   27  C   UNK A   1      -9.495   5.905  67.852  1.00  0.00    -0.110 C  
BRANCH  27  28
HETATM   28  C   UNK A   1     -10.026   5.222  66.556  1.00  0.00    -0.204 C  
ATOM     29  H   GLY A   2      -8.315   4.034  66.398  1.00  0.00     0.000 HD 
ATOM     30  N   GLY A   2      -9.236   4.233  66.006  1.00  0.00    -0.136 N  
HETATM   31  O   UNK A   1     -11.146   5.447  66.102  1.00  0.00    -0.114 OA 
BRANCH  30  32
ATOM     32  CA  GLY A   2      -9.726   3.474  64.863  1.00  0.00    -0.157 C  
ATOM     33  OXT GLY A   2     -10.582   3.868  62.609  1.00  0.00    -0.201 OA 
ATOM     34  C   GLY A   2      -9.804   4.182  63.502  1.00  0.00    -0.096 C  
ATOM     35  O   GLY A   2      -8.802   5.050  63.267  1.00  0.00    -0.123 OA 
ENDBRANCH  30  32
ENDBRANCH  27  28
BRANCH  27  36
HETATM   36  N   UNK A   1      -9.567   5.153  69.123  1.00  0.00    -0.133 N  
HETATM   37  H   UNK A   1      -9.531   4.134  69.097  1.00  0.00     0.000 HD 
HETATM   38  O   UNK A   1      -9.591   6.997  70.482  1.00  0.00    -0.169 OA 
HETATM   39  C   UNK A   1      -9.680   5.782  70.341  1.00  0.00    -0.176 C  
BRANCH  39  40
HETATM   40  C   UNK A   1      -9.786   4.877  71.559  1.00  0.00    -0.233 C  
BRANCH  40  41
HETATM   41  C   UNK A   1      -9.047   5.335  72.831  1.00  0.00    -0.125 C  
BRANCH  41  42
HETATM   42  C   UNK A   1      -9.746   6.366  73.729  1.00  0.00    -0.193 C  
HETATM   43  N   UNK A   1     -11.066   6.785  73.186  1.00  0.00    -0.469 NA 
HETATM   44  C   UNK A   1      -8.888   7.613  73.841  1.00  0.00    -0.258 C  
HETATM   45  O   UNK A   1      -7.908   7.800  74.539  1.00  0.00    -0.171 OA 
HETATM   46  O   UNK A   1      -9.336   8.534  72.958  1.00  0.00    -0.215 OA 
HETATM   47  H2  UNK A   1     -11.666   5.979  73.014  1.00  0.00     0.000 HD 
HETATM   48  H1  UNK A   1     -11.530   7.470  73.782  1.00  0.00     0.000 HD 
ENDBRANCH  41  42
ENDBRANCH  40  41
ENDBRANCH  39  40
ENDBRANCH  27  36
ENDBRANCH  26  27
ENDBRANCH  25  26
ENDBRANCH  24  25
ENDBRANCH  23  24
ENDBRANCH  14  23
ENDBRANCH  11  14
ENDBRANCH   9  10
ENDBRANCH   8   9
ENDBRANCH   4   8
TORSDOF 17
ENDMDL
MODEL      211
REMARK 921   NORMALIZED FREE ENERGY PREDICTED BY IDOCK:   -3.92 KCAL/MOL
REMARK 922        TOTAL FREE ENERGY PREDICTED BY IDOCK:  -10.78 KCAL/MOL
REMARK 923 INTER-LIGAND FREE ENERGY PREDICTED BY IDOCK:   -8.27 KCAL/MOL
REMARK 924 INTRA-LIGAND FREE ENERGY PREDICTED BY IDOCK:   -2.51 KCAL/MOL
REMARK 927      BINDING AFFINITY PREDICTED BY RF-SCORE:    0.00 PKD
ROOT
HETATM    1  N   UNK A   1      -6.944  10.481  69.588  1.00  0.00    -0.119 NA 
HETATM    2  H1  UNK A   1      -6.327  10.127  70.319  1.00  0.00     0.000 HD 
HETATM    3  H2  UNK A   1      -7.195   9.738  68.937  1.00  0.00     0.000 HD 
HETATM    4  C   UNK A   1      -6.390  11.654  68.860  1.00  0.00    -0.062 C  
HETATM    5  O   UNK A   1      -5.907  13.932  69.645  1.00  0.00    -0.095 OA 
HETATM    6  C   UNK A   1      -6.014  12.739  69.885  1.00  0.00    -0.138 C  
HETATM    7  O   UNK A   1      -5.808  12.197  71.112  1.00  0.00    -0.371 OA 
ENDROOT
BRANCH   4   8
HETATM    8  C   UNK A   1      -7.316  12.186  67.764  1.00  0.00    -0.114 C  
BRANCH   8   9
HETATM    9  C   UNK A   1      -7.899  11.119  66.836  1.00  0.00    -0.152 C  
BRANCH   9  10
HETATM   10  C   UNK A   1      -9.401  11.070  66.992  1.00  0.00    -0.172 C  
HETATM   11  N   UNK A   1      -9.939  12.146  67.664  1.00  0.00    -0.194 N  
HETATM   12  O   UNK A   1     -10.072  10.125  66.588  1.00  0.00    -0.205 OA 
HETATM   13  H   UNK A   1      -9.332  12.878  68.032  1.00  0.00     0.000 HD 
BRANCH  11  14
HETATM   14  C   UNK A   1     -11.394  12.232  67.849  1.00  0.00    -0.298 C  
BRANCH  14  15
HETATM   15  C   UNK A   1     -11.902  13.525  67.178  1.00  0.00    -0.387 C  
ATOM     16  H   GLY A   2     -11.191  12.844  65.358  1.00  0.00     0.000 HD 
ATOM     17  N   GLY A   2     -11.692  13.602  65.818  1.00  0.00    -0.335 N  
HETATM   18  O   UNK A   1     -12.435  14.427  67.804  1.00  0.00    -0.105 OA 
BRANCH  17  19
ATOM     19  CA  GLY A   2     -12.156  14.719  65.014  1.00  0.00    -0.291 C  
ATOM     20  C   GLY A   2     -11.170  15.871  64.901  1.00  0.00    -0.337 C  
ATOM     21  O   GLY A   2     -10.296  15.992  65.945  1.00  0.00    -0.328 OA 
ATOM     22  OXT GLY A   2     -11.178  16.684  63.988  1.00  0.00    -1.052 OA 
ENDBRANCH  17  19
ENDBRANCH  14  15
BRANCH  14  23
HETATM   23  C   UNK A   1     -11.755  12.196  69.344  1.00  0.00    -0.329 C  
BRANCH  23  24
HETATM   24  S   UNK A   1     -12.345  10.597  69.984  1.00  0.00    -0.205 SA 
BRANCH  24  25
HETATM   25  S   UNK A   1     -10.613   9.756  70.688  1.00  0.00    -0.285 SA 
BRANCH  25  26
HETATM   26  C   UNK A   1     -10.512   8.210  69.718  1.00  0.00    -0.227 C  
BRANCH  26  27
HETATM   27  C   UNK A   1      -9.090   7.661  69.499  1.00  0.00    -0.146 C  
BRANCH  27  28
HETATM   28  C   UNK A   1      -8.675   6.728  70.675  1.00  0.00    -0.143 C  
ATOM     29  H   GLY A   2      -9.775   7.853  72.049  1.00  0.00     0.000 HD 
ATOM     30  N   GLY A   2      -9.208   7.016  71.916  1.00  0.00    -0.141 N  
HETATM   31  O   UNK A   1      -8.010   5.707  70.506  1.00  0.00    -0.099 OA 
BRANCH  30  32
ATOM     32  CA  GLY A   2      -8.953   6.115  73.033  1.00  0.00    -0.131 C  
ATOM     33  OXT GLY A   2     -10.180   4.609  74.514  1.00  0.00    -0.207 OA 
ATOM     34  C   GLY A   2     -10.032   5.084  73.394  1.00  0.00    -0.157 C  
ATOM     35  O   GLY A   2     -10.683   4.565  72.336  1.00  0.00    -0.173 OA 
ENDBRANCH  30  32
ENDBRANCH  27  28
BRANCH  27  36
HETATM   36  N   UNK A   1      -8.801   7.222  68.116  1.00  0.00    -0.127 N  
HETATM   37  H   UNK A   1      -9.548   6.796  67.568  1.00  0.00     0.000 HD 
HETATM   38  O   UNK A   1      -6.643   7.990  68.075  1.00  0.00    -0.054 OA 
HETATM   39  C   UNK A   1      -7.558   7.368  67.546  1.00  0.00    -0.106 C  
BRANCH  39  40
HETATM   40  C   UNK A   1      -7.399   6.831  66.132  1.00  0.00    -0.072 C  
BRANCH  40  41
HETATM   41  C   UNK A   1      -6.979   5.355  65.994  1.00  0.00    -0.066 C  
BRANCH  41  42
HETATM   42  C   UNK A   1      -7.925   4.413  65.235  1.00  0.00    -0.101 C  
HETATM   43  N   UNK A   1      -9.046   5.143  64.584  1.00  0.00    -0.343 NA 
HETATM   44  C   UNK A   1      -8.538   3.415  66.199  1.00  0.00    -0.119 C  
HETATM   45  O   UNK A   1      -8.042   2.402  66.660  1.00  0.00    -0.078 OA 
HETATM   46  O   UNK A   1      -9.764   3.852  66.565  1.00  0.00    -0.207 OA 
HETATM   47  H2  UNK A   1      -8.700   5.885  63.977  1.00  0.00     0.000 HD 
HETATM   48  H1  UNK A   1      -9.675   4.518  64.080  1.00  0.00     0.000 HD 
ENDBRANCH  41  42
ENDBRANCH  40  41
ENDBRANCH  39  40
ENDBRANCH  27  36
ENDBRANCH  26  27
ENDBRANCH  25  26
ENDBRANCH  24  25
ENDBRANCH  23  24
ENDBRANCH  14  23
ENDBRANCH  11  14
ENDBRANCH   9  10
ENDBRANCH   8   9
ENDBRANCH   4   8
TORSDOF 17
ENDMDL
MODEL      212
REMARK 921   NORMALIZED FREE ENERGY PREDICTED BY IDOCK:   -3.85 KCAL/MOL
REMARK 922        TOTAL FREE ENERGY PREDICTED BY IDOCK:  -10.65 KCAL/MOL
REMARK 923 INTER-LIGAND FREE ENERGY PREDICTED BY IDOCK:   -9.05 KCAL/MOL
REMARK 924 INTRA-LIGAND FREE ENERGY PREDICTED BY IDOCK:   -1.59 KCAL/MOL
REMARK 927      BINDING AFFINITY PREDICTED BY RF-SCORE:    0.00 PKD
ROOT
HETATM    1  N   UNK A   1     -11.311   8.242  72.097  1.00  0.00    -0.325 NA 
HETATM    2  H1  UNK A   1     -11.757   8.365  73.006  1.00  0.00     0.000 HD 
HETATM    3  H2  UNK A   1     -10.427   7.743  72.193  1.00  0.00     0.000 HD 
HETATM    4  C   UNK A   1     -11.118   9.516  71.353  1.00  0.00    -0.368 C  
HETATM    5  O   UNK A   1     -12.766  11.072  70.405  1.00  0.00    -0.288 OA 
HETATM    6  C   UNK A   1     -12.473  10.237  71.247  1.00  0.00    -0.408 C  
HETATM    7  O   UNK A   1     -13.319   9.825  72.225  1.00  0.00    -0.443 OA 
ENDROOT
BRANCH   4   8
HETATM    8  C   UNK A   1     -10.450   9.332  69.989  1.00  0.00    -0.254 C  
BRANCH   8   9
HETATM    9  C   UNK A   1      -9.024   8.780  70.037  1.00  0.00    -0.162 C  
BRANCH   9  10
HETATM   10  C   UNK A   1      -8.034   9.921  70.063  1.00  0.00    -0.180 C  
HETATM   11  N   UNK A   1      -8.235  10.872  69.084  1.00  0.00    -0.304 N  
HETATM   12  O   UNK A   1      -7.107   9.968  70.866  1.00  0.00    -0.337 OA 
HETATM   13  H   UNK A   1      -8.985  10.757  68.404  1.00  0.00     0.000 HD 
BRANCH  11  14
HETATM   14  C   UNK A   1      -7.359  12.050  69.027  1.00  0.00    -0.018 C  
BRANCH  14  15
HETATM   15  C   UNK A   1      -8.063  13.149  68.205  1.00  0.00    -0.152 C  
ATOM     16  H   GLY A   2      -6.780  14.557  69.014  1.00  0.00     0.000 HD 
ATOM     17  N   GLY A   2      -7.546  14.417  68.355  1.00  0.00    -0.113 N  
HETATM   18  O   UNK A   1      -9.024  12.921  67.487  1.00  0.00    -0.174 OA 
BRANCH  17  19
ATOM     19  CA  GLY A   2      -8.047  15.563  67.616  1.00  0.00    -0.146 C  
ATOM     20  C   GLY A   2      -6.972  16.525  67.135  1.00  0.00    -0.194 C  
ATOM     21  O   GLY A   2      -5.828  16.538  67.882  1.00  0.00    -0.112 OA 
ATOM     22  OXT GLY A   2      -7.118  17.289  66.193  1.00  0.00    -0.278 OA 
ENDBRANCH  17  19
ENDBRANCH  14  15
BRANCH  14  23
HETATM   23  C   UNK A   1      -5.993  11.683  68.421  1.00  0.00    -0.049 C  
BRANCH  23  24
HETATM   24  S   UNK A   1      -5.932  11.561  66.606  1.00  0.00    -0.089 SA 
BRANCH  24  25
HETATM   25  S   UNK A   1      -6.486   9.613  66.291  1.00  0.00    -0.072 SA 
BRANCH  25  26
HETATM   26  C   UNK A   1      -8.308   9.736  66.220  1.00  0.00    -0.116 C  
BRANCH  26  27
HETATM   27  C   UNK A   1      -8.965   9.085  64.989  1.00  0.00    -0.147 C  
BRANCH  27  28
HETATM   28  C   UNK A   1      -9.480  10.173  64.001  1.00  0.00    -0.282 C  
ATOM     29  H   GLY A   2     -10.515  11.162  65.522  1.00  0.00     0.000 HD 
ATOM     30  N   GLY A   2     -10.244  11.190  64.539  1.00  0.00    -0.299 N  
HETATM   31  O   UNK A   1      -9.131  10.215  62.822  1.00  0.00    -0.233 OA 
BRANCH  30  32
ATOM     32  CA  GLY A   2     -10.660  12.301  63.693  1.00  0.00    -0.462 C  
ATOM     33  OXT GLY A   2     -12.648  13.650  63.252  1.00  0.00    -0.816 OA 
ATOM     34  C   GLY A   2     -11.949  13.050  64.060  1.00  0.00    -0.456 C  
ATOM     35  O   GLY A   2     -12.156  13.187  65.383  1.00  0.00    -0.380 OA 
ENDBRANCH  30  32
ENDBRANCH  27  28
BRANCH  27  36
HETATM   36  N   UNK A   1      -8.233   7.924  64.436  1.00  0.00    -0.304 N  
HETATM   37  H   UNK A   1      -7.538   8.080  63.707  1.00  0.00     0.000 HD 
HETATM   38  O   UNK A   1      -9.169   6.371  65.837  1.00  0.00    -0.116 OA 
HETATM   39  C   UNK A   1      -8.459   6.640  64.874  1.00  0.00     0.040 C  
BRANCH  39  40
HETATM   40  C   UNK A   1      -7.662   5.543  64.184  1.00  0.00    -0.089 C  
BRANCH  40  41
HETATM   41  C   UNK A   1      -8.306   4.144  64.134  1.00  0.00    -0.099 C  
BRANCH  41  42
HETATM   42  C   UNK A   1      -9.220   3.822  62.943  1.00  0.00    -0.106 C  
HETATM   43  N   UNK A   1     -10.569   4.431  63.086  1.00  0.00    -0.414 NA 
HETATM   44  C   UNK A   1      -9.412   2.321  62.836  1.00  0.00    -0.090 C  
HETATM   45  O   UNK A   1      -8.656   1.489  62.367  1.00  0.00    -0.060 OA 
HETATM   46  O   UNK A   1     -10.581   1.985  63.429  1.00  0.00    -0.156 OA 
HETATM   47  H2  UNK A   1     -10.504   5.437  63.238  1.00  0.00     0.000 HD 
HETATM   48  H1  UNK A   1     -11.176   4.217  62.294  1.00  0.00     0.000 HD 
ENDBRANCH  41  42
ENDBRANCH  40  41
ENDBRANCH  39  40
ENDBRANCH  27  36
ENDBRANCH  26  27
ENDBRANCH  25  26
ENDBRANCH  24  25
ENDBRANCH  23  24
ENDBRANCH  14  23
ENDBRANCH  11  14
ENDBRANCH   9  10
ENDBRANCH   8   9
ENDBRANCH   4   8
TORSDOF 17
ENDMDL
MODEL      213
REMARK 921   NORMALIZED FREE ENERGY PREDICTED BY IDOCK:   -3.83 KCAL/MOL
REMARK 922        TOTAL FREE ENERGY PREDICTED BY IDOCK:  -10.61 KCAL/MOL
REMARK 923 INTER-LIGAND FREE ENERGY PREDICTED BY IDOCK:   -8.66 KCAL/MOL
REMARK 924 INTRA-LIGAND FREE ENERGY PREDICTED BY IDOCK:   -1.94 KCAL/MOL
REMARK 927      BINDING AFFINITY PREDICTED BY RF-SCORE:    0.00 PKD
ROOT
HETATM    1  N   UNK A   1      -7.348   4.796  67.256  1.00  0.00    -0.076 NA 
HETATM    2  H1  UNK A   1      -6.418   5.109  67.534  1.00  0.00     0.000 HD 
HETATM    3  H2  UNK A   1      -7.431   4.770  66.240  1.00  0.00     0.000 HD 
HETATM    4  C   UNK A   1      -8.449   5.598  67.854  1.00  0.00    -0.102 C  
HETATM    5  O   UNK A   1      -9.158   5.832  70.194  1.00  0.00    -0.137 OA 
HETATM    6  C   UNK A   1      -8.272   5.619  69.382  1.00  0.00    -0.103 C  
HETATM    7  O   UNK A   1      -6.982   5.369  69.724  1.00  0.00    -0.057 OA 
ENDROOT
BRANCH   4   8
HETATM    8  C   UNK A   1      -9.844   5.127  67.437  1.00  0.00    -0.193 C  
BRANCH   8   9
HETATM    9  C   UNK A   1     -10.793   6.239  66.985  1.00  0.00    -0.458 C  
BRANCH   9  10
HETATM   10  C   UNK A   1      -9.999   7.385  66.403  1.00  0.00    -0.036 C  
HETATM   11  N   UNK A   1     -10.196   8.593  67.037  1.00  0.00    -0.266 N  
HETATM   12  O   UNK A   1      -9.275   7.250  65.421  1.00  0.00     0.198 OA 
HETATM   13  H   UNK A   1     -10.854   8.664  67.813  1.00  0.00     0.000 HD 
BRANCH  11  14
HETATM   14  C   UNK A   1      -9.453   9.778  66.587  1.00  0.00    -0.171 C  
BRANCH  14  15
HETATM   15  C   UNK A   1      -8.167   9.904  67.429  1.00  0.00    -0.118 C  
ATOM     16  H   GLY A   2      -9.317  10.294  69.104  1.00  0.00     0.000 HD 
ATOM     17  N   GLY A   2      -8.363  10.162  68.767  1.00  0.00    -0.115 N  
HETATM   18  O   UNK A   1      -7.050   9.802  66.945  1.00  0.00    -0.087 OA 
BRANCH  17  19
ATOM     19  CA  GLY A   2      -7.270  10.255  69.719  1.00  0.00    -0.147 C  
ATOM     20  C   GLY A   2      -7.412   9.355  70.936  1.00  0.00    -0.072 C  
ATOM     21  O   GLY A   2      -8.696   9.037  71.277  1.00  0.00    -0.207 OA 
ATOM     22  OXT GLY A   2      -6.468   8.983  71.618  1.00  0.00    -0.082 OA 
ENDBRANCH  17  19
ENDBRANCH  14  15
BRANCH  14  23
HETATM   23  C   UNK A   1     -10.324  11.041  66.699  1.00  0.00    -0.240 C  
BRANCH  23  24
HETATM   24  S   UNK A   1     -10.427  12.075  65.204  1.00  0.00    -0.300 SA 
BRANCH  24  25
HETATM   25  S   UNK A   1     -12.403  12.618  65.197  1.00  0.00    -0.429 SA 
BRANCH  25  26
HETATM   26  C   UNK A   1     -12.352  14.272  65.973  1.00  0.00    -0.395 C  
BRANCH  26  27
HETATM   27  C   UNK A   1     -11.566  14.356  67.295  1.00  0.00    -0.379 C  
BRANCH  27  28
HETATM   28  C   UNK A   1     -10.539  15.527  67.249  1.00  0.00    -0.299 C  
ATOM     29  H   GLY A   2     -11.070  16.009  65.288  1.00  0.00     0.000 HD 
ATOM     30  N   GLY A   2     -10.503  16.278  66.092  1.00  0.00    -0.329 N  
HETATM   31  O   UNK A   1      -9.875  15.862  68.229  1.00  0.00    -0.214 OA 
BRANCH  30  32
ATOM     32  CA  GLY A   2      -9.649  17.457  66.027  1.00  0.00    -0.118 C  
ATOM     33  OXT GLY A   2      -9.852  19.891  66.010  1.00  0.00    -0.430 OA 
ATOM     34  C   GLY A   2     -10.250  18.811  66.429  1.00  0.00    -0.421 C  
ATOM     35  O   GLY A   2     -11.122  18.752  67.453  1.00  0.00    -0.332 OA 
ENDBRANCH  30  32
ENDBRANCH  27  28
BRANCH  27  36
HETATM   36  N   UNK A   1     -12.384  14.186  68.515  1.00  0.00    -0.541 N  
HETATM   37  H   UNK A   1     -13.346  14.525  68.516  1.00  0.00     0.000 HD 
HETATM   38  O   UNK A   1     -10.801  13.026  69.697  1.00  0.00     0.085 OA 
HETATM   39  C   UNK A   1     -11.891  13.585  69.650  1.00  0.00    -0.336 C  
BRANCH  39  40
HETATM   40  C   UNK A   1     -12.835  13.519  70.841  1.00  0.00    -0.298 C  
BRANCH  40  41
HETATM   41  C   UNK A   1     -12.670  12.318  71.791  1.00  0.00    -0.257 C  
BRANCH  41  42
HETATM   42  C   UNK A   1     -13.410  11.020  71.434  1.00  0.00    -0.082 C  
HETATM   43  N   UNK A   1     -13.530  10.100  72.597  1.00  0.00    -0.463 NA 
HETATM   44  C   UNK A   1     -12.650  10.279  70.350  1.00  0.00    -0.204 C  
HETATM   45  O   UNK A   1     -12.633  10.495  69.152  1.00  0.00    -0.171 OA 
HETATM   46  O   UNK A   1     -11.886   9.322  70.925  1.00  0.00    -0.283 OA 
HETATM   47  H2  UNK A   1     -13.967  10.566  73.391  1.00  0.00     0.000 HD 
HETATM   48  H1  UNK A   1     -14.021   9.238  72.360  1.00  0.00     0.000 HD 
ENDBRANCH  41  42
ENDBRANCH  40  41
ENDBRANCH  39  40
ENDBRANCH  27  36
ENDBRANCH  26  27
ENDBRANCH  25  26
ENDBRANCH  24  25
ENDBRANCH  23  24
ENDBRANCH  14  23
ENDBRANCH  11  14
ENDBRANCH   9  10
ENDBRANCH   8   9
ENDBRANCH   4   8
TORSDOF 17
ENDMDL
MODEL      214
REMARK 921   NORMALIZED FREE ENERGY PREDICTED BY IDOCK:   -3.80 KCAL/MOL
REMARK 922        TOTAL FREE ENERGY PREDICTED BY IDOCK:  -10.55 KCAL/MOL
REMARK 923 INTER-LIGAND FREE ENERGY PREDICTED BY IDOCK:   -8.97 KCAL/MOL
REMARK 924 INTRA-LIGAND FREE ENERGY PREDICTED BY IDOCK:   -1.58 KCAL/MOL
REMARK 927      BINDING AFFINITY PREDICTED BY RF-SCORE:    0.00 PKD
ROOT
HETATM    1  N   UNK A   1      -8.804  18.676  65.637  1.00  0.00    -0.075 NA 
HETATM    2  H1  UNK A   1      -8.780  18.576  64.622  1.00  0.00     0.000 HD 
HETATM    3  H2  UNK A   1      -9.762  18.797  65.965  1.00  0.00     0.000 HD 
HETATM    4  C   UNK A   1      -7.932  19.768  66.147  1.00  0.00    -0.340 C  
HETATM    5  O   UNK A   1      -5.486  19.996  66.120  1.00  0.00    -0.167 OA 
HETATM    6  C   UNK A   1      -6.504  19.550  65.615  1.00  0.00    -0.240 C  
HETATM    7  O   UNK A   1      -6.517  18.789  64.492  1.00  0.00    -0.415 OA 
ENDROOT
BRANCH   4   8
HETATM    8  C   UNK A   1      -7.968  19.918  67.670  1.00  0.00    -0.328 C  
BRANCH   8   9
HETATM    9  C   UNK A   1      -7.915  18.603  68.450  1.00  0.00    -0.351 C  
BRANCH   9  10
HETATM   10  C   UNK A   1      -9.302  18.014  68.555  1.00  0.00    -0.304 C  
HETATM   11  N   UNK A   1      -9.415  16.732  68.059  1.00  0.00    -0.230 N  
HETATM   12  O   UNK A   1     -10.253  18.646  69.006  1.00  0.00    -0.347 OA 
HETATM   13  H   UNK A   1      -8.607  16.271  67.641  1.00  0.00     0.000 HD 
BRANCH  11  14
HETATM   14  C   UNK A   1     -10.706  16.035  68.135  1.00  0.00    -0.311 C  
BRANCH  14  15
HETATM   15  C   UNK A   1     -10.790  15.298  69.488  1.00  0.00    -0.271 C  
ATOM     16  H   GLY A   2     -12.836  15.110  69.243  1.00  0.00     0.000 HD 
ATOM     17  N   GLY A   2     -12.050  14.878  69.851  1.00  0.00    -0.321 N  
HETATM   18  O   UNK A   1      -9.815  15.115  70.200  1.00  0.00    -0.112 OA 
BRANCH  17  19
ATOM     19  CA  GLY A   2     -12.308  14.119  71.062  1.00  0.00    -0.366 C  
ATOM     20  C   GLY A   2     -13.097  14.868  72.123  1.00  0.00    -0.344 C  
ATOM     21  O   GLY A   2     -12.974  16.229  72.086  1.00  0.00    -0.275 OA 
ATOM     22  OXT GLY A   2     -13.748  14.318  72.999  1.00  0.00    -0.613 OA 
ENDBRANCH  17  19
ENDBRANCH  14  15
BRANCH  14  23
HETATM   23  C   UNK A   1     -10.870  15.063  66.954  1.00  0.00    -0.315 C  
BRANCH  23  24
HETATM   24  S   UNK A   1      -9.846  13.558  67.010  1.00  0.00    -0.257 SA 
BRANCH  24  25
HETATM   25  S   UNK A   1     -10.977  12.318  68.188  1.00  0.00    -0.248 SA 
BRANCH  25  26
HETATM   26  C   UNK A   1     -10.999  10.773  67.211  1.00  0.00    -0.297 C  
BRANCH  26  27
HETATM   27  C   UNK A   1      -9.773   9.859  67.394  1.00  0.00    -0.162 C  
BRANCH  27  28
HETATM   28  C   UNK A   1      -9.949   8.536  66.591  1.00  0.00    -0.293 C  
ATOM     29  H   GLY A   2     -10.980   7.635  68.168  1.00  0.00     0.000 HD 
ATOM     30  N   GLY A   2     -10.665   7.528  67.204  1.00  0.00    -0.334 N  
HETATM   31  O   UNK A   1      -9.589   8.421  65.421  1.00  0.00     0.146 OA 
BRANCH  30  32
ATOM     32  CA  GLY A   2     -10.966   6.308  66.464  1.00  0.00     0.011 C  
ATOM     33  OXT GLY A   2      -9.935   4.156  65.944  1.00  0.00    -0.209 OA 
ATOM     34  C   GLY A   2     -10.122   5.059  66.751  1.00  0.00    -0.239 C  
ATOM     35  O   GLY A   2      -9.767   4.910  68.041  1.00  0.00    -0.142 OA 
ENDBRANCH  30  32
ENDBRANCH  27  28
BRANCH  27  36
HETATM   36  N   UNK A   1      -8.468  10.553  67.330  1.00  0.00    -0.122 N  
HETATM   37  H   UNK A   1      -8.372  11.370  66.726  1.00  0.00     0.000 HD 
HETATM   38  O   UNK A   1      -7.436   9.252  68.908  1.00  0.00    -0.073 OA 
HETATM   39  C   UNK A   1      -7.379  10.133  68.057  1.00  0.00    -0.086 C  
BRANCH  39  40
HETATM   40  C   UNK A   1      -6.092  10.918  67.856  1.00  0.00    -0.050 C  
BRANCH  40  41
HETATM   41  C   UNK A   1      -6.229  12.338  67.273  1.00  0.00    -0.152 C  
BRANCH  41  42
HETATM   42  C   UNK A   1      -5.495  13.478  67.994  1.00  0.00    -0.117 C  
HETATM   43  N   UNK A   1      -5.274  13.185  69.436  1.00  0.00    -0.075 NA 
HETATM   44  C   UNK A   1      -6.320  14.750  67.915  1.00  0.00    -0.161 C  
HETATM   45  O   UNK A   1      -6.428  15.527  66.983  1.00  0.00    -0.285 OA 
HETATM   46  O   UNK A   1      -7.023  14.890  69.061  1.00  0.00    -0.104 OA 
HETATM   47  H2  UNK A   1      -4.789  12.298  69.561  1.00  0.00     0.000 HD 
HETATM   48  H1  UNK A   1      -4.787  13.942  69.915  1.00  0.00     0.000 HD 
ENDBRANCH  41  42
ENDBRANCH  40  41
ENDBRANCH  39  40
ENDBRANCH  27  36
ENDBRANCH  26  27
ENDBRANCH  25  26
ENDBRANCH  24  25
ENDBRANCH  23  24
ENDBRANCH  14  23
ENDBRANCH  11  14
ENDBRANCH   9  10
ENDBRANCH   8   9
ENDBRANCH   4   8
TORSDOF 17
ENDMDL
MODEL      215
REMARK 921   NORMALIZED FREE ENERGY PREDICTED BY IDOCK:   -3.79 KCAL/MOL
REMARK 922        TOTAL FREE ENERGY PREDICTED BY IDOCK:  -10.52 KCAL/MOL
REMARK 923 INTER-LIGAND FREE ENERGY PREDICTED BY IDOCK:  -10.27 KCAL/MOL
REMARK 924 INTRA-LIGAND FREE ENERGY PREDICTED BY IDOCK:   -0.25 KCAL/MOL
REMARK 927      BINDING AFFINITY PREDICTED BY RF-SCORE:    0.00 PKD
ROOT
HETATM    1  N   UNK A   1     -13.487  14.175  70.300  1.00  0.00    -0.081 NA 
HETATM    2  H1  UNK A   1     -14.034  13.330  70.461  1.00  0.00     0.000 HD 
HETATM    3  H2  UNK A   1     -13.069  14.163  69.370  1.00  0.00     0.000 HD 
HETATM    4  C   UNK A   1     -12.451  14.419  71.340  1.00  0.00    -0.359 C  
HETATM    5  O   UNK A   1     -12.685  14.948  73.727  1.00  0.00    -0.517 OA 
HETATM    6  C   UNK A   1     -13.126  14.414  72.722  1.00  0.00    -0.505 C  
HETATM    7  O   UNK A   1     -14.296  13.727  72.687  1.00  0.00    -0.678 OA 
ENDROOT
BRANCH   4   8
HETATM    8  C   UNK A   1     -11.629  15.687  71.099  1.00  0.00    -0.462 C  
BRANCH   8   9
HETATM    9  C   UNK A   1     -10.345  15.483  70.294  1.00  0.00    -0.217 C  
BRANCH   9  10
HETATM   10  C   UNK A   1     -10.643  15.592  68.817  1.00  0.00    -0.238 C  
HETATM   11  N   UNK A   1      -9.559  15.354  67.998  1.00  0.00    -0.205 N  
HETATM   12  O   UNK A   1     -11.750  15.909  68.392  1.00  0.00    -0.358 OA 
HETATM   13  H   UNK A   1      -8.645  15.151  68.403  1.00  0.00     0.000 HD 
BRANCH  11  14
HETATM   14  C   UNK A   1      -9.729  15.395  66.540  1.00  0.00    -0.272 C  
BRANCH  14  15
HETATM   15  C   UNK A   1      -9.779  16.869  66.089  1.00  0.00    -0.272 C  
ATOM     16  H   GLY A   2      -8.096  17.261  67.227  1.00  0.00     0.000 HD 
ATOM     17  N   GLY A   2      -8.770  17.668  66.580  1.00  0.00    -0.263 N  
HETATM   18  O   UNK A   1     -10.660  17.306  65.365  1.00  0.00    -0.630 OA 
BRANCH  17  19
ATOM     19  CA  GLY A   2      -8.627  19.067  66.215  1.00  0.00    -0.274 C  
ATOM     20  C   GLY A   2      -7.310  19.700  66.634  1.00  0.00    -0.242 C  
ATOM     21  O   GLY A   2      -6.713  19.129  67.724  1.00  0.00    -0.207 OA 
ATOM     22  OXT GLY A   2      -6.831  20.687  66.098  1.00  0.00    -0.236 OA 
ENDBRANCH  17  19
ENDBRANCH  14  15
BRANCH  14  23
HETATM   23  C   UNK A   1     -10.998  14.634  66.119  1.00  0.00    -0.329 C  
BRANCH  23  24
HETATM   24  S   UNK A   1     -10.732  13.064  65.235  1.00  0.00    -0.309 SA 
BRANCH  24  25
HETATM   25  S   UNK A   1     -11.104  11.682  66.703  1.00  0.00    -0.295 SA 
BRANCH  25  26
HETATM   26  C   UNK A   1     -10.570  10.124  65.910  1.00  0.00     0.028 C  
BRANCH  26  27
HETATM   27  C   UNK A   1      -9.823   9.139  66.829  1.00  0.00    -0.226 C  
BRANCH  27  28
HETATM   28  C   UNK A   1      -8.488   9.763  67.333  1.00  0.00    -0.121 C  
ATOM     29  H   GLY A   2      -9.500  11.088  68.591  1.00  0.00     0.000 HD 
ATOM     30  N   GLY A   2      -8.585  10.745  68.298  1.00  0.00    -0.129 N  
HETATM   31  O   UNK A   1      -7.387   9.329  66.996  1.00  0.00    -0.089 OA 
BRANCH  30  32
ATOM     32  CA  GLY A   2      -7.372  11.287  68.896  1.00  0.00    -0.115 C  
ATOM     33  OXT GLY A   2      -6.153  11.204  71.011  1.00  0.00    -0.366 OA 
ATOM     34  C   GLY A   2      -6.833  10.626  70.173  1.00  0.00    -0.113 C  
ATOM     35  O   GLY A   2      -6.981   9.288  70.212  1.00  0.00    -0.055 OA 
ENDBRANCH  30  32
ENDBRANCH  27  28
BRANCH  27  36
HETATM   36  N   UNK A   1     -10.680   8.430  67.804  1.00  0.00    -0.465 N  
HETATM   37  H   UNK A   1     -11.390   8.957  68.313  1.00  0.00     0.000 HD 
HETATM   38  O   UNK A   1      -9.827   6.345  67.390  1.00  0.00    -0.122 OA 
HETATM   39  C   UNK A   1     -10.552   7.083  68.048  1.00  0.00    -0.207 C  
BRANCH  39  40
HETATM   40  C   UNK A   1     -11.474   6.500  69.109  1.00  0.00    -0.245 C  
BRANCH  40  41
HETATM   41  C   UNK A   1     -11.000   6.602  70.571  1.00  0.00    -0.337 C  
BRANCH  41  42
HETATM   42  C   UNK A   1     -10.357   5.357  71.200  1.00  0.00    -0.235 C  
HETATM   43  N   UNK A   1      -9.816   5.626  72.559  1.00  0.00    -0.162 NA 
HETATM   44  C   UNK A   1      -9.198   4.889  70.339  1.00  0.00    -0.134 C  
HETATM   45  O   UNK A   1      -9.231   4.243  69.308  1.00  0.00    -0.118 OA 
HETATM   46  O   UNK A   1      -8.044   5.369  70.857  1.00  0.00    -0.107 OA 
HETATM   47  H2  UNK A   1     -10.533   6.018  73.170  1.00  0.00     0.000 HD 
HETATM   48  H1  UNK A   1      -9.389   4.800  72.977  1.00  0.00     0.000 HD 
ENDBRANCH  41  42
ENDBRANCH  40  41
ENDBRANCH  39  40
ENDBRANCH  27  36
ENDBRANCH  26  27
ENDBRANCH  25  26
ENDBRANCH  24  25
ENDBRANCH  23  24
ENDBRANCH  14  23
ENDBRANCH  11  14
ENDBRANCH   9  10
ENDBRANCH   8   9
ENDBRANCH   4   8
TORSDOF 17
ENDMDL
MODEL      216
REMARK 921   NORMALIZED FREE ENERGY PREDICTED BY IDOCK:   -3.78 KCAL/MOL
REMARK 922        TOTAL FREE ENERGY PREDICTED BY IDOCK:  -10.51 KCAL/MOL
REMARK 923 INTER-LIGAND FREE ENERGY PREDICTED BY IDOCK:   -8.99 KCAL/MOL
REMARK 924 INTRA-LIGAND FREE ENERGY PREDICTED BY IDOCK:   -1.52 KCAL/MOL
REMARK 927      BINDING AFFINITY PREDICTED BY RF-SCORE:    0.00 PKD
ROOT
HETATM    1  N   UNK A   1      -6.884   6.313  65.305  1.00  0.00    -0.047 NA 
HETATM    2  H1  UNK A   1      -6.093   5.696  65.121  1.00  0.00     0.000 HD 
HETATM    3  H2  UNK A   1      -6.620   7.055  65.953  1.00  0.00     0.000 HD 
HETATM    4  C   UNK A   1      -8.096   5.598  65.788  1.00  0.00    -0.114 C  
HETATM    5  O   UNK A   1      -9.546   3.974  64.649  1.00  0.00    -0.156 OA 
HETATM    6  C   UNK A   1      -8.445   4.483  64.786  1.00  0.00    -0.132 C  
HETATM    7  O   UNK A   1      -7.355   4.126  64.060  1.00  0.00    -0.053 OA 
ENDROOT
BRANCH   4   8
HETATM    8  C   UNK A   1      -9.283   6.524  66.062  1.00  0.00    -0.077 C  
BRANCH   8   9
HETATM    9  C   UNK A   1      -8.939   8.013  66.134  1.00  0.00    -0.215 C  
BRANCH   9  10
HETATM   10  C   UNK A   1      -8.384   8.345  67.499  1.00  0.00    -0.129 C  
HETATM   11  N   UNK A   1      -9.273   8.158  68.536  1.00  0.00    -0.136 N  
HETATM   12  O   UNK A   1      -7.248   8.784  67.658  1.00  0.00    -0.079 OA 
HETATM   13  H   UNK A   1     -10.225   7.846  68.346  1.00  0.00     0.000 HD 
BRANCH  11  14
HETATM   14  C   UNK A   1      -8.841   8.413  69.917  1.00  0.00    -0.137 C  
BRANCH  14  15
HETATM   15  C   UNK A   1      -9.103   7.146  70.758  1.00  0.00    -0.153 C  
ATOM     16  H   GLY A   2      -9.544   8.337  72.392  1.00  0.00     0.000 HD 
ATOM     17  N   GLY A   2      -9.494   7.375  72.059  1.00  0.00    -0.136 N  
HETATM   18  O   UNK A   1      -8.956   6.019  70.313  1.00  0.00    -0.144 OA 
BRANCH  17  19
ATOM     19  CA  GLY A   2      -9.838   6.303  72.977  1.00  0.00    -0.168 C  
ATOM     20  C   GLY A   2     -11.230   5.724  72.782  1.00  0.00    -0.292 C  
ATOM     21  O   GLY A   2     -12.142   6.580  72.230  1.00  0.00    -0.278 OA 
ATOM     22  OXT GLY A   2     -11.556   4.604  73.144  1.00  0.00    -0.276 OA 
ENDBRANCH  17  19
ENDBRANCH  14  15
BRANCH  14  23
HETATM   23  C   UNK A   1      -9.572   9.635  70.499  1.00  0.00    -0.199 C  
BRANCH  23  24
HETATM   24  S   UNK A   1     -11.370   9.698  70.219  1.00  0.00    -0.242 SA 
BRANCH  24  25
HETATM   25  S   UNK A   1     -11.494  10.787  68.487  1.00  0.00    -0.255 SA 
BRANCH  25  26
HETATM   26  C   UNK A   1     -10.321  12.153  68.805  1.00  0.00    -0.147 C  
BRANCH  26  27
HETATM   27  C   UNK A   1      -9.153  12.265  67.807  1.00  0.00    -0.191 C  
BRANCH  27  28
HETATM   28  C   UNK A   1      -9.666  12.122  66.344  1.00  0.00    -0.231 C  
ATOM     29  H   GLY A   2     -10.788  13.878  66.493  1.00  0.00     0.000 HD 
ATOM     30  N   GLY A   2     -10.482  13.131  65.870  1.00  0.00    -0.275 N  
HETATM   31  O   UNK A   1      -9.275  11.233  65.589  1.00  0.00    -0.214 OA 
BRANCH  30  32
ATOM     32  CA  GLY A   2     -10.902  13.119  64.474  1.00  0.00    -0.383 C  
ATOM     33  OXT GLY A   2     -12.804  12.402  63.120  1.00  0.00    -0.624 OA 
ATOM     34  C   GLY A   2     -12.388  12.884  64.166  1.00  0.00    -0.376 C  
ATOM     35  O   GLY A   2     -13.236  13.446  65.048  1.00  0.00    -0.715 OA 
ENDBRANCH  30  32
ENDBRANCH  27  28
BRANCH  27  36
HETATM   36  N   UNK A   1      -8.179  13.336  68.110  1.00  0.00    -0.152 N  
HETATM   37  H   UNK A   1      -7.183  13.123  68.070  1.00  0.00     0.000 HD 
HETATM   38  O   UNK A   1      -9.736  14.994  68.384  1.00  0.00    -0.205 OA 
HETATM   39  C   UNK A   1      -8.573  14.611  68.445  1.00  0.00    -0.169 C  
BRANCH  39  40
HETATM   40  C   UNK A   1      -7.460  15.595  68.772  1.00  0.00    -0.151 C  
BRANCH  40  41
HETATM   41  C   UNK A   1      -6.870  16.392  67.593  1.00  0.00    -0.161 C  
BRANCH  41  42
HETATM   42  C   UNK A   1      -7.623  17.649  67.135  1.00  0.00    -0.205 C  
HETATM   43  N   UNK A   1      -8.678  17.342  66.133  1.00  0.00    -0.490 NA 
HETATM   44  C   UNK A   1      -6.654  18.619  66.485  1.00  0.00    -0.193 C  
HETATM   45  O   UNK A   1      -5.875  19.388  67.021  1.00  0.00    -0.175 OA 
HETATM   46  O   UNK A   1      -6.715  18.468  65.143  1.00  0.00    -0.517 OA 
HETATM   47  H2  UNK A   1      -9.323  16.634  66.482  1.00  0.00     0.000 HD 
HETATM   48  H1  UNK A   1      -9.179  18.177  65.828  1.00  0.00     0.000 HD 
ENDBRANCH  41  42
ENDBRANCH  40  41
ENDBRANCH  39  40
ENDBRANCH  27  36
ENDBRANCH  26  27
ENDBRANCH  25  26
ENDBRANCH  24  25
ENDBRANCH  23  24
ENDBRANCH  14  23
ENDBRANCH  11  14
ENDBRANCH   9  10
ENDBRANCH   8   9
ENDBRANCH   4   8
TORSDOF 17
ENDMDL
MODEL      217
REMARK 921   NORMALIZED FREE ENERGY PREDICTED BY IDOCK:   -3.78 KCAL/MOL
REMARK 922        TOTAL FREE ENERGY PREDICTED BY IDOCK:  -10.51 KCAL/MOL
REMARK 923 INTER-LIGAND FREE ENERGY PREDICTED BY IDOCK:   -9.53 KCAL/MOL
REMARK 924 INTRA-LIGAND FREE ENERGY PREDICTED BY IDOCK:   -0.98 KCAL/MOL
REMARK 927      BINDING AFFINITY PREDICTED BY RF-SCORE:    0.00 PKD
ROOT
HETATM    1  N   UNK A   1     -13.480  12.768  72.096  1.00  0.00    -0.542 NA 
HETATM    2  H1  UNK A   1     -13.307  12.609  73.088  1.00  0.00     0.000 HD 
HETATM    3  H2  UNK A   1     -13.480  11.885  71.584  1.00  0.00     0.000 HD 
HETATM    4  C   UNK A   1     -12.537  13.737  71.476  1.00  0.00    -0.318 C  
HETATM    5  O   UNK A   1     -12.237  16.142  71.873  1.00  0.00    -0.472 OA 
HETATM    6  C   UNK A   1     -12.563  15.042  72.290  1.00  0.00    -0.340 C  
HETATM    7  O   UNK A   1     -13.000  14.816  73.555  1.00  0.00    -0.525 OA 
ENDROOT
BRANCH   4   8
HETATM    8  C   UNK A   1     -12.797  13.975  69.987  1.00  0.00     0.008 C  
BRANCH   8   9
HETATM    9  C   UNK A   1     -11.545  14.012  69.109  1.00  0.00    -0.356 C  
BRANCH   9  10
HETATM   10  C   UNK A   1     -11.150  12.607  68.720  1.00  0.00    -0.263 C  
HETATM   11  N   UNK A   1      -9.845  12.278  69.020  1.00  0.00    -0.406 N  
HETATM   12  O   UNK A   1     -11.922  11.843  68.147  1.00  0.00    -0.496 OA 
HETATM   13  H   UNK A   1      -9.227  12.968  69.444  1.00  0.00     0.000 HD 
BRANCH  11  14
HETATM   14  C   UNK A   1      -9.351  10.926  68.723  1.00  0.00    -0.185 C  
BRANCH  14  15
HETATM   15  C   UNK A   1      -9.087  10.819  67.207  1.00  0.00    -0.144 C  
ATOM     16  H   GLY A   2     -10.697   9.531  67.030  1.00  0.00     0.000 HD 
ATOM     17  N   GLY A   2      -9.969  10.022  66.511  1.00  0.00    -0.214 N  
HETATM   18  O   UNK A   1      -8.151  11.381  66.661  1.00  0.00    -0.157 OA 
BRANCH  17  19
ATOM     19  CA  GLY A   2      -9.907   9.852  65.070  1.00  0.00    -0.252 C  
ATOM     20  C   GLY A   2     -10.405  11.044  64.269  1.00  0.00    -0.364 C  
ATOM     21  O   GLY A   2     -11.325  11.829  64.907  1.00  0.00    -0.301 OA 
ATOM     22  OXT GLY A   2     -10.076  11.271  63.115  1.00  0.00    -0.343 OA 
ENDBRANCH  17  19
ENDBRANCH  14  15
BRANCH  14  23
HETATM   23  C   UNK A   1     -10.359   9.864  69.195  1.00  0.00    -0.209 C  
BRANCH  23  24
HETATM   24  S   UNK A   1     -10.202   9.329  70.928  1.00  0.00    -0.309 SA 
BRANCH  24  25
HETATM   25  S   UNK A   1     -11.651   7.885  71.061  1.00  0.00    -0.271 SA 
BRANCH  25  26
HETATM   26  C   UNK A   1     -11.134   6.698  69.770  1.00  0.00    -0.342 C  
BRANCH  26  27
HETATM   27  C   UNK A   1     -10.297   5.505  70.269  1.00  0.00    -0.279 C  
BRANCH  27  28
HETATM   28  C   UNK A   1      -9.445   4.910  69.109  1.00  0.00    -0.141 C  
ATOM     29  H   GLY A   2     -11.151   4.464  67.991  1.00  0.00     0.000 HD 
ATOM     30  N   GLY A   2     -10.132   4.468  67.996  1.00  0.00    -0.033 N  
HETATM   31  O   UNK A   1      -8.215   4.939  69.110  1.00  0.00    -0.078 OA 
BRANCH  30  32
ATOM     32  CA  GLY A   2      -9.388   4.007  66.830  1.00  0.00    -0.183 C  
ATOM     33  OXT GLY A   2      -9.009   4.650  64.504  1.00  0.00    -0.151 OA 
ATOM     34  C   GLY A   2      -9.179   4.990  65.669  1.00  0.00    -0.157 C  
ATOM     35  O   GLY A   2      -8.979   6.266  66.048  1.00  0.00    -0.156 OA 
ENDBRANCH  30  32
ENDBRANCH  27  28
BRANCH  27  36
HETATM   36  N   UNK A   1      -9.652   5.707  71.585  1.00  0.00    -0.153 N  
HETATM   37  H   UNK A   1      -9.070   6.533  71.727  1.00  0.00     0.000 HD 
HETATM   38  O   UNK A   1     -10.595   3.877  72.589  1.00  0.00    -0.164 OA 
HETATM   39  C   UNK A   1      -9.810   4.819  72.622  1.00  0.00    -0.149 C  
BRANCH  39  40
HETATM   40  C   UNK A   1      -9.050   5.136  73.902  1.00  0.00    -0.119 C  
BRANCH  40  41
HETATM   41  C   UNK A   1      -9.212   6.559  74.470  1.00  0.00    -0.228 C  
BRANCH  41  42
HETATM   42  C   UNK A   1      -7.960   7.446  74.535  1.00  0.00    -0.172 C  
HETATM   43  N   UNK A   1      -8.122   8.709  73.766  1.00  0.00    -0.383 NA 
HETATM   44  C   UNK A   1      -6.776   6.706  73.941  1.00  0.00    -0.073 C  
HETATM   45  O   UNK A   1      -6.085   5.844  74.454  1.00  0.00    -0.061 OA 
HETATM   46  O   UNK A   1      -6.611   7.099  72.658  1.00  0.00    -0.056 OA 
HETATM   47  H2  UNK A   1      -8.951   9.220  74.068  1.00  0.00     0.000 HD 
HETATM   48  H1  UNK A   1      -7.291   9.298  73.810  1.00  0.00     0.000 HD 
ENDBRANCH  41  42
ENDBRANCH  40  41
ENDBRANCH  39  40
ENDBRANCH  27  36
ENDBRANCH  26  27
ENDBRANCH  25  26
ENDBRANCH  24  25
ENDBRANCH  23  24
ENDBRANCH  14  23
ENDBRANCH  11  14
ENDBRANCH   9  10
ENDBRANCH   8   9
ENDBRANCH   4   8
TORSDOF 17
ENDMDL
MODEL      218
REMARK 921   NORMALIZED FREE ENERGY PREDICTED BY IDOCK:   -3.77 KCAL/MOL
REMARK 922        TOTAL FREE ENERGY PREDICTED BY IDOCK:  -10.49 KCAL/MOL
REMARK 923 INTER-LIGAND FREE ENERGY PREDICTED BY IDOCK:   -8.76 KCAL/MOL
REMARK 924 INTRA-LIGAND FREE ENERGY PREDICTED BY IDOCK:   -1.73 KCAL/MOL
REMARK 927      BINDING AFFINITY PREDICTED BY RF-SCORE:    0.00 PKD
ROOT
HETATM    1  N   UNK A   1      -9.607   6.519  70.664  1.00  0.00    -0.172 NA 
HETATM    2  H1  UNK A   1     -10.201   5.737  70.935  1.00  0.00     0.000 HD 
HETATM    3  H2  UNK A   1      -8.626   6.310  70.854  1.00  0.00     0.000 HD 
HETATM    4  C   UNK A   1     -10.001   7.810  71.289  1.00  0.00    -0.175 C  
HETATM    5  O   UNK A   1     -12.027   9.167  70.996  1.00  0.00    -0.287 OA 
HETATM    6  C   UNK A   1     -11.486   8.073  70.987  1.00  0.00    -0.279 C  
HETATM    7  O   UNK A   1     -12.135   6.915  70.704  1.00  0.00    -0.371 OA 
ENDROOT
BRANCH   4   8
HETATM    8  C   UNK A   1      -9.108   8.985  70.881  1.00  0.00    -0.309 C  
BRANCH   8   9
HETATM    9  C   UNK A   1      -7.672   8.917  71.404  1.00  0.00    -0.126 C  
BRANCH   9  10
HETATM   10  C   UNK A   1      -6.852  10.029  70.793  1.00  0.00     0.027 C  
HETATM   11  N   UNK A   1      -7.477  10.697  69.761  1.00  0.00    -0.314 N  
HETATM   12  O   UNK A   1      -5.709  10.282  71.163  1.00  0.00    -0.149 OA 
HETATM   13  H   UNK A   1      -8.406  10.411  69.453  1.00  0.00     0.000 HD 
BRANCH  11  14
HETATM   14  C   UNK A   1      -6.797  11.824  69.109  1.00  0.00    -0.106 C  
BRANCH  14  15
HETATM   15  C   UNK A   1      -7.854  12.702  68.409  1.00  0.00    -0.136 C  
ATOM     16  H   GLY A   2      -9.350  11.533  69.231  1.00  0.00     0.000 HD 
ATOM     17  N   GLY A   2      -9.164  12.353  68.655  1.00  0.00    -0.061 N  
HETATM   18  O   UNK A   1      -7.557  13.630  67.673  1.00  0.00    -0.149 OA 
BRANCH  17  19
ATOM     19  CA  GLY A   2     -10.290  13.102  68.126  1.00  0.00    -0.244 C  
ATOM     20  C   GLY A   2     -11.527  13.093  69.009  1.00  0.00    -0.296 C  
ATOM     21  O   GLY A   2     -11.650  12.004  69.825  1.00  0.00    -0.299 OA 
ATOM     22  OXT GLY A   2     -12.399  13.949  68.966  1.00  0.00    -0.308 OA 
ENDBRANCH  17  19
ENDBRANCH  14  15
BRANCH  14  23
HETATM   23  C   UNK A   1      -5.739  11.317  68.113  1.00  0.00    -0.045 C  
BRANCH  23  24
HETATM   24  S   UNK A   1      -6.261  11.227  66.371  1.00  0.00    -0.057 SA 
BRANCH  24  25
HETATM   25  S   UNK A   1      -6.946   9.301  66.231  1.00  0.00    -0.087 SA 
BRANCH  25  26
HETATM   26  C   UNK A   1      -8.596   9.420  67.007  1.00  0.00    -0.128 C  
BRANCH  26  27
HETATM   27  C   UNK A   1      -9.779   9.021  66.106  1.00  0.00    -0.283 C  
BRANCH  27  28
HETATM   28  C   UNK A   1      -9.908  10.002  64.903  1.00  0.00    -0.281 C  
ATOM     29  H   GLY A   2     -11.285  11.190  65.930  1.00  0.00     0.000 HD 
ATOM     30  N   GLY A   2     -10.732  11.095  65.078  1.00  0.00    -0.267 N  
HETATM   31  O   UNK A   1      -9.222   9.896  63.888  1.00  0.00    -0.253 OA 
BRANCH  30  32
ATOM     32  CA  GLY A   2     -10.807  12.112  64.036  1.00  0.00    -0.383 C  
ATOM     33  OXT GLY A   2     -12.422  13.687  63.099  1.00  0.00    -0.786 OA 
ATOM     34  C   GLY A   2     -11.970  13.114  64.083  1.00  0.00    -0.436 C  
ATOM     35  O   GLY A   2     -12.331  13.492  65.324  1.00  0.00    -0.413 OA 
ENDBRANCH  30  32
ENDBRANCH  27  28
BRANCH  27  36
HETATM   36  N   UNK A   1      -9.899   7.569  65.846  1.00  0.00    -0.280 N  
HETATM   37  H   UNK A   1      -9.627   7.207  64.932  1.00  0.00     0.000 HD 
HETATM   38  O   UNK A   1     -10.583   7.011  67.960  1.00  0.00    -0.195 OA 
HETATM   39  C   UNK A   1     -10.365   6.691  66.796  1.00  0.00    -0.210 C  
BRANCH  39  40
HETATM   40  C   UNK A   1     -10.473   5.234  66.371  1.00  0.00    -0.347 C  
BRANCH  40  41
HETATM   41  C   UNK A   1      -9.173   4.547  65.911  1.00  0.00    -0.143 C  
BRANCH  41  42
HETATM   42  C   UNK A   1      -8.745   3.268  66.644  1.00  0.00    -0.129 C  
HETATM   43  N   UNK A   1      -7.734   3.535  67.702  1.00  0.00    -0.076 NA 
HETATM   44  C   UNK A   1      -8.122   2.297  65.659  1.00  0.00    -0.084 C  
HETATM   45  O   UNK A   1      -8.678   1.553  64.871  1.00  0.00    -0.093 OA 
HETATM   46  O   UNK A   1      -6.776   2.414  65.720  1.00  0.00    -0.034 OA 
HETATM   47  H2  UNK A   1      -8.064   4.242  68.357  1.00  0.00     0.000 HD 
HETATM   48  H1  UNK A   1      -7.449   2.685  68.189  1.00  0.00     0.000 HD 
ENDBRANCH  41  42
ENDBRANCH  40  41
ENDBRANCH  39  40
ENDBRANCH  27  36
ENDBRANCH  26  27
ENDBRANCH  25  26
ENDBRANCH  24  25
ENDBRANCH  23  24
ENDBRANCH  14  23
ENDBRANCH  11  14
ENDBRANCH   9  10
ENDBRANCH   8   9
ENDBRANCH   4   8
TORSDOF 17
ENDMDL
MODEL      219
REMARK 921   NORMALIZED FREE ENERGY PREDICTED BY IDOCK:   -3.77 KCAL/MOL
REMARK 922        TOTAL FREE ENERGY PREDICTED BY IDOCK:  -10.48 KCAL/MOL
REMARK 923 INTER-LIGAND FREE ENERGY PREDICTED BY IDOCK:   -9.72 KCAL/MOL
REMARK 924 INTRA-LIGAND FREE ENERGY PREDICTED BY IDOCK:   -0.76 KCAL/MOL
REMARK 927      BINDING AFFINITY PREDICTED BY RF-SCORE:    0.00 PKD
ROOT
HETATM    1  N   UNK A   1     -10.283   5.051  68.151  1.00  0.00    -0.114 NA 
HETATM    2  H1  UNK A   1     -10.764   4.154  68.096  1.00  0.00     0.000 HD 
HETATM    3  H2  UNK A   1     -10.723   5.654  68.847  1.00  0.00     0.000 HD 
HETATM    4  C   UNK A   1     -10.176   5.750  66.842  1.00  0.00    -0.218 C  
HETATM    5  O   UNK A   1      -8.938   5.142  64.810  1.00  0.00    -0.141 OA 
HETATM    6  C   UNK A   1      -9.521   4.799  65.826  1.00  0.00    -0.167 C  
HETATM    7  O   UNK A   1      -9.677   3.504  66.204  1.00  0.00    -0.140 OA 
ENDROOT
BRANCH   4   8
HETATM    8  C   UNK A   1      -9.454   7.097  66.926  1.00  0.00    -0.200 C  
BRANCH   8   9
HETATM    9  C   UNK A   1      -8.065   7.048  67.563  1.00  0.00    -0.113 C  
BRANCH   9  10
HETATM   10  C   UNK A   1      -8.065   7.835  68.853  1.00  0.00    -0.126 C  
HETATM   11  N   UNK A   1      -6.918   7.693  69.606  1.00  0.00    -0.051 N  
HETATM   12  O   UNK A   1      -9.027   8.508  69.212  1.00  0.00    -0.144 OA 
HETATM   13  H   UNK A   1      -6.171   7.076  69.291  1.00  0.00     0.000 HD 
BRANCH  11  14
HETATM   14  C   UNK A   1      -6.782   8.437  70.866  1.00  0.00    -0.042 C  
BRANCH  14  15
HETATM   15  C   UNK A   1      -7.852   7.934  71.855  1.00  0.00    -0.105 C  
ATOM     16  H   GLY A   2      -7.471   5.989  71.260  1.00  0.00     0.000 HD 
ATOM     17  N   GLY A   2      -8.018   6.567  71.897  1.00  0.00    -0.103 N  
HETATM   18  O   UNK A   1      -8.523   8.690  72.541  1.00  0.00    -0.364 OA 
BRANCH  17  19
ATOM     19  CA  GLY A   2      -8.940   5.914  72.811  1.00  0.00    -0.123 C  
ATOM     20  C   GLY A   2     -10.173   5.321  72.150  1.00  0.00    -0.199 C  
ATOM     21  O   GLY A   2     -10.552   5.923  70.982  1.00  0.00    -0.228 OA 
ATOM     22  OXT GLY A   2     -10.837   4.418  72.637  1.00  0.00    -0.172 OA 
ENDBRANCH  17  19
ENDBRANCH  14  15
BRANCH  14  23
HETATM   23  C   UNK A   1      -6.909   9.950  70.620  1.00  0.00    -0.080 C  
BRANCH  23  24
HETATM   24  S   UNK A   1      -5.641  10.694  69.547  1.00  0.00    -0.040 SA 
BRANCH  24  25
HETATM   25  S   UNK A   1      -6.627  12.324  68.790  1.00  0.00    -0.090 SA 
BRANCH  25  26
HETATM   26  C   UNK A   1      -8.111  11.565  68.040  1.00  0.00    -0.136 C  
BRANCH  26  27
HETATM   27  C   UNK A   1      -9.341  12.486  67.934  1.00  0.00    -0.200 C  
BRANCH  27  28
HETATM   28  C   UNK A   1     -10.126  12.203  66.619  1.00  0.00    -0.199 C  
ATOM     29  H   GLY A   2      -9.890  14.174  65.971  1.00  0.00     0.000 HD 
ATOM     30  N   GLY A   2     -10.239  13.248  65.724  1.00  0.00    -0.289 N  
HETATM   31  O   UNK A   1     -10.523  11.079  66.315  1.00  0.00    -0.248 OA 
BRANCH  30  32
ATOM     32  CA  GLY A   2     -10.859  13.019  64.425  1.00  0.00    -0.388 C  
ATOM     33  OXT GLY A   2     -13.003  12.304  63.499  1.00  0.00    -0.776 OA 
ATOM     34  C   GLY A   2     -12.390  12.923  64.360  1.00  0.00    -0.398 C  
ATOM     35  O   GLY A   2     -13.037  13.752  65.201  1.00  0.00    -0.762 OA 
ENDBRANCH  30  32
ENDBRANCH  27  28
BRANCH  27  36
HETATM   36  N   UNK A   1     -10.106  12.647  69.190  1.00  0.00    -0.379 N  
HETATM   37  H   UNK A   1      -9.599  12.694  70.073  1.00  0.00     0.000 HD 
HETATM   38  O   UNK A   1     -12.159  12.827  68.188  1.00  0.00    -0.288 OA 
HETATM   39  C   UNK A   1     -11.478  12.735  69.205  1.00  0.00    -0.306 C  
BRANCH  39  40
HETATM   40  C   UNK A   1     -12.130  12.855  70.574  1.00  0.00    -0.364 C  
BRANCH  40  41
HETATM   41  C   UNK A   1     -13.212  13.939  70.735  1.00  0.00    -0.130 C  
BRANCH  41  42
HETATM   42  C   UNK A   1     -12.745  15.392  70.902  1.00  0.00    -0.461 C  
HETATM   43  N   UNK A   1     -12.548  16.076  69.596  1.00  0.00    -0.516 NA 
HETATM   44  C   UNK A   1     -11.415  15.422  71.631  1.00  0.00    -0.423 C  
HETATM   45  O   UNK A   1     -11.200  15.309  72.825  1.00  0.00    -0.282 OA 
HETATM   46  O   UNK A   1     -10.418  15.530  70.723  1.00  0.00    -0.213 OA 
HETATM   47  H2  UNK A   1     -13.389  16.024  69.022  1.00  0.00     0.000 HD 
HETATM   48  H1  UNK A   1     -12.237  17.041  69.707  1.00  0.00     0.000 HD 
ENDBRANCH  41  42
ENDBRANCH  40  41
ENDBRANCH  39  40
ENDBRANCH  27  36
ENDBRANCH  26  27
ENDBRANCH  25  26
ENDBRANCH  24  25
ENDBRANCH  23  24
ENDBRANCH  14  23
ENDBRANCH  11  14
ENDBRANCH   9  10
ENDBRANCH   8   9
ENDBRANCH   4   8
TORSDOF 17
ENDMDL
MODEL      220
REMARK 921   NORMALIZED FREE ENERGY PREDICTED BY IDOCK:   -3.76 KCAL/MOL
REMARK 922        TOTAL FREE ENERGY PREDICTED BY IDOCK:  -10.47 KCAL/MOL
REMARK 923 INTER-LIGAND FREE ENERGY PREDICTED BY IDOCK:   -8.92 KCAL/MOL
REMARK 924 INTRA-LIGAND FREE ENERGY PREDICTED BY IDOCK:   -1.55 KCAL/MOL
REMARK 927      BINDING AFFINITY PREDICTED BY RF-SCORE:    0.00 PKD
ROOT
HETATM    1  N   UNK A   1     -12.746  15.446  63.534  1.00  0.00    -0.361 NA 
HETATM    2  H1  UNK A   1     -12.978  16.429  63.675  1.00  0.00     0.000 HD 
HETATM    3  H2  UNK A   1     -13.581  14.909  63.296  1.00  0.00     0.000 HD 
HETATM    4  C   UNK A   1     -12.037  14.831  64.688  1.00  0.00    -0.427 C  
HETATM    5  O   UNK A   1      -9.807  15.289  65.612  1.00  0.00    -0.333 OA 
HETATM    6  C   UNK A   1     -10.797  15.682  65.016  1.00  0.00    -0.450 C  
HETATM    7  O   UNK A   1     -10.944  16.950  64.555  1.00  0.00    -0.989 OA 
ENDROOT
BRANCH   4   8
HETATM    8  C   UNK A   1     -11.689  13.356  64.477  1.00  0.00    -0.422 C  
BRANCH   8   9
HETATM    9  C   UNK A   1     -12.241  12.403  65.539  1.00  0.00    -0.356 C  
BRANCH   9  10
HETATM   10  C   UNK A   1     -11.582  12.683  66.869  1.00  0.00    -0.373 C  
HETATM   11  N   UNK A   1     -10.434  11.953  67.100  1.00  0.00    -0.217 N  
HETATM   12  O   UNK A   1     -12.059  13.464  67.687  1.00  0.00    -0.342 OA 
HETATM   13  H   UNK A   1     -10.111  11.274  66.412  1.00  0.00     0.000 HD 
BRANCH  11  14
HETATM   14  C   UNK A   1      -9.681  12.162  68.344  1.00  0.00    -0.193 C  
BRANCH  14  15
HETATM   15  C   UNK A   1      -8.283  11.529  68.187  1.00  0.00    -0.149 C  
ATOM     16  H   GLY A   2      -8.550  10.525  69.977  1.00  0.00     0.000 HD 
ATOM     17  N   GLY A   2      -7.914  10.661  69.191  1.00  0.00    -0.139 N  
HETATM   18  O   UNK A   1      -7.543  11.791  67.252  1.00  0.00    -0.134 OA 
BRANCH  17  19
ATOM     19  CA  GLY A   2      -6.659   9.931  69.178  1.00  0.00    -0.052 C  
ATOM     20  C   GLY A   2      -6.326   9.219  70.479  1.00  0.00    -0.062 C  
ATOM     21  O   GLY A   2      -6.876   9.774  71.601  1.00  0.00    -0.284 OA 
ATOM     22  OXT GLY A   2      -5.572   8.261  70.555  1.00  0.00    -0.028 OA 
ENDBRANCH  17  19
ENDBRANCH  14  15
BRANCH  14  23
HETATM   23  C   UNK A   1     -10.437  11.564  69.544  1.00  0.00     0.154 C  
BRANCH  23  24
HETATM   24  S   UNK A   1     -11.376  10.040  69.216  1.00  0.00    -0.056 SA 
BRANCH  24  25
HETATM   25  S   UNK A   1     -11.556   9.239  71.095  1.00  0.00    -0.355 SA 
BRANCH  25  26
HETATM   26  C   UNK A   1     -10.083   8.161  71.198  1.00  0.00    -0.184 C  
BRANCH  26  27
HETATM   27  C   UNK A   1     -10.287   6.717  70.702  1.00  0.00    -0.201 C  
BRANCH  27  28
HETATM   28  C   UNK A   1     -10.916   5.836  71.821  1.00  0.00    -0.256 C  
ATOM     29  H   GLY A   2      -9.095   4.879  72.188  1.00  0.00     0.000 HD 
ATOM     30  N   GLY A   2     -10.065   4.976  72.488  1.00  0.00    -0.177 N  
HETATM   31  O   UNK A   1     -12.079   5.973  72.196  1.00  0.00    -0.304 OA 
BRANCH  30  32
ATOM     32  CA  GLY A   2     -10.564   4.209  73.622  1.00  0.00    -0.216 C  
ATOM     33  OXT GLY A   2     -11.898   2.211  74.063  1.00  0.00     0.003 OA 
ATOM     34  C   GLY A   2     -11.066   2.781  73.368  1.00  0.00    -0.181 C  
ATOM     35  O   GLY A   2     -10.367   2.102  72.438  1.00  0.00    -0.155 OA 
ENDBRANCH  30  32
ENDBRANCH  27  28
BRANCH  27  36
HETATM   36  N   UNK A   1     -10.829   6.604  69.330  1.00  0.00    -0.265 N  
HETATM   37  H   UNK A   1     -11.587   7.224  69.045  1.00  0.00     0.000 HD 
HETATM   38  O   UNK A   1      -9.349   5.001  68.628  1.00  0.00    -0.117 OA 
HETATM   39  C   UNK A   1     -10.344   5.689  68.424  1.00  0.00    -0.196 C  
BRANCH  39  40
HETATM   40  C   UNK A   1     -11.028   5.659  67.066  1.00  0.00    -0.135 C  
BRANCH  40  41
HETATM   41  C   UNK A   1     -10.124   5.432  65.839  1.00  0.00    -0.044 C  
BRANCH  41  42
HETATM   42  C   UNK A   1     -10.021   4.004  65.285  1.00  0.00    -0.189 C  
HETATM   43  N   UNK A   1      -9.485   3.045  66.288  1.00  0.00    -0.377 NA 
HETATM   44  C   UNK A   1      -9.079   3.982  64.095  1.00  0.00    -0.142 C  
HETATM   45  O   UNK A   1      -9.300   4.318  62.945  1.00  0.00    -0.131 OA 
HETATM   46  O   UNK A   1      -7.856   3.580  64.510  1.00  0.00    -0.083 OA 
HETATM   47  H2  UNK A   1     -10.034   3.068  67.148  1.00  0.00     0.000 HD 
HETATM   48  H1  UNK A   1      -9.417   2.097  65.920  1.00  0.00     0.000 HD 
ENDBRANCH  41  42
ENDBRANCH  40  41
ENDBRANCH  39  40
ENDBRANCH  27  36
ENDBRANCH  26  27
ENDBRANCH  25  26
ENDBRANCH  24  25
ENDBRANCH  23  24
ENDBRANCH  14  23
ENDBRANCH  11  14
ENDBRANCH   9  10
ENDBRANCH   8   9
ENDBRANCH   4   8
TORSDOF 17
ENDMDL
MODEL      221
REMARK 921   NORMALIZED FREE ENERGY PREDICTED BY IDOCK:   -3.74 KCAL/MOL
REMARK 922        TOTAL FREE ENERGY PREDICTED BY IDOCK:  -10.43 KCAL/MOL
REMARK 923 INTER-LIGAND FREE ENERGY PREDICTED BY IDOCK:   -9.27 KCAL/MOL
REMARK 924 INTRA-LIGAND FREE ENERGY PREDICTED BY IDOCK:   -1.16 KCAL/MOL
REMARK 927      BINDING AFFINITY PREDICTED BY RF-SCORE:    0.00 PKD
ROOT
HETATM    1  N   UNK A   1      -7.562   9.169  71.636  1.00  0.00    -0.340 NA 
HETATM    2  H1  UNK A   1      -8.272   9.671  72.168  1.00  0.00     0.000 HD 
HETATM    3  H2  UNK A   1      -7.802   9.146  70.645  1.00  0.00     0.000 HD 
HETATM    4  C   UNK A   1      -7.298   7.796  72.145  1.00  0.00    -0.077 C  
HETATM    5  O   UNK A   1      -6.324   7.047  74.272  1.00  0.00    -0.077 OA 
HETATM    6  C   UNK A   1      -6.955   7.881  73.642  1.00  0.00    -0.109 C  
HETATM    7  O   UNK A   1      -7.451   9.020  74.189  1.00  0.00    -0.397 OA 
ENDROOT
BRANCH   4   8
HETATM    8  C   UNK A   1      -6.232   7.043  71.346  1.00  0.00    -0.037 C  
BRANCH   8   9
HETATM    9  C   UNK A   1      -6.611   5.616  70.946  1.00  0.00    -0.044 C  
BRANCH   9  10
HETATM   10  C   UNK A   1      -7.656   5.650  69.855  1.00  0.00    -0.075 C  
HETATM   11  N   UNK A   1      -7.394   6.551  68.845  1.00  0.00    -0.091 N  
HETATM   12  O   UNK A   1      -8.670   4.960  69.895  1.00  0.00    -0.091 OA 
HETATM   13  H   UNK A   1      -6.565   7.143  68.887  1.00  0.00     0.000 HD 
BRANCH  11  14
HETATM   14  C   UNK A   1      -8.317   6.654  67.706  1.00  0.00    -0.122 C  
BRANCH  14  15
HETATM   15  C   UNK A   1      -7.498   6.602  66.400  1.00  0.00    -0.085 C  
ATOM     16  H   GLY A   2      -8.091   4.639  66.122  1.00  0.00     0.000 HD 
ATOM     17  N   GLY A   2      -7.560   5.408  65.715  1.00  0.00    -0.082 N  
HETATM   18  O   UNK A   1      -6.826   7.542  66.007  1.00  0.00    -0.055 OA 
BRANCH  17  19
ATOM     19  CA  GLY A   2      -6.899   5.199  64.439  1.00  0.00    -0.048 C  
ATOM     20  C   GLY A   2      -5.753   4.202  64.474  1.00  0.00    -0.014 C  
ATOM     21  O   GLY A   2      -5.132   4.073  65.685  1.00  0.00    -0.008 OA 
ATOM     22  OXT GLY A   2      -5.350   3.596  63.492  1.00  0.00    -0.008 OA 
ENDBRANCH  17  19
ENDBRANCH  14  15
BRANCH  14  23
HETATM   23  C   UNK A   1      -9.150   7.943  67.797  1.00  0.00    -0.134 C  
BRANCH  23  24
HETATM   24  S   UNK A   1     -10.020   8.440  66.276  1.00  0.00    -0.023 SA 
BRANCH  24  25
HETATM   25  S   UNK A   1      -9.524  10.424  66.132  1.00  0.00    -0.191 SA 
BRANCH  25  26
HETATM   26  C   UNK A   1      -9.466  10.936  67.886  1.00  0.00    -0.159 C  
BRANCH  26  27
HETATM   27  C   UNK A   1     -10.161  12.273  68.205  1.00  0.00    -0.218 C  
BRANCH  27  28
HETATM   28  C   UNK A   1     -10.849  12.853  66.933  1.00  0.00    -0.257 C  
ATOM     29  H   GLY A   2      -9.141  13.941  66.421  1.00  0.00     0.000 HD 
ATOM     30  N   GLY A   2     -10.082  13.674  66.131  1.00  0.00    -0.299 N  
HETATM   31  O   UNK A   1     -11.973  12.508  66.575  1.00  0.00    -0.522 OA 
BRANCH  30  32
ATOM     32  CA  GLY A   2     -10.626  14.155  64.868  1.00  0.00    -0.430 C  
ATOM     33  OXT GLY A   2     -11.836  16.086  63.989  1.00  0.00    -0.762 OA 
ATOM     34  C   GLY A   2     -10.988  15.642  64.753  1.00  0.00    -0.400 C  
ATOM     35  O   GLY A   2     -10.151  16.471  65.407  1.00  0.00    -0.570 OA 
ENDBRANCH  30  32
ENDBRANCH  27  28
BRANCH  27  36
HETATM   36  N   UNK A   1     -10.910  12.293  69.481  1.00  0.00    -0.452 N  
HETATM   37  H   UNK A   1     -10.676  12.999  70.179  1.00  0.00     0.000 HD 
HETATM   38  O   UNK A   1     -12.352  10.601  68.930  1.00  0.00    -0.358 OA 
HETATM   39  C   UNK A   1     -11.911  11.391  69.757  1.00  0.00    -0.364 C  
BRANCH  39  40
HETATM   40  C   UNK A   1     -12.562  11.507  71.126  1.00  0.00    -0.463 C  
BRANCH  40  41
HETATM   41  C   UNK A   1     -12.596  10.231  71.989  1.00  0.00    -0.315 C  
BRANCH  41  42
HETATM   42  C   UNK A   1     -13.163   8.954  71.351  1.00  0.00    -0.262 C  
HETATM   43  N   UNK A   1     -14.275   8.370  72.147  1.00  0.00    -0.531 NA 
HETATM   44  C   UNK A   1     -12.074   7.901  71.257  1.00  0.00    -0.296 C  
HETATM   45  O   UNK A   1     -11.177   7.807  70.439  1.00  0.00    -0.266 OA 
HETATM   46  O   UNK A   1     -12.188   7.058  72.308  1.00  0.00    -0.240 OA 
HETATM   47  H2  UNK A   1     -15.010   9.057  72.312  1.00  0.00     0.000 HD 
HETATM   48  H1  UNK A   1     -14.651   7.522  71.723  1.00  0.00     0.000 HD 
ENDBRANCH  41  42
ENDBRANCH  40  41
ENDBRANCH  39  40
ENDBRANCH  27  36
ENDBRANCH  26  27
ENDBRANCH  25  26
ENDBRANCH  24  25
ENDBRANCH  23  24
ENDBRANCH  14  23
ENDBRANCH  11  14
ENDBRANCH   9  10
ENDBRANCH   8   9
ENDBRANCH   4   8
TORSDOF 17
ENDMDL
MODEL      222
REMARK 921   NORMALIZED FREE ENERGY PREDICTED BY IDOCK:   -3.73 KCAL/MOL
REMARK 922        TOTAL FREE ENERGY PREDICTED BY IDOCK:  -10.41 KCAL/MOL
REMARK 923 INTER-LIGAND FREE ENERGY PREDICTED BY IDOCK:   -8.85 KCAL/MOL
REMARK 924 INTRA-LIGAND FREE ENERGY PREDICTED BY IDOCK:   -1.56 KCAL/MOL
REMARK 927      BINDING AFFINITY PREDICTED BY RF-SCORE:    0.00 PKD
ROOT
HETATM    1  N   UNK A   1     -10.652   6.576  67.983  1.00  0.00    -0.222 NA 
HETATM    2  H1  UNK A   1     -11.397   5.882  68.020  1.00  0.00     0.000 HD 
HETATM    3  H2  UNK A   1     -10.933   7.433  68.460  1.00  0.00     0.000 HD 
HETATM    4  C   UNK A   1     -10.182   6.872  66.603  1.00  0.00    -0.145 C  
HETATM    5  O   UNK A   1      -9.019   5.445  64.977  1.00  0.00    -0.131 OA 
HETATM    6  C   UNK A   1      -9.784   5.551  65.922  1.00  0.00    -0.030 C  
HETATM    7  O   UNK A   1     -10.403   4.496  66.511  1.00  0.00    -0.238 OA 
ENDROOT
BRANCH   4   8
HETATM    8  C   UNK A   1      -9.063   7.915  66.548  1.00  0.00    -0.209 C  
BRANCH   8   9
HETATM    9  C   UNK A   1      -7.812   7.562  67.353  1.00  0.00    -0.118 C  
BRANCH   9  10
HETATM   10  C   UNK A   1      -7.825   8.303  68.670  1.00  0.00    -0.120 C  
HETATM   11  N   UNK A   1      -6.700   8.108  69.444  1.00  0.00    -0.042 N  
HETATM   12  O   UNK A   1      -8.779   8.985  69.030  1.00  0.00    -0.134 OA 
HETATM   13  H   UNK A   1      -5.959   7.485  69.124  1.00  0.00     0.000 HD 
BRANCH  11  14
HETATM   14  C   UNK A   1      -6.577   8.803  70.732  1.00  0.00    -0.050 C  
BRANCH  14  15
HETATM   15  C   UNK A   1      -7.636   8.240  71.701  1.00  0.00    -0.096 C  
ATOM     16  H   GLY A   2      -7.065   6.318  71.187  1.00  0.00     0.000 HD 
ATOM     17  N   GLY A   2      -7.684   6.865  71.785  1.00  0.00    -0.094 N  
HETATM   18  O   UNK A   1      -8.394   8.955  72.337  1.00  0.00    -0.386 OA 
BRANCH  17  19
ATOM     19  CA  GLY A   2      -8.579   6.164  72.688  1.00  0.00    -0.124 C  
ATOM     20  C   GLY A   2      -9.819   5.583  72.027  1.00  0.00    -0.166 C  
ATOM     21  O   GLY A   2     -10.228   6.227  70.894  1.00  0.00    -0.186 OA 
ATOM     22  OXT GLY A   2     -10.461   4.651  72.489  1.00  0.00    -0.193 OA 
ENDBRANCH  17  19
ENDBRANCH  14  15
BRANCH  14  23
HETATM   23  C   UNK A   1      -6.735  10.322  70.547  1.00  0.00    -0.068 C  
BRANCH  23  24
HETATM   24  S   UNK A   1      -5.386  11.163  69.659  1.00  0.00    -0.045 SA 
BRANCH  24  25
HETATM   25  S   UNK A   1      -5.851  13.138  69.951  1.00  0.00    -0.141 SA 
BRANCH  25  26
HETATM   26  C   UNK A   1      -6.447  13.644  68.299  1.00  0.00    -0.109 C  
BRANCH  26  27
HETATM   27  C   UNK A   1      -7.823  14.333  68.276  1.00  0.00    -0.141 C  
BRANCH  27  28
HETATM   28  C   UNK A   1      -7.680  15.833  67.878  1.00  0.00    -0.133 C  
ATOM     29  H   GLY A   2      -8.365  16.467  69.747  1.00  0.00     0.000 HD 
ATOM     30  N   GLY A   2      -7.985  16.766  68.849  1.00  0.00    -0.249 N  
HETATM   31  O   UNK A   1      -7.199  16.188  66.803  1.00  0.00    -0.214 OA 
BRANCH  30  32
ATOM     32  CA  GLY A   2      -7.761  18.181  68.580  1.00  0.00    -0.297 C  
ATOM     33  OXT GLY A   2      -8.905  20.071  67.537  1.00  0.00    -0.326 OA 
ATOM     34  C   GLY A   2      -8.972  19.049  68.211  1.00  0.00    -0.332 C  
ATOM     35  O   GLY A   2     -10.107  18.729  68.861  1.00  0.00    -0.390 OA 
ENDBRANCH  30  32
ENDBRANCH  27  28
BRANCH  27  36
HETATM   36  N   UNK A   1      -8.904  13.540  67.652  1.00  0.00    -0.189 N  
HETATM   37  H   UNK A   1      -8.687  12.962  66.840  1.00  0.00     0.000 HD 
HETATM   38  O   UNK A   1     -10.519  14.109  69.175  1.00  0.00    -0.217 OA 
HETATM   39  C   UNK A   1     -10.194  13.556  68.129  1.00  0.00    -0.249 C  
BRANCH  39  40
HETATM   40  C   UNK A   1     -11.208  12.724  67.358  1.00  0.00    -0.337 C  
BRANCH  40  41
HETATM   41  C   UNK A   1     -12.404  13.478  66.747  1.00  0.00    -0.326 C  
BRANCH  41  42
HETATM   42  C   UNK A   1     -12.427  13.662  65.223  1.00  0.00    -0.479 C  
HETATM   43  N   UNK A   1     -13.081  12.522  64.526  1.00  0.00    -0.839 NA 
HETATM   44  C   UNK A   1     -11.007  13.756  64.696  1.00  0.00    -0.400 C  
HETATM   45  O   UNK A   1     -10.253  14.712  64.712  1.00  0.00    -0.367 OA 
HETATM   46  O   UNK A   1     -10.628  12.542  64.236  1.00  0.00    -0.320 OA 
HETATM   47  H2  UNK A   1     -14.019  12.356  64.891  1.00  0.00     0.000 HD 
HETATM   48  H1  UNK A   1     -13.096  12.644  63.513  1.00  0.00     0.000 HD 
ENDBRANCH  41  42
ENDBRANCH  40  41
ENDBRANCH  39  40
ENDBRANCH  27  36
ENDBRANCH  26  27
ENDBRANCH  25  26
ENDBRANCH  24  25
ENDBRANCH  23  24
ENDBRANCH  14  23
ENDBRANCH  11  14
ENDBRANCH   9  10
ENDBRANCH   8   9
ENDBRANCH   4   8
TORSDOF 17
ENDMDL
MODEL      223
REMARK 921   NORMALIZED FREE ENERGY PREDICTED BY IDOCK:   -3.73 KCAL/MOL
REMARK 922        TOTAL FREE ENERGY PREDICTED BY IDOCK:  -10.41 KCAL/MOL
REMARK 923 INTER-LIGAND FREE ENERGY PREDICTED BY IDOCK:   -8.42 KCAL/MOL
REMARK 924 INTRA-LIGAND FREE ENERGY PREDICTED BY IDOCK:   -1.98 KCAL/MOL
REMARK 927      BINDING AFFINITY PREDICTED BY RF-SCORE:    0.00 PKD
ROOT
HETATM    1  N   UNK A   1     -11.119  18.886  67.851  1.00  0.00    -0.217 NA 
HETATM    2  H1  UNK A   1     -10.961  19.699  68.446  1.00  0.00     0.000 HD 
HETATM    3  H2  UNK A   1     -11.664  18.178  68.343  1.00  0.00     0.000 HD 
HETATM    4  C   UNK A   1      -9.867  18.298  67.303  1.00  0.00    -0.321 C  
HETATM    5  O   UNK A   1      -8.236  19.223  65.716  1.00  0.00    -0.445 OA 
HETATM    6  C   UNK A   1      -9.075  19.404  66.585  1.00  0.00    -0.346 C  
HETATM    7  O   UNK A   1      -9.428  20.631  67.045  1.00  0.00    -0.389 OA 
ENDROOT
BRANCH   4   8
HETATM    8  C   UNK A   1     -10.103  17.079  66.410  1.00  0.00    -0.325 C  
BRANCH   8   9
HETATM    9  C   UNK A   1     -10.909  15.951  67.056  1.00  0.00    -0.252 C  
BRANCH   9  10
HETATM   10  C   UNK A   1     -10.030  15.172  68.007  1.00  0.00    -0.221 C  
HETATM   11  N   UNK A   1      -8.904  14.628  67.425  1.00  0.00    -0.185 N  
HETATM   12  O   UNK A   1     -10.324  15.008  69.187  1.00  0.00    -0.234 OA 
HETATM   13  H   UNK A   1      -8.735  14.746  66.427  1.00  0.00     0.000 HD 
BRANCH  11  14
HETATM   14  C   UNK A   1      -7.950  13.879  68.253  1.00  0.00    -0.148 C  
BRANCH  14  15
HETATM   15  C   UNK A   1      -6.688  14.741  68.457  1.00  0.00    -0.097 C  
ATOM     16  H   GLY A   2      -7.514  15.518  70.188  1.00  0.00     0.000 HD 
ATOM     17  N   GLY A   2      -6.687  15.523  69.591  1.00  0.00    -0.177 N  
HETATM   18  O   UNK A   1      -5.761  14.750  67.662  1.00  0.00    -0.299 OA 
BRANCH  17  19
ATOM     19  CA  GLY A   2      -5.559  16.354  69.972  1.00  0.00    -0.191 C  
ATOM     20  C   GLY A   2      -5.830  17.849  69.932  1.00  0.00    -0.237 C  
ATOM     21  O   GLY A   2      -6.804  18.239  69.056  1.00  0.00    -0.254 OA 
ATOM     22  OXT GLY A   2      -5.195  18.672  70.574  1.00  0.00    -0.211 OA 
ENDBRANCH  17  19
ENDBRANCH  14  15
BRANCH  14  23
HETATM   23  C   UNK A   1      -7.609  12.528  67.601  1.00  0.00    -0.145 C  
BRANCH  23  24
HETATM   24  S   UNK A   1      -8.995  11.651  66.809  1.00  0.00    -0.192 SA 
BRANCH  24  25
HETATM   25  S   UNK A   1      -9.955  10.828  68.423  1.00  0.00    -0.170 SA 
BRANCH  25  26
HETATM   26  C   UNK A   1     -10.018   9.057  67.973  1.00  0.00    -0.176 C  
BRANCH  26  27
HETATM   27  C   UNK A   1      -9.588   8.079  69.082  1.00  0.00    -0.156 C  
BRANCH  27  28
HETATM   28  C   UNK A   1     -10.827   7.576  69.881  1.00  0.00    -0.240 C  
ATOM     29  H   GLY A   2     -11.075   9.433  70.804  1.00  0.00     0.000 HD 
ATOM     30  N   GLY A   2     -11.464   8.498  70.687  1.00  0.00    -0.260 N  
HETATM   31  O   UNK A   1     -11.308   6.455  69.718  1.00  0.00    -0.384 OA 
BRANCH  30  32
ATOM     32  CA  GLY A   2     -12.696   8.125  71.370  1.00  0.00    -0.268 C  
ATOM     33  OXT GLY A   2     -14.221   9.016  73.058  1.00  0.00    -0.444 OA 
ATOM     34  C   GLY A   2     -13.480   9.222  72.104  1.00  0.00    -0.473 C  
ATOM     35  O   GLY A   2     -13.468  10.421  71.490  1.00  0.00    -0.309 OA 
ENDBRANCH  30  32
ENDBRANCH  27  28
BRANCH  27  36
HETATM   36  N   UNK A   1      -8.564   7.092  68.676  1.00  0.00    -0.121 N  
HETATM   37  H   UNK A   1      -8.576   6.733  67.721  1.00  0.00     0.000 HD 
HETATM   38  O   UNK A   1      -7.420   7.114  70.660  1.00  0.00    -0.078 OA 
HETATM   39  C   UNK A   1      -7.597   6.641  69.543  1.00  0.00    -0.095 C  
BRANCH  39  40
HETATM   40  C   UNK A   1      -6.639   5.593  68.996  1.00  0.00    -0.051 C  
BRANCH  40  41
HETATM   41  C   UNK A   1      -6.696   5.324  67.480  1.00  0.00    -0.055 C  
BRANCH  41  42
HETATM   42  C   UNK A   1      -6.028   6.347  66.550  1.00  0.00    -0.028 C  
HETATM   43  N   UNK A   1      -5.617   7.582  67.270  1.00  0.00    -0.030 NA 
HETATM   44  C   UNK A   1      -7.002   6.763  65.463  1.00  0.00    -0.063 C  
HETATM   45  O   UNK A   1      -7.304   6.166  64.445  1.00  0.00    -0.060 OA 
HETATM   46  O   UNK A   1      -7.586   7.929  65.820  1.00  0.00    -0.078 OA 
HETATM   47  H2  UNK A   1      -5.018   7.362  68.065  1.00  0.00     0.000 HD 
HETATM   48  H1  UNK A   1      -5.173   8.261  66.652  1.00  0.00     0.000 HD 
ENDBRANCH  41  42
ENDBRANCH  40  41
ENDBRANCH  39  40
ENDBRANCH  27  36
ENDBRANCH  26  27
ENDBRANCH  25  26
ENDBRANCH  24  25
ENDBRANCH  23  24
ENDBRANCH  14  23
ENDBRANCH  11  14
ENDBRANCH   9  10
ENDBRANCH   8   9
ENDBRANCH   4   8
TORSDOF 17
ENDMDL
MODEL      224
REMARK 921   NORMALIZED FREE ENERGY PREDICTED BY IDOCK:   -3.70 KCAL/MOL
REMARK 922        TOTAL FREE ENERGY PREDICTED BY IDOCK:  -10.34 KCAL/MOL
REMARK 923 INTER-LIGAND FREE ENERGY PREDICTED BY IDOCK:   -7.66 KCAL/MOL
REMARK 924 INTRA-LIGAND FREE ENERGY PREDICTED BY IDOCK:   -2.69 KCAL/MOL
REMARK 927      BINDING AFFINITY PREDICTED BY RF-SCORE:    0.00 PKD
ROOT
HETATM    1  N   UNK A   1      -9.508   2.449  67.501  1.00  0.00    -0.391 NA 
HETATM    2  H1  UNK A   1     -10.486   2.692  67.348  1.00  0.00     0.000 HD 
HETATM    3  H2  UNK A   1      -9.311   1.510  67.152  1.00  0.00     0.000 HD 
HETATM    4  C   UNK A   1      -9.074   2.585  68.917  1.00  0.00    -0.137 C  
HETATM    5  O   UNK A   1      -8.863   4.583  70.331  1.00  0.00    -0.083 OA 
HETATM    6  C   UNK A   1      -9.404   4.009  69.400  1.00  0.00    -0.173 C  
HETATM    7  O   UNK A   1     -10.393   4.558  68.650  1.00  0.00     0.046 OA 
ENDROOT
BRANCH   4   8
HETATM    8  C   UNK A   1      -7.606   2.221  69.145  1.00  0.00    -0.043 C  
BRANCH   8   9
HETATM    9  C   UNK A   1      -6.729   2.252  67.891  1.00  0.00    -0.039 C  
BRANCH   9  10
HETATM   10  C   UNK A   1      -6.276   3.668  67.619  1.00  0.00    -0.036 C  
HETATM   11  N   UNK A   1      -7.146   4.404  66.842  1.00  0.00    -0.066 N  
HETATM   12  O   UNK A   1      -5.203   4.103  68.024  1.00  0.00    -0.007 OA 
HETATM   13  H   UNK A   1      -7.999   3.977  66.481  1.00  0.00     0.000 HD 
BRANCH  11  14
HETATM   14  C   UNK A   1      -6.835   5.807  66.536  1.00  0.00    -0.059 C  
BRANCH  14  15
HETATM   15  C   UNK A   1      -8.069   6.670  66.867  1.00  0.00    -0.113 C  
ATOM     16  H   GLY A   2      -7.156   7.282  68.620  1.00  0.00     0.000 HD 
ATOM     17  N   GLY A   2      -7.986   7.391  68.038  1.00  0.00    -0.118 N  
HETATM   18  O   UNK A   1      -9.061   6.700  66.156  1.00  0.00    -0.157 OA 
BRANCH  17  19
ATOM     19  CA  GLY A   2      -9.029   8.301  68.477  1.00  0.00    -0.137 C  
ATOM     20  C   GLY A   2      -8.943   8.705  69.940  1.00  0.00    -0.149 C  
ATOM     21  O   GLY A   2      -8.324   7.801  70.757  1.00  0.00    -0.113 OA 
ATOM     22  OXT GLY A   2      -9.440   9.726  70.393  1.00  0.00    -0.247 OA 
ENDBRANCH  17  19
ENDBRANCH  14  15
BRANCH  14  23
HETATM   23  C   UNK A   1      -6.418   5.963  65.064  1.00  0.00    -0.042 C  
BRANCH  23  24
HETATM   24  S   UNK A   1      -5.142   7.217  64.724  1.00  0.00    -0.029 SA 
BRANCH  24  25
HETATM   25  S   UNK A   1      -6.246   8.731  63.893  1.00  0.00    -0.072 SA 
BRANCH  25  26
HETATM   26  C   UNK A   1      -6.160  10.025  65.181  1.00  0.00    -0.107 C  
BRANCH  26  27
HETATM   27  C   UNK A   1      -7.519  10.517  65.713  1.00  0.00    -0.139 C  
BRANCH  27  28
HETATM   28  C   UNK A   1      -7.322  11.434  66.957  1.00  0.00    -0.144 C  
ATOM     29  H   GLY A   2      -8.728  12.809  66.253  1.00  0.00     0.000 HD 
ATOM     30  N   GLY A   2      -8.113  12.563  67.028  1.00  0.00    -0.145 N  
HETATM   31  O   UNK A   1      -6.597  11.122  67.900  1.00  0.00    -0.061 OA 
BRANCH  30  32
ATOM     32  CA  GLY A   2      -8.063  13.401  68.220  1.00  0.00    -0.152 C  
ATOM     33  OXT GLY A   2      -6.406  14.440  69.684  1.00  0.00    -0.121 OA 
ATOM     34  C   GLY A   2      -6.742  14.110  68.553  1.00  0.00    -0.101 C  
ATOM     35  O   GLY A   2      -6.057  14.544  67.479  1.00  0.00    -0.328 OA 
ENDBRANCH  30  32
ENDBRANCH  27  28
BRANCH  27  36
HETATM   36  N   UNK A   1      -8.475  10.945  64.668  1.00  0.00    -0.372 N  
HETATM   37  H   UNK A   1      -8.147  11.551  63.917  1.00  0.00     0.000 HD 
HETATM   38  O   UNK A   1     -10.243   9.719  65.457  1.00  0.00    -0.256 OA 
HETATM   39  C   UNK A   1      -9.793  10.552  64.677  1.00  0.00    -0.340 C  
BRANCH  39  40
HETATM   40  C   UNK A   1     -10.668  11.106  63.563  1.00  0.00    -0.340 C  
BRANCH  40  41
HETATM   41  C   UNK A   1     -10.877  12.632  63.537  1.00  0.00    -0.373 C  
BRANCH  41  42
HETATM   42  C   UNK A   1     -12.133  13.190  64.221  1.00  0.00    -0.414 C  
HETATM   43  N   UNK A   1     -12.584  14.472  63.615  1.00  0.00    -0.992 NA 
HETATM   44  C   UNK A   1     -11.842  13.462  65.685  1.00  0.00    -0.370 C  
HETATM   45  O   UNK A   1     -11.798  12.671  66.610  1.00  0.00    -0.389 OA 
HETATM   46  O   UNK A   1     -11.550  14.774  65.839  1.00  0.00    -0.348 OA 
HETATM   47  H2  UNK A   1     -12.724  14.375  62.610  1.00  0.00     0.000 HD 
HETATM   48  H1  UNK A   1     -13.418  14.843  64.069  1.00  0.00     0.000 HD 
ENDBRANCH  41  42
ENDBRANCH  40  41
ENDBRANCH  39  40
ENDBRANCH  27  36
ENDBRANCH  26  27
ENDBRANCH  25  26
ENDBRANCH  24  25
ENDBRANCH  23  24
ENDBRANCH  14  23
ENDBRANCH  11  14
ENDBRANCH   9  10
ENDBRANCH   8   9
ENDBRANCH   4   8
TORSDOF 17
ENDMDL
MODEL      225
REMARK 921   NORMALIZED FREE ENERGY PREDICTED BY IDOCK:   -3.69 KCAL/MOL
REMARK 922        TOTAL FREE ENERGY PREDICTED BY IDOCK:  -10.33 KCAL/MOL
REMARK 923 INTER-LIGAND FREE ENERGY PREDICTED BY IDOCK:   -8.39 KCAL/MOL
REMARK 924 INTRA-LIGAND FREE ENERGY PREDICTED BY IDOCK:   -1.94 KCAL/MOL
REMARK 927      BINDING AFFINITY PREDICTED BY RF-SCORE:    0.00 PKD
ROOT
HETATM    1  N   UNK A   1     -10.331  16.864  65.498  1.00  0.00    -0.614 NA 
HETATM    2  H1  UNK A   1     -10.172  17.206  64.550  1.00  0.00     0.000 HD 
HETATM    3  H2  UNK A   1      -9.510  17.024  66.082  1.00  0.00     0.000 HD 
HETATM    4  C   UNK A   1     -10.745  15.436  65.552  1.00  0.00    -0.384 C  
HETATM    5  O   UNK A   1     -12.790  14.340  64.746  1.00  0.00    -0.671 OA 
HETATM    6  C   UNK A   1     -11.974  15.242  64.647  1.00  0.00    -0.233 C  
HETATM    7  O   UNK A   1     -12.041  16.218  63.706  1.00  0.00    -0.959 OA 
ENDROOT
BRANCH   4   8
HETATM    8  C   UNK A   1     -10.983  14.922  66.974  1.00  0.00    -0.327 C  
BRANCH   8   9
HETATM    9  C   UNK A   1     -12.076  13.860  67.103  1.00  0.00    -0.422 C  
BRANCH   9  10
HETATM   10  C   UNK A   1     -11.579  12.714  67.952  1.00  0.00    -0.349 C  
HETATM   11  N   UNK A   1     -10.611  11.938  67.351  1.00  0.00    -0.219 N  
HETATM   12  O   UNK A   1     -12.035  12.476  69.067  1.00  0.00    -0.289 OA 
HETATM   13  H   UNK A   1     -10.307  12.143  66.400  1.00  0.00     0.000 HD 
BRANCH  11  14
HETATM   14  C   UNK A   1     -10.021  10.813  68.089  1.00  0.00    -0.160 C  
BRANCH  14  15
HETATM   15  C   UNK A   1      -8.588  10.577  67.569  1.00  0.00    -0.121 C  
ATOM     16  H   GLY A   2      -8.195   9.397  69.223  1.00  0.00     0.000 HD 
ATOM     17  N   GLY A   2      -7.806   9.756  68.351  1.00  0.00    -0.081 N  
HETATM   18  O   UNK A   1      -8.165  11.096  66.548  1.00  0.00    -0.158 OA 
BRANCH  17  19
ATOM     19  CA  GLY A   2      -6.453   9.378  67.985  1.00  0.00    -0.062 C  
ATOM     20  C   GLY A   2      -6.271   7.903  67.665  1.00  0.00    -0.051 C  
ATOM     21  O   GLY A   2      -7.161   7.063  68.274  1.00  0.00    -0.077 OA 
ATOM     22  OXT GLY A   2      -5.364   7.465  66.972  1.00  0.00    -0.021 OA 
ENDBRANCH  17  19
ENDBRANCH  14  15
BRANCH  14  23
HETATM   23  C   UNK A   1     -10.888   9.551  67.941  1.00  0.00    -0.180 C  
BRANCH  23  24
HETATM   24  S   UNK A   1     -10.291   8.308  66.752  1.00  0.00    -0.219 SA 
BRANCH  24  25
HETATM   25  S   UNK A   1     -10.886   6.555  67.634  1.00  0.00    -0.346 SA 
BRANCH  25  26
HETATM   26  C   UNK A   1     -10.332   5.305  66.422  1.00  0.00    -0.268 C  
BRANCH  26  27
HETATM   27  C   UNK A   1      -8.986   4.628  66.742  1.00  0.00    -0.112 C  
BRANCH  27  28
HETATM   28  C   UNK A   1      -7.901   5.044  65.704  1.00  0.00    -0.091 C  
ATOM     29  H   GLY A   2      -9.319   5.996  64.501  1.00  0.00     0.000 HD 
ATOM     30  N   GLY A   2      -8.326   5.802  64.631  1.00  0.00    -0.128 N  
HETATM   31  O   UNK A   1      -6.703   4.829  65.877  1.00  0.00    -0.050 OA 
BRANCH  30  32
ATOM     32  CA  GLY A   2      -7.346   6.323  63.686  1.00  0.00    -0.072 C  
ATOM     33  OXT GLY A   2      -6.923   8.344  62.382  1.00  0.00    -0.094 OA 
ATOM     34  C   GLY A   2      -7.325   7.834  63.421  1.00  0.00    -0.101 C  
ATOM     35  O   GLY A   2      -7.585   8.594  64.502  1.00  0.00    -0.102 OA 
ENDBRANCH  30  32
ENDBRANCH  27  28
BRANCH  27  36
HETATM   36  N   UNK A   1      -8.621   4.620  68.175  1.00  0.00    -0.101 N  
HETATM   37  H   UNK A   1      -8.073   5.394  68.549  1.00  0.00     0.000 HD 
HETATM   38  O   UNK A   1      -9.767   2.705  68.695  1.00  0.00    -0.087 OA 
HETATM   39  C   UNK A   1      -8.996   3.602  69.021  1.00  0.00    -0.122 C  
BRANCH  39  40
HETATM   40  C   UNK A   1      -8.511   3.708  70.459  1.00  0.00    -0.102 C  
BRANCH  40  41
HETATM   41  C   UNK A   1      -9.477   4.355  71.470  1.00  0.00    -0.215 C  
BRANCH  41  42
HETATM   42  C   UNK A   1      -9.726   5.866  71.351  1.00  0.00    -0.166 C  
HETATM   43  N   UNK A   1      -8.540   6.594  70.826  1.00  0.00    -0.134 NA 
HETATM   44  C   UNK A   1     -10.040   6.443  72.719  1.00  0.00    -0.180 C  
HETATM   45  O   UNK A   1     -11.090   6.407  73.335  1.00  0.00    -0.200 OA 
HETATM   46  O   UNK A   1      -8.913   6.981  73.238  1.00  0.00    -0.125 OA 
HETATM   47  H2  UNK A   1      -8.230   6.202  69.938  1.00  0.00     0.000 HD 
HETATM   48  H1  UNK A   1      -8.705   7.598  70.747  1.00  0.00     0.000 HD 
ENDBRANCH  41  42
ENDBRANCH  40  41
ENDBRANCH  39  40
ENDBRANCH  27  36
ENDBRANCH  26  27
ENDBRANCH  25  26
ENDBRANCH  24  25
ENDBRANCH  23  24
ENDBRANCH  14  23
ENDBRANCH  11  14
ENDBRANCH   9  10
ENDBRANCH   8   9
ENDBRANCH   4   8
TORSDOF 17
ENDMDL
MODEL      226
REMARK 921   NORMALIZED FREE ENERGY PREDICTED BY IDOCK:   -3.68 KCAL/MOL
REMARK 922        TOTAL FREE ENERGY PREDICTED BY IDOCK:  -10.31 KCAL/MOL
REMARK 923 INTER-LIGAND FREE ENERGY PREDICTED BY IDOCK:   -9.14 KCAL/MOL
REMARK 924 INTRA-LIGAND FREE ENERGY PREDICTED BY IDOCK:   -1.17 KCAL/MOL
REMARK 927      BINDING AFFINITY PREDICTED BY RF-SCORE:    0.00 PKD
ROOT
HETATM    1  N   UNK A   1     -12.598  14.688  63.513  1.00  0.00    -0.907 NA 
HETATM    2  H1  UNK A   1     -13.065  15.527  63.858  1.00  0.00     0.000 HD 
HETATM    3  H2  UNK A   1     -13.281  13.987  63.225  1.00  0.00     0.000 HD 
HETATM    4  C   UNK A   1     -11.625  14.110  64.479  1.00  0.00    -0.389 C  
HETATM    5  O   UNK A   1      -9.509  15.012  65.339  1.00  0.00    -0.187 OA 
HETATM    6  C   UNK A   1     -10.629  15.206  64.893  1.00  0.00    -0.365 C  
HETATM    7  O   UNK A   1     -11.158  16.441  64.699  1.00  0.00    -0.663 OA 
ENDROOT
BRANCH   4   8
HETATM    8  C   UNK A   1     -10.924  12.852  63.961  1.00  0.00    -0.447 C  
BRANCH   8   9
HETATM    9  C   UNK A   1     -11.031  11.630  64.875  1.00  0.00    -0.345 C  
BRANCH   9  10
HETATM   10  C   UNK A   1     -10.968  12.064  66.321  1.00  0.00    -0.299 C  
HETATM   11  N   UNK A   1      -9.692  12.296  66.790  1.00  0.00    -0.208 N  
HETATM   12  O   UNK A   1     -11.970  12.159  67.023  1.00  0.00    -0.593 OA 
HETATM   13  H   UNK A   1      -8.887  12.147  66.182  1.00  0.00     0.000 HD 
BRANCH  11  14
HETATM   14  C   UNK A   1      -9.500  12.758  68.171  1.00  0.00    -0.219 C  
BRANCH  14  15
HETATM   15  C   UNK A   1      -8.009  13.097  68.376  1.00  0.00    -0.130 C  
ATOM     16  H   GLY A   2      -8.545  14.969  69.077  1.00  0.00     0.000 HD 
ATOM     17  N   GLY A   2      -7.757  14.345  68.900  1.00  0.00    -0.138 N  
HETATM   18  O   UNK A   1      -7.111  12.326  68.077  1.00  0.00    -0.082 OA 
BRANCH  17  19
ATOM     19  CA  GLY A   2      -6.418  14.811  69.213  1.00  0.00    -0.121 C  
ATOM     20  C   GLY A   2      -6.328  16.285  69.576  1.00  0.00    -0.195 C  
ATOM     21  O   GLY A   2      -7.306  17.075  69.040  1.00  0.00    -0.237 OA 
ATOM     22  OXT GLY A   2      -5.422  16.767  70.239  1.00  0.00    -0.194 OA 
ENDBRANCH  17  19
ENDBRANCH  14  15
BRANCH  14  23
HETATM   23  C   UNK A   1      -9.976  11.691  69.172  1.00  0.00     0.123 C  
BRANCH  23  24
HETATM   24  S   UNK A   1      -8.986  10.165  69.244  1.00  0.00    -0.183 SA 
BRANCH  24  25
HETATM   25  S   UNK A   1     -10.210   8.913  70.310  1.00  0.00    -0.213 SA 
BRANCH  25  26
HETATM   26  C   UNK A   1      -9.076   8.255  71.583  1.00  0.00    -0.185 C  
BRANCH  26  27
HETATM   27  C   UNK A   1      -8.726   6.761  71.446  1.00  0.00    -0.131 C  
BRANCH  27  28
HETATM   28  C   UNK A   1      -9.205   5.968  72.698  1.00  0.00    -0.143 C  
ATOM     29  H   GLY A   2     -10.329   4.656  71.523  1.00  0.00     0.000 HD 
ATOM     30  N   GLY A   2     -10.008   4.869  72.468  1.00  0.00    -0.167 N  
HETATM   31  O   UNK A   1      -8.797   6.214  73.832  1.00  0.00    -0.123 OA 
BRANCH  30  32
ATOM     32  CA  GLY A   2     -10.395   4.016  73.585  1.00  0.00    -0.168 C  
ATOM     33  OXT GLY A   2     -11.559   1.906  73.986  1.00  0.00    -0.136 OA 
ATOM     34  C   GLY A   2     -10.804   2.567  73.283  1.00  0.00    -0.175 C  
ATOM     35  O   GLY A   2     -10.102   1.985  72.292  1.00  0.00    -0.143 OA 
ENDBRANCH  30  32
ENDBRANCH  27  28
BRANCH  27  36
HETATM   36  N   UNK A   1      -8.983   6.185  70.108  1.00  0.00    -0.147 N  
HETATM   37  H   UNK A   1      -9.923   6.244  69.717  1.00  0.00     0.000 HD 
HETATM   38  O   UNK A   1      -6.812   5.575  69.699  1.00  0.00    -0.056 OA 
HETATM   39  C   UNK A   1      -7.995   5.572  69.373  1.00  0.00    -0.094 C  
BRANCH  39  40
HETATM   40  C   UNK A   1      -8.417   4.988  68.033  1.00  0.00    -0.103 C  
BRANCH  40  41
HETATM   41  C   UNK A   1      -9.931   4.883  67.768  1.00  0.00    -0.186 C  
BRANCH  41  42
HETATM   42  C   UNK A   1     -10.485   5.584  66.519  1.00  0.00    -0.271 C  
HETATM   43  N   UNK A   1      -9.837   5.107  65.268  1.00  0.00    -0.370 NA 
HETATM   44  C   UNK A   1     -10.233   7.078  66.616  1.00  0.00    -0.148 C  
HETATM   45  O   UNK A   1     -10.851   7.913  67.251  1.00  0.00    -0.272 OA 
HETATM   46  O   UNK A   1      -9.118   7.381  65.914  1.00  0.00    -0.131 OA 
HETATM   47  H2  UNK A   1      -9.905   4.094  65.182  1.00  0.00     0.000 HD 
HETATM   48  H1  UNK A   1     -10.205   5.573  64.439  1.00  0.00     0.000 HD 
ENDBRANCH  41  42
ENDBRANCH  40  41
ENDBRANCH  39  40
ENDBRANCH  27  36
ENDBRANCH  26  27
ENDBRANCH  25  26
ENDBRANCH  24  25
ENDBRANCH  23  24
ENDBRANCH  14  23
ENDBRANCH  11  14
ENDBRANCH   9  10
ENDBRANCH   8   9
ENDBRANCH   4   8
TORSDOF 17
ENDMDL
MODEL      227
REMARK 921   NORMALIZED FREE ENERGY PREDICTED BY IDOCK:   -3.68 KCAL/MOL
REMARK 922        TOTAL FREE ENERGY PREDICTED BY IDOCK:  -10.31 KCAL/MOL
REMARK 923 INTER-LIGAND FREE ENERGY PREDICTED BY IDOCK:   -8.81 KCAL/MOL
REMARK 924 INTRA-LIGAND FREE ENERGY PREDICTED BY IDOCK:   -1.50 KCAL/MOL
REMARK 927      BINDING AFFINITY PREDICTED BY RF-SCORE:    0.00 PKD
ROOT
HETATM    1  N   UNK A   1     -10.862   8.394  72.330  1.00  0.00    -0.332 NA 
HETATM    2  H1  UNK A   1     -11.354   8.532  73.213  1.00  0.00     0.000 HD 
HETATM    3  H2  UNK A   1     -11.188   9.059  71.628  1.00  0.00     0.000 HD 
HETATM    4  C   UNK A   1     -10.946   7.001  71.814  1.00  0.00    -0.234 C  
HETATM    5  O   UNK A   1     -10.032   4.910  72.723  1.00  0.00    -0.153 OA 
HETATM    6  C   UNK A   1     -10.459   6.038  72.911  1.00  0.00    -0.219 C  
HETATM    7  O   UNK A   1     -10.568   6.607  74.139  1.00  0.00    -0.310 OA 
ENDROOT
BRANCH   4   8
HETATM    8  C   UNK A   1     -10.208   6.794  70.490  1.00  0.00    -0.212 C  
BRANCH   8   9
HETATM    9  C   UNK A   1     -10.671   7.696  69.344  1.00  0.00    -0.188 C  
BRANCH   9  10
HETATM   10  C   UNK A   1      -9.728   8.868  69.201  1.00  0.00    -0.168 C  
HETATM   11  N   UNK A   1      -8.649   8.633  68.375  1.00  0.00    -0.134 N  
HETATM   12  O   UNK A   1      -9.895   9.922  69.807  1.00  0.00    -0.212 OA 
HETATM   13  H   UNK A   1      -8.526   7.719  67.940  1.00  0.00     0.000 HD 
BRANCH  11  14
HETATM   14  C   UNK A   1      -7.679   9.707  68.126  1.00  0.00    -0.086 C  
BRANCH  14  15
HETATM   15  C   UNK A   1      -7.152   9.573  66.683  1.00  0.00    -0.086 C  
ATOM     16  H   GLY A   2      -9.046   9.992  65.965  1.00  0.00     0.000 HD 
ATOM     17  N   GLY A   2      -8.083   9.798  65.693  1.00  0.00    -0.116 N  
HETATM   18  O   UNK A   1      -5.996   9.268  66.430  1.00  0.00    -0.057 OA 
BRANCH  17  19
ATOM     19  CA  GLY A   2      -7.750   9.771  64.280  1.00  0.00    -0.134 C  
ATOM     20  C   GLY A   2      -8.089   8.468  63.574  1.00  0.00    -0.155 C  
ATOM     21  O   GLY A   2      -8.108   7.361  64.376  1.00  0.00    -0.134 OA 
ATOM     22  OXT GLY A   2      -8.270   8.376  62.369  1.00  0.00    -0.166 OA 
ENDBRANCH  17  19
ENDBRANCH  14  15
BRANCH  14  23
HETATM   23  C   UNK A   1      -6.533   9.653  69.151  1.00  0.00    -0.044 C  
BRANCH  23  24
HETATM   24  S   UNK A   1      -6.068  11.240  69.913  1.00  0.00    -0.143 SA 
BRANCH  24  25
HETATM   25  S   UNK A   1      -5.804  12.439  68.271  1.00  0.00    -0.065 SA 
BRANCH  25  26
HETATM   26  C   UNK A   1      -7.121  13.687  68.489  1.00  0.00    -0.107 C  
BRANCH  26  27
HETATM   27  C   UNK A   1      -8.155  13.760  67.349  1.00  0.00    -0.177 C  
BRANCH  27  28
HETATM   28  C   UNK A   1      -9.531  13.201  67.819  1.00  0.00    -0.209 C  
ATOM     29  H   GLY A   2      -9.770  14.755  69.195  1.00  0.00     0.000 HD 
ATOM     30  N   GLY A   2     -10.207  13.936  68.772  1.00  0.00    -0.218 N  
HETATM   31  O   UNK A   1     -10.064  12.228  67.289  1.00  0.00    -0.203 OA 
BRANCH  30  32
ATOM     32  CA  GLY A   2     -11.550  13.532  69.170  1.00  0.00    -0.310 C  
ATOM     33  OXT GLY A   2     -13.261  14.146  70.802  1.00  0.00    -0.290 OA 
ATOM     34  C   GLY A   2     -12.371  14.498  70.036  1.00  0.00    -0.323 C  
ATOM     35  O   GLY A   2     -12.194  15.799  69.741  1.00  0.00    -0.344 OA 
ENDBRANCH  30  32
ENDBRANCH  27  28
BRANCH  27  36
HETATM   36  N   UNK A   1      -8.135  15.021  66.575  1.00  0.00    -0.297 N  
HETATM   37  H   UNK A   1      -8.380  14.996  65.585  1.00  0.00     0.000 HD 
HETATM   38  O   UNK A   1      -7.621  16.375  68.349  1.00  0.00    -0.163 OA 
HETATM   39  C   UNK A   1      -7.795  16.225  67.145  1.00  0.00    -0.191 C  
BRANCH  39  40
HETATM   40  C   UNK A   1      -7.777  17.429  66.214  1.00  0.00    -0.340 C  
BRANCH  40  41
HETATM   41  C   UNK A   1      -7.775  18.819  66.878  1.00  0.00    -0.246 C  
BRANCH  41  42
HETATM   42  C   UNK A   1      -9.132  19.501  67.105  1.00  0.00    -0.309 C  
HETATM   43  N   UNK A   1      -9.440  19.679  68.549  1.00  0.00    -0.365 NA 
HETATM   44  C   UNK A   1     -10.239  18.652  66.510  1.00  0.00    -0.412 C  
HETATM   45  O   UNK A   1     -10.581  18.558  65.344  1.00  0.00    -0.589 OA 
HETATM   46  O   UNK A   1     -10.797  17.906  67.490  1.00  0.00    -0.364 OA 
HETATM   47  H2  UNK A   1      -8.692  20.180  69.027  1.00  0.00     0.000 HD 
HETATM   48  H1  UNK A   1     -10.342  20.132  68.701  1.00  0.00     0.000 HD 
ENDBRANCH  41  42
ENDBRANCH  40  41
ENDBRANCH  39  40
ENDBRANCH  27  36
ENDBRANCH  26  27
ENDBRANCH  25  26
ENDBRANCH  24  25
ENDBRANCH  23  24
ENDBRANCH  14  23
ENDBRANCH  11  14
ENDBRANCH   9  10
ENDBRANCH   8   9
ENDBRANCH   4   8
TORSDOF 17
ENDMDL
MODEL      228
REMARK 921   NORMALIZED FREE ENERGY PREDICTED BY IDOCK:   -3.66 KCAL/MOL
REMARK 922        TOTAL FREE ENERGY PREDICTED BY IDOCK:  -10.27 KCAL/MOL
REMARK 923 INTER-LIGAND FREE ENERGY PREDICTED BY IDOCK:  -10.01 KCAL/MOL
REMARK 924 INTRA-LIGAND FREE ENERGY PREDICTED BY IDOCK:   -0.26 KCAL/MOL
REMARK 927      BINDING AFFINITY PREDICTED BY RF-SCORE:    0.00 PKD
ROOT
HETATM    1  N   UNK A   1      -6.227  14.109  70.810  1.00  0.00    -0.378 NA 
HETATM    2  H1  UNK A   1      -6.482  13.791  71.745  1.00  0.00     0.000 HD 
HETATM    3  H2  UNK A   1      -6.754  14.945  70.557  1.00  0.00     0.000 HD 
HETATM    4  C   UNK A   1      -6.370  13.060  69.765  1.00  0.00    -0.063 C  
HETATM    5  O   UNK A   1      -5.151  10.951  69.448  1.00  0.00    -0.038 OA 
HETATM    6  C   UNK A   1      -5.572  11.818  70.197  1.00  0.00    -0.131 C  
HETATM    7  O   UNK A   1      -5.390  11.803  71.542  1.00  0.00    -0.337 OA 
ENDROOT
BRANCH   4   8
HETATM    8  C   UNK A   1      -5.987  13.538  68.362  1.00  0.00    -0.095 C  
BRANCH   8   9
HETATM    9  C   UNK A   1      -6.978  13.164  67.258  1.00  0.00    -0.021 C  
BRANCH   9  10
HETATM   10  C   UNK A   1      -8.242  13.977  67.408  1.00  0.00    -0.190 C  
HETATM   11  N   UNK A   1      -8.779  14.419  66.217  1.00  0.00    -0.420 N  
HETATM   12  O   UNK A   1      -8.721  14.252  68.504  1.00  0.00    -0.176 OA 
HETATM   13  H   UNK A   1      -8.311  14.211  65.335  1.00  0.00     0.000 HD 
BRANCH  11  14
HETATM   14  C   UNK A   1     -10.029  15.190  66.226  1.00  0.00    -0.288 C  
BRANCH  14  15
HETATM   15  C   UNK A   1      -9.786  16.515  66.976  1.00  0.00    -0.257 C  
ATOM     16  H   GLY A   2      -8.547  17.142  65.443  1.00  0.00     0.000 HD 
ATOM     17  N   GLY A   2      -8.967  17.415  66.331  1.00  0.00    -0.259 N  
HETATM   18  O   UNK A   1     -10.268  16.748  68.074  1.00  0.00    -0.275 OA 
BRANCH  17  19
ATOM     19  CA  GLY A   2      -8.675  18.735  66.862  1.00  0.00    -0.293 C  
ATOM     20  C   GLY A   2      -9.736  19.784  66.570  1.00  0.00    -0.422 C  
ATOM     21  O   GLY A   2     -10.480  19.560  65.446  1.00  0.00    -0.439 OA 
ATOM     22  OXT GLY A   2      -9.890  20.797  67.236  1.00  0.00    -0.474 OA 
ENDBRANCH  17  19
ENDBRANCH  14  15
BRANCH  14  23
HETATM   23  C   UNK A   1     -11.164  14.377  66.873  1.00  0.00    -0.334 C  
BRANCH  23  24
HETATM   24  S   UNK A   1     -11.479  12.734  66.154  1.00  0.00    -0.372 SA 
BRANCH  24  25
HETATM   25  S   UNK A   1     -12.154  11.681  67.778  1.00  0.00     0.431 SA 
BRANCH  25  26
HETATM   26  C   UNK A   1     -10.596  11.094  68.532  1.00  0.00    -0.191 C  
BRANCH  26  27
HETATM   27  C   UNK A   1     -10.751   9.979  69.583  1.00  0.00    -0.255 C  
BRANCH  27  28
HETATM   28  C   UNK A   1     -11.695  10.437  70.735  1.00  0.00    -0.368 C  
ATOM     29  H   GLY A   2     -11.805  12.376  69.965  1.00  0.00     0.000 HD 
ATOM     30  N   GLY A   2     -12.150  11.740  70.684  1.00  0.00    -0.361 N  
HETATM   31  O   UNK A   1     -12.126   9.661  71.585  1.00  0.00    -0.367 OA 
BRANCH  30  32
ATOM     32  CA  GLY A   2     -13.126  12.198  71.665  1.00  0.00    -0.310 C  
ATOM     33  OXT GLY A   2     -13.676  14.217  72.925  1.00  0.00    -0.629 OA 
ATOM     34  C   GLY A   2     -13.281  13.710  71.882  1.00  0.00    -0.411 C  
ATOM     35  O   GLY A   2     -13.154  14.450  70.764  1.00  0.00    -0.356 OA 
ENDBRANCH  30  32
ENDBRANCH  27  28
BRANCH  27  36
HETATM   36  N   UNK A   1     -10.932   8.621  69.025  1.00  0.00    -0.437 N  
HETATM   37  H   UNK A   1     -11.498   8.504  68.184  1.00  0.00     0.000 HD 
HETATM   38  O   UNK A   1      -9.559   7.568  70.526  1.00  0.00    -0.168 OA 
HETATM   39  C   UNK A   1     -10.363   7.510  69.601  1.00  0.00    -0.225 C  
BRANCH  39  40
HETATM   40  C   UNK A   1     -10.672   6.175  68.940  1.00  0.00    -0.376 C  
BRANCH  40  41
HETATM   41  C   UNK A   1      -9.477   5.393  68.364  1.00  0.00    -0.153 C  
BRANCH  41  42
HETATM   42  C   UNK A   1      -8.514   6.146  67.434  1.00  0.00    -0.107 C  
HETATM   43  N   UNK A   1      -9.187   7.250  66.698  1.00  0.00    -0.152 NA 
HETATM   44  C   UNK A   1      -7.952   5.191  66.397  1.00  0.00    -0.104 C  
HETATM   45  O   UNK A   1      -7.054   4.377  66.522  1.00  0.00    -0.067 OA 
HETATM   46  O   UNK A   1      -8.664   5.315  65.254  1.00  0.00    -0.147 OA 
HETATM   47  H2  UNK A   1      -9.653   7.889  67.341  1.00  0.00     0.000 HD 
HETATM   48  H1  UNK A   1      -8.548   7.750  66.081  1.00  0.00     0.000 HD 
ENDBRANCH  41  42
ENDBRANCH  40  41
ENDBRANCH  39  40
ENDBRANCH  27  36
ENDBRANCH  26  27
ENDBRANCH  25  26
ENDBRANCH  24  25
ENDBRANCH  23  24
ENDBRANCH  14  23
ENDBRANCH  11  14
ENDBRANCH   9  10
ENDBRANCH   8   9
ENDBRANCH   4   8
TORSDOF 17
ENDMDL
MODEL      229
REMARK 921   NORMALIZED FREE ENERGY PREDICTED BY IDOCK:   -3.65 KCAL/MOL
REMARK 922        TOTAL FREE ENERGY PREDICTED BY IDOCK:  -10.25 KCAL/MOL
REMARK 923 INTER-LIGAND FREE ENERGY PREDICTED BY IDOCK:   -9.66 KCAL/MOL
REMARK 924 INTRA-LIGAND FREE ENERGY PREDICTED BY IDOCK:   -0.59 KCAL/MOL
REMARK 927      BINDING AFFINITY PREDICTED BY RF-SCORE:    0.00 PKD
ROOT
HETATM    1  N   UNK A   1     -13.502  14.144  70.254  1.00  0.00    -0.081 NA 
HETATM    2  H1  UNK A   1     -13.890  13.205  70.341  1.00  0.00     0.000 HD 
HETATM    3  H2  UNK A   1     -13.079  14.275  69.335  1.00  0.00     0.000 HD 
HETATM    4  C   UNK A   1     -12.539  14.493  71.332  1.00  0.00    -0.341 C  
HETATM    5  O   UNK A   1     -12.890  14.795  73.744  1.00  0.00    -0.503 OA 
HETATM    6  C   UNK A   1     -13.217  14.266  72.694  1.00  0.00    -0.510 C  
HETATM    7  O   UNK A   1     -14.244  13.384  72.583  1.00  0.00    -0.747 OA 
ENDROOT
BRANCH   4   8
HETATM    8  C   UNK A   1     -11.958  15.902  71.200  1.00  0.00    -0.472 C  
BRANCH   8   9
HETATM    9  C   UNK A   1     -10.543  15.967  70.621  1.00  0.00    -0.010 C  
BRANCH   9  10
HETATM   10  C   UNK A   1     -10.583  15.678  69.138  1.00  0.00    -0.237 C  
HETATM   11  N   UNK A   1      -9.382  15.258  68.608  1.00  0.00    -0.192 N  
HETATM   12  O   UNK A   1     -11.595  15.847  68.463  1.00  0.00    -0.377 OA 
HETATM   13  H   UNK A   1      -8.555  15.189  69.201  1.00  0.00     0.000 HD 
BRANCH  11  14
HETATM   14  C   UNK A   1      -9.300  14.911  67.183  1.00  0.00    -0.218 C  
BRANCH  14  15
HETATM   15  C   UNK A   1      -9.235  16.213  66.360  1.00  0.00    -0.300 C  
ATOM     16  H   GLY A   2     -11.298  16.197  66.194  1.00  0.00     0.000 HD 
ATOM     17  N   GLY A   2     -10.453  16.720  65.964  1.00  0.00    -0.321 N  
HETATM   18  O   UNK A   1      -8.180  16.751  66.060  1.00  0.00    -0.423 OA 
BRANCH  17  19
ATOM     19  CA  GLY A   2     -10.586  17.968  65.232  1.00  0.00     0.345 C  
ATOM     20  C   GLY A   2     -10.509  19.218  66.093  1.00  0.00    -0.488 C  
ATOM     21  O   GLY A   2     -10.891  19.052  67.395  1.00  0.00    -0.473 OA 
ATOM     22  OXT GLY A   2     -10.196  20.319  65.664  1.00  0.00    -0.365 OA 
ENDBRANCH  17  19
ENDBRANCH  14  15
BRANCH  14  23
HETATM   23  C   UNK A   1     -10.499  14.041  66.766  1.00  0.00    -0.277 C  
BRANCH  23  24
HETATM   24  S   UNK A   1     -10.142  12.706  65.580  1.00  0.00    -0.253 SA 
BRANCH  24  25
HETATM   25  S   UNK A   1     -10.825  11.054  66.582  1.00  0.00    -0.182 SA 
BRANCH  25  26
HETATM   26  C   UNK A   1      -9.494   9.839  66.278  1.00  0.00    -0.195 C  
BRANCH  26  27
HETATM   27  C   UNK A   1      -8.971   9.107  67.527  1.00  0.00    -0.122 C  
BRANCH  27  28
HETATM   28  C   UNK A   1      -8.331  10.116  68.527  1.00  0.00    -0.116 C  
ATOM     29  H   GLY A   2      -6.803  10.587  67.183  1.00  0.00     0.000 HD 
ATOM     30  N   GLY A   2      -7.219  10.806  68.089  1.00  0.00    -0.081 N  
HETATM   31  O   UNK A   1      -8.849  10.394  69.608  1.00  0.00    -0.142 OA 
BRANCH  30  32
ATOM     32  CA  GLY A   2      -6.642  11.847  68.929  1.00  0.00    -0.087 C  
ATOM     33  OXT GLY A   2      -5.236  13.833  68.714  1.00  0.00    -0.071 OA 
ATOM     34  C   GLY A   2      -6.118  13.120  68.250  1.00  0.00    -0.089 C  
ATOM     35  O   GLY A   2      -6.847  13.530  67.194  1.00  0.00    -0.134 OA 
ENDBRANCH  30  32
ENDBRANCH  27  28
BRANCH  27  36
HETATM   36  N   UNK A   1      -9.876   8.066  68.061  1.00  0.00    -0.161 N  
HETATM   37  H   UNK A   1     -10.882   8.175  67.934  1.00  0.00     0.000 HD 
HETATM   38  O   UNK A   1      -8.216   6.672  68.801  1.00  0.00    -0.118 OA 
HETATM   39  C   UNK A   1      -9.406   6.956  68.723  1.00  0.00    -0.129 C  
BRANCH  39  40
HETATM   40  C   UNK A   1     -10.458   5.993  69.253  1.00  0.00    -0.328 C  
BRANCH  40  41
HETATM   41  C   UNK A   1     -11.148   6.379  70.575  1.00  0.00    -0.388 C  
BRANCH  41  42
HETATM   42  C   UNK A   1     -10.997   5.419  71.764  1.00  0.00    -0.128 C  
HETATM   43  N   UNK A   1     -11.813   5.838  72.935  1.00  0.00    -0.538 NA 
HETATM   44  C   UNK A   1      -9.548   5.386  72.214  1.00  0.00    -0.155 C  
HETATM   45  O   UNK A   1      -8.614   4.781  71.721  1.00  0.00    -0.118 OA 
HETATM   46  O   UNK A   1      -9.395   6.223  73.266  1.00  0.00    -0.132 OA 
HETATM   47  H2  UNK A   1     -12.793   5.954  72.679  1.00  0.00     0.000 HD 
HETATM   48  H1  UNK A   1     -11.712   5.201  73.725  1.00  0.00     0.000 HD 
ENDBRANCH  41  42
ENDBRANCH  40  41
ENDBRANCH  39  40
ENDBRANCH  27  36
ENDBRANCH  26  27
ENDBRANCH  25  26
ENDBRANCH  24  25
ENDBRANCH  23  24
ENDBRANCH  14  23
ENDBRANCH  11  14
ENDBRANCH   9  10
ENDBRANCH   8   9
ENDBRANCH   4   8
TORSDOF 17
ENDMDL
MODEL      230
REMARK 921   NORMALIZED FREE ENERGY PREDICTED BY IDOCK:   -3.65 KCAL/MOL
REMARK 922        TOTAL FREE ENERGY PREDICTED BY IDOCK:  -10.24 KCAL/MOL
REMARK 923 INTER-LIGAND FREE ENERGY PREDICTED BY IDOCK:   -7.89 KCAL/MOL
REMARK 924 INTRA-LIGAND FREE ENERGY PREDICTED BY IDOCK:   -2.35 KCAL/MOL
REMARK 927      BINDING AFFINITY PREDICTED BY RF-SCORE:    0.00 PKD
ROOT
HETATM    1  N   UNK A   1      -9.175   5.638  66.133  1.00  0.00    -0.158 NA 
HETATM    2  H1  UNK A   1      -9.412   6.374  65.467  1.00  0.00     0.000 HD 
HETATM    3  H2  UNK A   1      -9.428   5.916  67.082  1.00  0.00     0.000 HD 
HETATM    4  C   UNK A   1      -7.750   5.216  66.070  1.00  0.00    -0.091 C  
HETATM    5  O   UNK A   1      -6.504   4.084  64.281  1.00  0.00    -0.039 OA 
HETATM    6  C   UNK A   1      -7.415   4.822  64.621  1.00  0.00    -0.072 C  
HETATM    7  O   UNK A   1      -8.274   5.409  63.748  1.00  0.00    -0.121 OA 
ENDROOT
BRANCH   4   8
HETATM    8  C   UNK A   1      -7.396   4.112  67.069  1.00  0.00    -0.073 C  
BRANCH   8   9
HETATM    9  C   UNK A   1      -6.381   4.513  68.142  1.00  0.00    -0.037 C  
BRANCH   9  10
HETATM   10  C   UNK A   1      -6.873   5.735  68.880  1.00  0.00    -0.066 C  
HETATM   11  N   UNK A   1      -8.114   5.588  69.463  1.00  0.00    -0.100 N  
HETATM   12  O   UNK A   1      -6.233   6.782  68.917  1.00  0.00    -0.025 OA 
HETATM   13  H   UNK A   1      -8.631   4.716  69.355  1.00  0.00     0.000 HD 
BRANCH  11  14
HETATM   14  C   UNK A   1      -8.687   6.695  70.241  1.00  0.00    -0.147 C  
BRANCH  14  15
HETATM   15  C   UNK A   1      -9.014   6.185  71.659  1.00  0.00    -0.142 C  
ATOM     16  H   GLY A   2      -8.895   4.236  70.972  1.00  0.00     0.000 HD 
ATOM     17  N   GLY A   2      -9.044   4.815  71.799  1.00  0.00    -0.133 N  
HETATM   18  O   UNK A   1      -9.252   6.937  72.591  1.00  0.00    -0.136 OA 
BRANCH  17  19
ATOM     19  CA  GLY A   2      -9.279   4.159  73.073  1.00  0.00    -0.110 C  
ATOM     20  C   GLY A   2      -9.588   2.674  72.974  1.00  0.00    -0.096 C  
ATOM     21  O   GLY A   2     -10.152   2.275  71.795  1.00  0.00    -0.164 OA 
ATOM     22  OXT GLY A   2      -9.418   1.883  73.890  1.00  0.00    -0.071 OA 
ENDBRANCH  17  19
ENDBRANCH  14  15
BRANCH  14  23
HETATM   23  C   UNK A   1      -9.936   7.260  69.544  1.00  0.00    -0.170 C  
BRANCH  23  24
HETATM   24  S   UNK A   1     -10.403   8.960  69.998  1.00  0.00    -0.213 SA 
BRANCH  24  25
HETATM   25  S   UNK A   1     -10.034   9.982  68.260  1.00  0.00    -0.158 SA 
BRANCH  25  26
HETATM   26  C   UNK A   1     -11.467  11.113  68.164  1.00  0.00    -0.303 C  
BRANCH  26  27
HETATM   27  C   UNK A   1     -11.468  12.075  66.962  1.00  0.00    -0.338 C  
BRANCH  27  28
HETATM   28  C   UNK A   1     -11.390  13.555  67.443  1.00  0.00    -0.311 C  
ATOM     29  H   GLY A   2     -10.348  14.130  65.726  1.00  0.00     0.000 HD 
ATOM     30  N   GLY A   2     -10.787  14.455  66.587  1.00  0.00    -0.299 N  
HETATM   31  O   UNK A   1     -11.942  13.946  68.470  1.00  0.00    -0.352 OA 
BRANCH  30  32
ATOM     32  CA  GLY A   2     -10.784  15.873  66.924  1.00  0.00    -0.289 C  
ATOM     33  OXT GLY A   2      -9.871  17.975  66.077  1.00  0.00    -0.505 OA 
ATOM     34  C   GLY A   2     -10.356  16.875  65.842  1.00  0.00    -0.315 C  
ATOM     35  O   GLY A   2     -10.747  16.550  64.595  1.00  0.00    -0.713 OA 
ENDBRANCH  30  32
ENDBRANCH  27  28
BRANCH  27  36
HETATM   36  N   UNK A   1     -10.610  11.656  65.832  1.00  0.00    -0.264 N  
HETATM   37  H   UNK A   1      -9.713  11.215  66.030  1.00  0.00     0.000 HD 
HETATM   38  O   UNK A   1     -12.096  12.235  64.186  1.00  0.00    -0.396 OA 
HETATM   39  C   UNK A   1     -10.983  11.843  64.521  1.00  0.00    -0.322 C  
BRANCH  39  40
HETATM   40  C   UNK A   1      -9.980  11.401  63.466  1.00  0.00    -0.424 C  
BRANCH  40  41
HETATM   41  C   UNK A   1      -8.630  10.861  63.976  1.00  0.00     0.057 C  
BRANCH  41  42
HETATM   42  C   UNK A   1      -8.357   9.359  63.815  1.00  0.00    -0.183 C  
HETATM   43  N   UNK A   1      -9.121   8.538  64.791  1.00  0.00    -0.377 NA 
HETATM   44  C   UNK A   1      -6.883   9.078  64.047  1.00  0.00    -0.088 C  
HETATM   45  O   UNK A   1      -5.950   9.241  63.281  1.00  0.00    -0.087 OA 
HETATM   46  O   UNK A   1      -6.711   8.660  65.321  1.00  0.00    -0.066 OA 
HETATM   47  H2  UNK A   1     -10.119   8.738  64.739  1.00  0.00     0.000 HD 
HETATM   48  H1  UNK A   1      -8.939   7.540  64.685  1.00  0.00     0.000 HD 
ENDBRANCH  41  42
ENDBRANCH  40  41
ENDBRANCH  39  40
ENDBRANCH  27  36
ENDBRANCH  26  27
ENDBRANCH  25  26
ENDBRANCH  24  25
ENDBRANCH  23  24
ENDBRANCH  14  23
ENDBRANCH  11  14
ENDBRANCH   9  10
ENDBRANCH   8   9
ENDBRANCH   4   8
TORSDOF 17
ENDMDL
MODEL      231
REMARK 921   NORMALIZED FREE ENERGY PREDICTED BY IDOCK:   -3.63 KCAL/MOL
REMARK 922        TOTAL FREE ENERGY PREDICTED BY IDOCK:  -10.22 KCAL/MOL
REMARK 923 INTER-LIGAND FREE ENERGY PREDICTED BY IDOCK:   -9.21 KCAL/MOL
REMARK 924 INTRA-LIGAND FREE ENERGY PREDICTED BY IDOCK:   -1.01 KCAL/MOL
REMARK 927      BINDING AFFINITY PREDICTED BY RF-SCORE:    0.00 PKD
ROOT
HETATM    1  N   UNK A   1      -7.326   7.357  66.160  1.00  0.00    -0.080 NA 
HETATM    2  H1  UNK A   1      -6.659   7.385  65.389  1.00  0.00     0.000 HD 
HETATM    3  H2  UNK A   1      -7.254   8.199  66.731  1.00  0.00     0.000 HD 
HETATM    4  C   UNK A   1      -7.209   6.137  67.004  1.00  0.00    -0.074 C  
HETATM    5  O   UNK A   1      -7.640   3.780  66.462  1.00  0.00    -0.082 OA 
HETATM    6  C   UNK A   1      -7.311   4.898  66.097  1.00  0.00    -0.078 C  
HETATM    7  O   UNK A   1      -6.981   5.205  64.817  1.00  0.00    -0.048 OA 
ENDROOT
BRANCH   4   8
HETATM    8  C   UNK A   1      -8.211   6.095  68.160  1.00  0.00    -0.114 C  
BRANCH   8   9
HETATM    9  C   UNK A   1      -9.670   5.903  67.745  1.00  0.00    -0.124 C  
BRANCH   9  10
HETATM   10  C   UNK A   1     -10.345   7.248  67.606  1.00  0.00    -0.227 C  
HETATM   11  N   UNK A   1      -9.920   8.194  68.514  1.00  0.00    -0.184 N  
HETATM   12  O   UNK A   1     -11.226   7.458  66.777  1.00  0.00     0.003 OA 
HETATM   13  H   UNK A   1      -9.225   7.952  69.220  1.00  0.00     0.000 HD 
BRANCH  11  14
HETATM   14  C   UNK A   1     -10.474   9.554  68.458  1.00  0.00    -0.217 C  
BRANCH  14  15
HETATM   15  C   UNK A   1      -9.655  10.381  67.446  1.00  0.00    -0.154 C  
ATOM     16  H   GLY A   2      -8.005   9.192  67.830  1.00  0.00     0.000 HD 
ATOM     17  N   GLY A   2      -8.353   9.968  67.268  1.00  0.00    -0.121 N  
HETATM   18  O   UNK A   1     -10.116  11.346  66.858  1.00  0.00    -0.206 OA 
BRANCH  17  19
ATOM     19  CA  GLY A   2      -7.454  10.593  66.313  1.00  0.00    -0.137 C  
ATOM     20  C   GLY A   2      -6.452  11.559  66.925  1.00  0.00    -0.144 C  
ATOM     21  O   GLY A   2      -6.848  12.142  68.096  1.00  0.00    -0.065 OA 
ATOM     22  OXT GLY A   2      -5.392  11.862  66.397  1.00  0.00    -0.324 OA 
ENDBRANCH  17  19
ENDBRANCH  14  15
BRANCH  14  23
HETATM   23  C   UNK A   1     -10.465  10.202  69.853  1.00  0.00    -0.275 C  
BRANCH  23  24
HETATM   24  S   UNK A   1     -11.910   9.854  70.905  1.00  0.00    -0.383 SA 
BRANCH  24  25
HETATM   25  S   UNK A   1     -12.902  11.647  70.871  1.00  0.00    -0.087 SA 
BRANCH  25  26
HETATM   26  C   UNK A   1     -11.845  12.653  69.772  1.00  0.00    -0.309 C  
BRANCH  26  27
HETATM   27  C   UNK A   1     -12.466  13.978  69.291  1.00  0.00    -0.010 C  
BRANCH  27  28
HETATM   28  C   UNK A   1     -12.727  14.931  70.496  1.00  0.00    -0.347 C  
ATOM     29  H   GLY A   2     -10.788  14.658  71.222  1.00  0.00     0.000 HD 
ATOM     30  N   GLY A   2     -11.665  15.162  71.347  1.00  0.00    -0.347 N  
HETATM   31  O   UNK A   1     -13.779  15.555  70.629  1.00  0.00    -0.397 OA 
BRANCH  30  32
ATOM     32  CA  GLY A   2     -11.808  16.132  72.425  1.00  0.00    -0.538 C  
ATOM     33  OXT GLY A   2     -12.985  16.377  74.552  1.00  0.00    -0.594 OA 
ATOM     34  C   GLY A   2     -12.394  15.652  73.760  1.00  0.00    -0.602 C  
ATOM     35  O   GLY A   2     -12.029  14.405  74.113  1.00  0.00    -0.186 OA 
ENDBRANCH  30  32
ENDBRANCH  27  28
BRANCH  27  36
HETATM   36  N   UNK A   1     -11.854  14.542  68.068  1.00  0.00    -0.445 N  
HETATM   37  H   UNK A   1     -12.461  14.833  67.302  1.00  0.00     0.000 HD 
HETATM   38  O   UNK A   1      -9.699  14.496  68.845  1.00  0.00    -0.213 OA 
HETATM   39  C   UNK A   1     -10.494  14.688  67.930  1.00  0.00    -0.242 C  
BRANCH  39  40
HETATM   40  C   UNK A   1     -10.007  15.242  66.600  1.00  0.00    -0.264 C  
BRANCH  40  41
HETATM   41  C   UNK A   1      -9.545  14.216  65.548  1.00  0.00    -0.053 C  
BRANCH  41  42
HETATM   42  C   UNK A   1     -10.445  13.997  64.323  1.00  0.00     0.155 C  
HETATM   43  N   UNK A   1     -11.751  14.697  64.449  1.00  0.00    -0.613 NA 
HETATM   44  C   UNK A   1     -10.740  12.517  64.162  1.00  0.00    -0.391 C  
HETATM   45  O   UNK A   1     -10.031  11.649  63.687  1.00  0.00    -0.315 OA 
HETATM   46  O   UNK A   1     -11.946  12.248  64.712  1.00  0.00    -0.379 OA 
HETATM   47  H2  UNK A   1     -11.620  15.690  64.636  1.00  0.00     0.000 HD 
HETATM   48  H1  UNK A   1     -12.349  14.551  63.636  1.00  0.00     0.000 HD 
ENDBRANCH  41  42
ENDBRANCH  40  41
ENDBRANCH  39  40
ENDBRANCH  27  36
ENDBRANCH  26  27
ENDBRANCH  25  26
ENDBRANCH  24  25
ENDBRANCH  23  24
ENDBRANCH  14  23
ENDBRANCH  11  14
ENDBRANCH   9  10
ENDBRANCH   8   9
ENDBRANCH   4   8
TORSDOF 17
ENDMDL
MODEL      232
REMARK 921   NORMALIZED FREE ENERGY PREDICTED BY IDOCK:   -3.63 KCAL/MOL
REMARK 922        TOTAL FREE ENERGY PREDICTED BY IDOCK:  -10.21 KCAL/MOL
REMARK 923 INTER-LIGAND FREE ENERGY PREDICTED BY IDOCK:   -8.62 KCAL/MOL
REMARK 924 INTRA-LIGAND FREE ENERGY PREDICTED BY IDOCK:   -1.59 KCAL/MOL
REMARK 927      BINDING AFFINITY PREDICTED BY RF-SCORE:    0.00 PKD
ROOT
HETATM    1  N   UNK A   1      -7.805   5.344  67.628  1.00  0.00    -0.099 NA 
HETATM    2  H1  UNK A   1      -7.192   4.988  66.894  1.00  0.00     0.000 HD 
HETATM    3  H2  UNK A   1      -7.344   6.086  68.155  1.00  0.00     0.000 HD 
HETATM    4  C   UNK A   1      -8.313   4.286  68.542  1.00  0.00    -0.084 C  
HETATM    5  O   UNK A   1      -9.823   2.398  68.107  1.00  0.00     0.003 OA 
HETATM    6  C   UNK A   1      -8.985   3.186  67.701  1.00  0.00    -0.154 C  
HETATM    7  O   UNK A   1      -8.520   3.199  66.425  1.00  0.00    -0.101 OA 
ENDROOT
BRANCH   4   8
HETATM    8  C   UNK A   1      -9.233   4.819  69.642  1.00  0.00    -0.180 C  
BRANCH   8   9
HETATM    9  C   UNK A   1     -10.648   5.177  69.184  1.00  0.00    -0.069 C  
BRANCH   9  10
HETATM   10  C   UNK A   1     -10.623   6.474  68.410  1.00  0.00    -0.246 C  
HETATM   11  N   UNK A   1      -9.827   7.454  68.965  1.00  0.00    -0.164 N  
HETATM   12  O   UNK A   1     -11.292   6.646  67.395  1.00  0.00    -0.299 OA 
HETATM   13  H   UNK A   1      -9.337   7.281  69.842  1.00  0.00     0.000 HD 
BRANCH  11  14
HETATM   14  C   UNK A   1      -9.691   8.750  68.286  1.00  0.00    -0.158 C  
BRANCH  14  15
HETATM   15  C   UNK A   1      -8.365   8.758  67.499  1.00  0.00    -0.109 C  
ATOM     16  H   GLY A   2      -9.338   9.626  65.893  1.00  0.00     0.000 HD 
ATOM     17  N   GLY A   2      -8.433   9.307  66.238  1.00  0.00    -0.124 N  
HETATM   18  O   UNK A   1      -7.329   8.294  67.950  1.00  0.00    -0.092 OA 
BRANCH  17  19
ATOM     19  CA  GLY A   2      -7.271   9.451  65.379  1.00  0.00    -0.092 C  
ATOM     20  C   GLY A   2      -7.592   9.762  63.926  1.00  0.00    -0.133 C  
ATOM     21  O   GLY A   2      -8.812   9.322  63.494  1.00  0.00    -0.205 OA 
ATOM     22  OXT GLY A   2      -6.809  10.303  63.159  1.00  0.00    -0.136 OA 
ENDBRANCH  17  19
ENDBRANCH  14  15
BRANCH  14  23
HETATM   23  C   UNK A   1      -9.751   9.904  69.301  1.00  0.00    -0.208 C  
BRANCH  23  24
HETATM   24  S   UNK A   1     -11.073   9.803  70.549  1.00  0.00    -0.344 SA 
BRANCH  24  25
HETATM   25  S   UNK A   1     -12.404  11.208  69.874  1.00  0.00    -0.217 SA 
BRANCH  25  26
HETATM   26  C   UNK A   1     -11.334  12.672  69.639  1.00  0.00    -0.104 C  
BRANCH  26  27
HETATM   27  C   UNK A   1     -11.991  13.858  68.909  1.00  0.00    -0.358 C  
BRANCH  27  28
HETATM   28  C   UNK A   1     -12.533  14.900  69.932  1.00  0.00    -0.232 C  
ATOM     29  H   GLY A   2     -13.551  13.424  71.003  1.00  0.00     0.000 HD 
ATOM     30  N   GLY A   2     -13.296  14.411  70.973  1.00  0.00    -0.343 N  
HETATM   31  O   UNK A   1     -12.204  16.085  69.906  1.00  0.00    -0.255 OA 
BRANCH  30  32
ATOM     32  CA  GLY A   2     -13.736  15.315  72.028  1.00  0.00    -0.492 C  
ATOM     33  OXT GLY A   2     -13.160  15.895  74.329  1.00  0.00    -0.477 OA 
ATOM     34  C   GLY A   2     -12.788  15.569  73.208  1.00  0.00    -0.517 C  
ATOM     35  O   GLY A   2     -11.484  15.617  72.876  1.00  0.00    -0.372 OA 
ENDBRANCH  30  32
ENDBRANCH  27  28
BRANCH  27  36
HETATM   36  N   UNK A   1     -11.245  14.351  67.731  1.00  0.00    -0.287 N  
HETATM   37  H   UNK A   1     -10.291  14.689  67.857  1.00  0.00     0.000 HD 
HETATM   38  O   UNK A   1     -12.877  13.859  66.200  1.00  0.00    -0.384 OA 
HETATM   39  C   UNK A   1     -11.795  14.370  66.470  1.00  0.00    -0.390 C  
BRANCH  39  40
HETATM   40  C   UNK A   1     -10.924  14.945  65.364  1.00  0.00    -0.371 C  
BRANCH  40  41
HETATM   41  C   UNK A   1      -9.606  15.615  65.796  1.00  0.00    -0.361 C  
BRANCH  41  42
HETATM   42  C   UNK A   1      -8.448  14.700  66.221  1.00  0.00     0.460 C  
HETATM   43  N   UNK A   1      -8.909  13.331  66.573  1.00  0.00    -0.449 NA 
HETATM   44  C   UNK A   1      -7.765  15.275  67.449  1.00  0.00    -0.197 C  
HETATM   45  O   UNK A   1      -6.956  16.182  67.513  1.00  0.00    -0.136 OA 
HETATM   46  O   UNK A   1      -8.251  14.658  68.550  1.00  0.00    -0.139 OA 
HETATM   47  H2  UNK A   1      -9.445  12.916  65.811  1.00  0.00     0.000 HD 
HETATM   48  H1  UNK A   1      -8.140  12.723  66.856  1.00  0.00     0.000 HD 
ENDBRANCH  41  42
ENDBRANCH  40  41
ENDBRANCH  39  40
ENDBRANCH  27  36
ENDBRANCH  26  27
ENDBRANCH  25  26
ENDBRANCH  24  25
ENDBRANCH  23  24
ENDBRANCH  14  23
ENDBRANCH  11  14
ENDBRANCH   9  10
ENDBRANCH   8   9
ENDBRANCH   4   8
TORSDOF 17
ENDMDL
MODEL      233
REMARK 921   NORMALIZED FREE ENERGY PREDICTED BY IDOCK:   -3.62 KCAL/MOL
REMARK 922        TOTAL FREE ENERGY PREDICTED BY IDOCK:  -10.18 KCAL/MOL
REMARK 923 INTER-LIGAND FREE ENERGY PREDICTED BY IDOCK:   -7.13 KCAL/MOL
REMARK 924 INTRA-LIGAND FREE ENERGY PREDICTED BY IDOCK:   -3.05 KCAL/MOL
REMARK 927      BINDING AFFINITY PREDICTED BY RF-SCORE:    0.00 PKD
ROOT
HETATM    1  N   UNK A   1     -11.639  15.362  69.363  1.00  0.00    -0.317 NA 
HETATM    2  H1  UNK A   1     -10.992  16.068  69.715  1.00  0.00     0.000 HD 
HETATM    3  H2  UNK A   1     -11.865  14.684  70.091  1.00  0.00     0.000 HD 
HETATM    4  C   UNK A   1     -11.157  14.674  68.135  1.00  0.00    -0.274 C  
HETATM    5  O   UNK A   1     -10.774  15.543  65.870  1.00  0.00    -0.321 OA 
HETATM    6  C   UNK A   1     -10.817  15.735  67.074  1.00  0.00    -0.273 C  
HETATM    7  O   UNK A   1     -10.563  16.936  67.654  1.00  0.00    -0.328 OA 
ENDROOT
BRANCH   4   8
HETATM    8  C   UNK A   1     -12.127  13.615  67.607  1.00  0.00    -0.328 C  
BRANCH   8   9
HETATM    9  C   UNK A   1     -11.625  12.173  67.702  1.00  0.00    -0.413 C  
BRANCH   9  10
HETATM   10  C   UNK A   1     -10.711  11.871  66.538  1.00  0.00    -0.258 C  
HETATM   11  N   UNK A   1      -9.591  11.137  66.868  1.00  0.00    -0.184 N  
HETATM   12  O   UNK A   1     -10.934  12.283  65.403  1.00  0.00    -0.283 OA 
HETATM   13  H   UNK A   1      -9.422  10.868  67.837  1.00  0.00     0.000 HD 
BRANCH  11  14
HETATM   14  C   UNK A   1      -8.642  10.748  65.817  1.00  0.00    -0.183 C  
BRANCH  14  15
HETATM   15  C   UNK A   1      -8.483   9.214  65.837  1.00  0.00    -0.141 C  
ATOM     16  H   GLY A   2     -10.468   9.028  66.390  1.00  0.00     0.000 HD 
ATOM     17  N   GLY A   2      -9.623   8.509  66.153  1.00  0.00    -0.228 N  
HETATM   18  O   UNK A   1      -7.419   8.659  65.611  1.00  0.00    -0.083 OA 
BRANCH  17  19
ATOM     19  CA  GLY A   2      -9.673   7.058  66.164  1.00  0.00     0.115 C  
ATOM     20  C   GLY A   2     -10.520   6.461  67.276  1.00  0.00    -0.263 C  
ATOM     21  O   GLY A   2     -10.642   7.238  68.394  1.00  0.00    -0.202 OA 
ATOM     22  OXT GLY A   2     -11.013   5.343  67.228  1.00  0.00    -0.093 OA 
ENDBRANCH  17  19
ENDBRANCH  14  15
BRANCH  14  23
HETATM   23  C   UNK A   1      -7.291  11.457  66.014  1.00  0.00     0.225 C  
BRANCH  23  24
HETATM   24  S   UNK A   1      -6.941  12.053  67.698  1.00  0.00    -0.132 SA 
BRANCH  24  25
HETATM   25  S   UNK A   1      -6.262  10.352  68.620  1.00  0.00    -0.047 SA 
BRANCH  25  26
HETATM   26  C   UNK A   1      -7.280  10.302  70.137  1.00  0.00    -0.129 C  
BRANCH  26  27
HETATM   27  C   UNK A   1      -8.066   8.997  70.361  1.00  0.00    -0.143 C  
BRANCH  27  28
HETATM   28  C   UNK A   1      -9.578   9.297  70.585  1.00  0.00    -0.273 C  
ATOM     29  H   GLY A   2      -9.662   8.009  72.227  1.00  0.00     0.000 HD 
ATOM     30  N   GLY A   2     -10.180   8.686  71.667  1.00  0.00    -0.266 N  
HETATM   31  O   UNK A   1     -10.191  10.132  69.922  1.00  0.00    -0.242 OA 
BRANCH  30  32
ATOM     32  CA  GLY A   2     -11.560   9.015  72.001  1.00  0.00    -0.343 C  
ATOM     33  OXT GLY A   2     -13.822   8.248  71.490  1.00  0.00    -0.358 OA 
ATOM     34  C   GLY A   2     -12.647   7.973  71.702  1.00  0.00    -0.322 C  
ATOM     35  O   GLY A   2     -12.264   6.697  71.897  1.00  0.00    -0.336 OA 
ENDBRANCH  30  32
ENDBRANCH  27  28
BRANCH  27  36
HETATM   36  N   UNK A   1      -7.696   7.887  69.455  1.00  0.00    -0.103 N  
HETATM   37  H   UNK A   1      -7.963   7.943  68.472  1.00  0.00     0.000 HD 
HETATM   38  O   UNK A   1      -6.525   6.691  71.019  1.00  0.00    -0.047 OA 
HETATM   39  C   UNK A   1      -7.005   6.782  69.894  1.00  0.00    -0.059 C  
BRANCH  39  40
HETATM   40  C   UNK A   1      -6.734   5.703  68.857  1.00  0.00    -0.053 C  
BRANCH  40  41
HETATM   41  C   UNK A   1      -7.831   4.639  68.659  1.00  0.00    -0.079 C  
BRANCH  41  42
HETATM   42  C   UNK A   1      -7.403   3.164  68.666  1.00  0.00    -0.049 C  
HETATM   43  N   UNK A   1      -5.960   2.993  68.347  1.00  0.00    -0.023 NA 
HETATM   44  C   UNK A   1      -8.190   2.397  67.620  1.00  0.00    -0.066 C  
HETATM   45  O   UNK A   1      -9.330   1.976  67.685  1.00  0.00    -0.164 OA 
HETATM   46  O   UNK A   1      -7.441   2.290  66.499  1.00  0.00    -0.064 OA 
HETATM   47  H2  UNK A   1      -5.377   3.548  68.972  1.00  0.00     0.000 HD 
HETATM   48  H1  UNK A   1      -5.676   2.013  68.352  1.00  0.00     0.000 HD 
ENDBRANCH  41  42
ENDBRANCH  40  41
ENDBRANCH  39  40
ENDBRANCH  27  36
ENDBRANCH  26  27
ENDBRANCH  25  26
ENDBRANCH  24  25
ENDBRANCH  23  24
ENDBRANCH  14  23
ENDBRANCH  11  14
ENDBRANCH   9  10
ENDBRANCH   8   9
ENDBRANCH   4   8
TORSDOF 17
ENDMDL
MODEL      234
REMARK 921   NORMALIZED FREE ENERGY PREDICTED BY IDOCK:   -3.61 KCAL/MOL
REMARK 922        TOTAL FREE ENERGY PREDICTED BY IDOCK:  -10.17 KCAL/MOL
REMARK 923 INTER-LIGAND FREE ENERGY PREDICTED BY IDOCK:   -8.79 KCAL/MOL
REMARK 924 INTRA-LIGAND FREE ENERGY PREDICTED BY IDOCK:   -1.38 KCAL/MOL
REMARK 927      BINDING AFFINITY PREDICTED BY RF-SCORE:    0.00 PKD
ROOT
HETATM    1  N   UNK A   1      -7.002  12.083  69.772  1.00  0.00    -0.339 NA 
HETATM    2  H1  UNK A   1      -6.838  12.137  70.777  1.00  0.00     0.000 HD 
HETATM    3  H2  UNK A   1      -7.073  11.111  69.469  1.00  0.00     0.000 HD 
HETATM    4  C   UNK A   1      -5.988  12.813  68.964  1.00  0.00    -0.084 C  
HETATM    5  O   UNK A   1      -5.499  15.216  68.818  1.00  0.00    -0.087 OA 
HETATM    6  C   UNK A   1      -5.909  14.265  69.466  1.00  0.00    -0.100 C  
HETATM    7  O   UNK A   1      -6.357  14.362  70.743  1.00  0.00    -0.178 OA 
ENDROOT
BRANCH   4   8
HETATM    8  C   UNK A   1      -6.235  12.732  67.456  1.00  0.00    -0.159 C  
BRANCH   8   9
HETATM    9  C   UNK A   1      -5.797  11.422  66.798  1.00  0.00    -0.135 C  
BRANCH   9  10
HETATM   10  C   UNK A   1      -7.008  10.671  66.297  1.00  0.00    -0.133 C  
HETATM   11  N   UNK A   1      -8.097  11.468  66.015  1.00  0.00    -0.378 N  
HETATM   12  O   UNK A   1      -7.025   9.448  66.194  1.00  0.00    -0.087 OA 
HETATM   13  H   UNK A   1      -8.050  12.474  66.173  1.00  0.00     0.000 HD 
BRANCH  11  14
HETATM   14  C   UNK A   1      -9.325  10.859  65.486  1.00  0.00    -0.206 C  
BRANCH  14  15
HETATM   15  C   UNK A   1      -9.853  11.735  64.331  1.00  0.00    -0.202 C  
ATOM     16  H   GLY A   2     -11.200  12.615  65.631  1.00  0.00     0.000 HD 
ATOM     17  N   GLY A   2     -10.851  12.620  64.674  1.00  0.00    -0.302 N  
HETATM   18  O   UNK A   1      -9.434  11.639  63.188  1.00  0.00    -0.345 OA 
BRANCH  17  19
ATOM     19  CA  GLY A   2     -11.425  13.561  63.729  1.00  0.00    -0.158 C  
ATOM     20  C   GLY A   2     -12.360  14.589  64.346  1.00  0.00    -0.413 C  
ATOM     21  O   GLY A   2     -12.975  14.193  65.501  1.00  0.00    -0.657 OA 
ATOM     22  OXT GLY A   2     -12.614  15.670  63.835  1.00  0.00    -0.697 OA 
ENDBRANCH  17  19
ENDBRANCH  14  15
BRANCH  14  23
HETATM   23  C   UNK A   1     -10.376  10.701  66.598  1.00  0.00    -0.241 C  
BRANCH  23  24
HETATM   24  S   UNK A   1     -10.530  12.098  67.755  1.00  0.00    -0.210 SA 
BRANCH  24  25
HETATM   25  S   UNK A   1     -11.392  11.206  69.387  1.00  0.00    -0.311 SA 
BRANCH  25  26
HETATM   26  C   UNK A   1     -10.113  10.002  69.890  1.00  0.00    -0.246 C  
BRANCH  26  27
HETATM   27  C   UNK A   1     -10.579   8.536  69.963  1.00  0.00    -0.227 C  
BRANCH  27  28
HETATM   28  C   UNK A   1     -10.062   7.733  68.732  1.00  0.00    -0.196 C  
ATOM     29  H   GLY A   2      -8.341   7.138  69.755  1.00  0.00     0.000 HD 
ATOM     30  N   GLY A   2      -8.877   7.044  68.893  1.00  0.00    -0.131 N  
HETATM   31  O   UNK A   1     -10.723   7.602  67.703  1.00  0.00    -0.232 OA 
BRANCH  30  32
ATOM     32  CA  GLY A   2      -8.397   6.180  67.821  1.00  0.00    -0.116 C  
ATOM     33  OXT GLY A   2      -6.721   4.442  67.454  1.00  0.00    -0.046 OA 
ATOM     34  C   GLY A   2      -7.544   4.961  68.198  1.00  0.00    -0.082 C  
ATOM     35  O   GLY A   2      -7.913   4.356  69.343  1.00  0.00    -0.061 OA 
ENDBRANCH  30  32
ENDBRANCH  27  28
BRANCH  27  36
HETATM   36  N   UNK A   1     -10.472   7.917  71.302  1.00  0.00    -0.202 N  
HETATM   37  H   UNK A   1     -11.212   7.289  71.617  1.00  0.00     0.000 HD 
HETATM   38  O   UNK A   1      -8.410   8.786  71.794  1.00  0.00    -0.254 OA 
HETATM   39  C   UNK A   1      -9.407   8.160  72.138  1.00  0.00    -0.206 C  
BRANCH  39  40
HETATM   40  C   UNK A   1      -9.454   7.487  73.501  1.00  0.00    -0.326 C  
BRANCH  40  41
HETATM   41  C   UNK A   1      -8.512   6.287  73.716  1.00  0.00    -0.124 C  
BRANCH  41  42
HETATM   42  C   UNK A   1      -9.064   4.886  73.415  1.00  0.00    -0.117 C  
HETATM   43  N   UNK A   1      -8.231   4.152  72.424  1.00  0.00    -0.097 NA 
HETATM   44  C   UNK A   1     -10.461   4.999  72.833  1.00  0.00    -0.208 C  
HETATM   45  O   UNK A   1     -11.512   5.191  73.416  1.00  0.00    -0.299 OA 
HETATM   46  O   UNK A   1     -10.382   4.922  71.485  1.00  0.00    -0.200 OA 
HETATM   47  H2  UNK A   1      -7.257   4.108  72.723  1.00  0.00     0.000 HD 
HETATM   48  H1  UNK A   1      -8.597   3.222  72.224  1.00  0.00     0.000 HD 
ENDBRANCH  41  42
ENDBRANCH  40  41
ENDBRANCH  39  40
ENDBRANCH  27  36
ENDBRANCH  26  27
ENDBRANCH  25  26
ENDBRANCH  24  25
ENDBRANCH  23  24
ENDBRANCH  14  23
ENDBRANCH  11  14
ENDBRANCH   9  10
ENDBRANCH   8   9
ENDBRANCH   4   8
TORSDOF 17
ENDMDL
MODEL      235
REMARK 921   NORMALIZED FREE ENERGY PREDICTED BY IDOCK:   -3.59 KCAL/MOL
REMARK 922        TOTAL FREE ENERGY PREDICTED BY IDOCK:  -10.14 KCAL/MOL
REMARK 923 INTER-LIGAND FREE ENERGY PREDICTED BY IDOCK:   -9.91 KCAL/MOL
REMARK 924 INTRA-LIGAND FREE ENERGY PREDICTED BY IDOCK:   -0.22 KCAL/MOL
REMARK 927      BINDING AFFINITY PREDICTED BY RF-SCORE:    0.00 PKD
ROOT
HETATM    1  N   UNK A   1      -6.430  13.757  71.036  1.00  0.00    -0.449 NA 
HETATM    2  H1  UNK A   1      -6.687  13.293  71.907  1.00  0.00     0.000 HD 
HETATM    3  H2  UNK A   1      -7.001  14.590  70.890  1.00  0.00     0.000 HD 
HETATM    4  C   UNK A   1      -6.486  12.865  69.847  1.00  0.00     0.046 C  
HETATM    5  O   UNK A   1      -5.134  10.897  69.269  1.00  0.00    -0.042 OA 
HETATM    6  C   UNK A   1      -5.624  11.621  70.122  1.00  0.00    -0.127 C  
HETATM    7  O   UNK A   1      -5.473  11.421  71.456  1.00  0.00    -0.349 OA 
ENDROOT
BRANCH   4   8
HETATM    8  C   UNK A   1      -6.101  13.562  68.541  1.00  0.00    -0.090 C  
BRANCH   8   9
HETATM    9  C   UNK A   1      -7.056  13.318  67.371  1.00  0.00    -0.111 C  
BRANCH   9  10
HETATM   10  C   UNK A   1      -8.315  14.131  67.560  1.00  0.00    -0.185 C  
HETATM   11  N   UNK A   1      -8.540  15.068  66.573  1.00  0.00    -0.439 N  
HETATM   12  O   UNK A   1      -9.047  13.991  68.535  1.00  0.00    -0.192 OA 
HETATM   13  H   UNK A   1      -7.870  15.185  65.814  1.00  0.00     0.000 HD 
BRANCH  11  14
HETATM   14  C   UNK A   1      -9.752  15.898  66.624  1.00  0.00    -0.253 C  
BRANCH  14  15
HETATM   15  C   UNK A   1      -9.854  16.539  68.024  1.00  0.00    -0.240 C  
ATOM     16  H   GLY A   2     -11.703  15.648  68.283  1.00  0.00     0.000 HD 
ATOM     17  N   GLY A   2     -10.995  16.229  68.730  1.00  0.00    -0.323 N  
HETATM   18  O   UNK A   1      -8.996  17.284  68.470  1.00  0.00    -0.260 OA 
BRANCH  17  19
ATOM     19  CA  GLY A   2     -11.232  16.696  70.085  1.00  0.00     0.009 C  
ATOM     20  C   GLY A   2     -11.950  15.701  70.981  1.00  0.00    -0.400 C  
ATOM     21  O   GLY A   2     -12.754  14.807  70.330  1.00  0.00    -0.347 OA 
ATOM     22  OXT GLY A   2     -11.887  15.718  72.202  1.00  0.00    -0.406 OA 
ENDBRANCH  17  19
ENDBRANCH  14  15
BRANCH  14  23
HETATM   23  C   UNK A   1     -10.999  15.059  66.298  1.00  0.00    -0.338 C  
BRANCH  23  24
HETATM   24  S   UNK A   1     -10.825  13.867  64.933  1.00  0.00    -0.425 SA 
BRANCH  24  25
HETATM   25  S   UNK A   1     -11.580  12.152  65.766  1.00  0.00    -0.301 SA 
BRANCH  25  26
HETATM   26  C   UNK A   1     -10.082  11.369  66.463  1.00  0.00    -0.215 C  
BRANCH  26  27
HETATM   27  C   UNK A   1     -10.339  10.272  67.512  1.00  0.00    -0.229 C  
BRANCH  27  28
HETATM   28  C   UNK A   1     -11.248  10.809  68.657  1.00  0.00    -0.274 C  
ATOM     29  H   GLY A   2     -11.437   8.905  69.495  1.00  0.00     0.000 HD 
ATOM     30  N   GLY A   2     -11.659   9.894  69.606  1.00  0.00    -0.108 N  
HETATM   31  O   UNK A   1     -11.493  12.006  68.800  1.00  0.00    -0.249 OA 
BRANCH  30  32
ATOM     32  CA  GLY A   2     -12.413  10.352  70.766  1.00  0.00    -0.368 C  
ATOM     33  OXT GLY A   2     -13.607   9.422  72.683  1.00  0.00    -0.425 OA 
ATOM     34  C   GLY A   2     -12.659   9.359  71.910  1.00  0.00    -0.401 C  
ATOM     35  O   GLY A   2     -11.633   8.519  72.148  1.00  0.00    -0.332 OA 
ENDBRANCH  30  32
ENDBRANCH  27  28
BRANCH  27  36
HETATM   36  N   UNK A   1     -10.632   8.934  66.951  1.00  0.00    -0.236 N  
HETATM   37  H   UNK A   1     -11.129   8.869  66.062  1.00  0.00     0.000 HD 
HETATM   38  O   UNK A   1      -9.539   7.755  68.583  1.00  0.00    -0.151 OA 
HETATM   39  C   UNK A   1     -10.256   7.775  67.588  1.00  0.00    -0.219 C  
BRANCH  39  40
HETATM   40  C   UNK A   1     -10.663   6.474  66.913  1.00  0.00    -0.403 C  
BRANCH  40  41
HETATM   41  C   UNK A   1      -9.528   5.608  66.334  1.00  0.00    -0.170 C  
BRANCH  41  42
HETATM   42  C   UNK A   1      -9.773   4.096  66.219  1.00  0.00    -0.206 C  
HETATM   43  N   UNK A   1      -8.555   3.302  66.530  1.00  0.00    -0.111 NA 
HETATM   44  C   UNK A   1     -10.186   3.750  64.801  1.00  0.00    -0.150 C  
HETATM   45  O   UNK A   1     -11.277   3.877  64.275  1.00  0.00    -0.335 OA 
HETATM   46  O   UNK A   1      -9.101   3.315  64.121  1.00  0.00    -0.109 OA 
HETATM   47  H2  UNK A   1      -8.180   3.545  67.447  1.00  0.00     0.000 HD 
HETATM   48  H1  UNK A   1      -8.717   2.297  66.454  1.00  0.00     0.000 HD 
ENDBRANCH  41  42
ENDBRANCH  40  41
ENDBRANCH  39  40
ENDBRANCH  27  36
ENDBRANCH  26  27
ENDBRANCH  25  26
ENDBRANCH  24  25
ENDBRANCH  23  24
ENDBRANCH  14  23
ENDBRANCH  11  14
ENDBRANCH   9  10
ENDBRANCH   8   9
ENDBRANCH   4   8
TORSDOF 17
ENDMDL
MODEL      236
REMARK 921   NORMALIZED FREE ENERGY PREDICTED BY IDOCK:   -3.59 KCAL/MOL
REMARK 922        TOTAL FREE ENERGY PREDICTED BY IDOCK:  -10.13 KCAL/MOL
REMARK 923 INTER-LIGAND FREE ENERGY PREDICTED BY IDOCK:   -8.19 KCAL/MOL
REMARK 924 INTRA-LIGAND FREE ENERGY PREDICTED BY IDOCK:   -1.94 KCAL/MOL
REMARK 927      BINDING AFFINITY PREDICTED BY RF-SCORE:    0.00 PKD
ROOT
HETATM    1  N   UNK A   1      -9.298  17.761  65.759  1.00  0.00    -0.450 NA 
HETATM    2  H1  UNK A   1      -9.129  18.545  65.129  1.00  0.00     0.000 HD 
HETATM    3  H2  UNK A   1      -9.620  16.944  65.239  1.00  0.00     0.000 HD 
HETATM    4  C   UNK A   1     -10.233  18.081  66.871  1.00  0.00    -0.362 C  
HETATM    5  O   UNK A   1      -9.985  19.629  68.762  1.00  0.00    -0.433 OA 
HETATM    6  C   UNK A   1      -9.712  19.325  67.612  1.00  0.00    -0.328 C  
HETATM    7  O   UNK A   1      -8.895  20.059  66.813  1.00  0.00    -0.324 OA 
ENDROOT
BRANCH   4   8
HETATM    8  C   UNK A   1     -10.485  16.905  67.816  1.00  0.00    -0.340 C  
BRANCH   8   9
HETATM    9  C   UNK A   1     -11.118  15.675  67.162  1.00  0.00    -0.218 C  
BRANCH   9  10
HETATM   10  C   UNK A   1     -10.040  14.694  66.764  1.00  0.00    -0.265 C  
HETATM   11  N   UNK A   1      -9.983  13.561  67.549  1.00  0.00    -0.227 N  
HETATM   12  O   UNK A   1      -9.258  14.915  65.844  1.00  0.00    -0.254 OA 
HETATM   13  H   UNK A   1     -10.619  13.452  68.338  1.00  0.00     0.000 HD 
BRANCH  11  14
HETATM   14  C   UNK A   1      -9.000  12.514  67.240  1.00  0.00    -0.192 C  
BRANCH  14  15
HETATM   15  C   UNK A   1      -9.677  11.445  66.359  1.00  0.00    -0.204 C  
ATOM     16  H   GLY A   2      -7.935  11.269  65.256  1.00  0.00     0.000 HD 
ATOM     17  N   GLY A   2      -8.882  10.908  65.371  1.00  0.00    -0.194 N  
HETATM   18  O   UNK A   1     -10.842  11.109  66.508  1.00  0.00    -0.274 OA 
BRANCH  17  19
ATOM     19  CA  GLY A   2      -9.334   9.849  64.485  1.00  0.00    -0.275 C  
ATOM     20  C   GLY A   2      -8.282   9.344  63.512  1.00  0.00    -0.168 C  
ATOM     21  O   GLY A   2      -7.309  10.248  63.187  1.00  0.00    -0.140 OA 
ATOM     22  OXT GLY A   2      -8.314   8.239  62.990  1.00  0.00    -0.157 OA 
ENDBRANCH  17  19
ENDBRANCH  14  15
BRANCH  14  23
HETATM   23  C   UNK A   1      -8.435  11.901  68.533  1.00  0.00    -0.113 C  
BRANCH  23  24
HETATM   24  S   UNK A   1      -8.298  10.086  68.563  1.00  0.00    -0.117 SA 
BRANCH  24  25
HETATM   25  S   UNK A   1      -9.176   9.623  70.356  1.00  0.00    -0.121 SA 
BRANCH  25  26
HETATM   26  C   UNK A   1     -10.525   8.499  69.848  1.00  0.00    -0.219 C  
BRANCH  26  27
HETATM   27  C   UNK A   1     -10.513   7.111  70.514  1.00  0.00    -0.212 C  
BRANCH  27  28
HETATM   28  C   UNK A   1     -10.070   6.017  69.497  1.00  0.00    -0.193 C  
ATOM     29  H   GLY A   2     -10.049   7.390  67.923  1.00  0.00     0.000 HD 
ATOM     30  N   GLY A   2      -9.846   6.430  68.199  1.00  0.00    -0.125 N  
HETATM   31  O   UNK A   1      -9.803   4.866  69.839  1.00  0.00    -0.184 OA 
BRANCH  30  32
ATOM     32  CA  GLY A   2      -9.318   5.482  67.225  1.00  0.00    -0.114 C  
ATOM     33  OXT GLY A   2      -8.437   5.466  64.947  1.00  0.00    -0.145 OA 
ATOM     34  C   GLY A   2      -8.532   6.035  66.028  1.00  0.00    -0.139 C  
ATOM     35  O   GLY A   2      -7.762   7.103  66.312  1.00  0.00    -0.095 OA 
ENDBRANCH  30  32
ENDBRANCH  27  28
BRANCH  27  36
HETATM   36  N   UNK A   1      -9.935   7.082  71.876  1.00  0.00    -0.168 N  
HETATM   37  H   UNK A   1      -9.064   7.582  72.053  1.00  0.00     0.000 HD 
HETATM   38  O   UNK A   1     -11.645   5.890  72.828  1.00  0.00    -0.266 OA 
HETATM   39  C   UNK A   1     -10.533   6.401  72.911  1.00  0.00    -0.220 C  
BRANCH  39  40
HETATM   40  C   UNK A   1      -9.800   6.425  74.244  1.00  0.00    -0.320 C  
BRANCH  40  41
HETATM   41  C   UNK A   1      -8.940   7.668  74.540  1.00  0.00     0.017 C  
BRANCH  41  42
HETATM   42  C   UNK A   1      -7.429   7.564  74.288  1.00  0.00    -0.129 C  
HETATM   43  N   UNK A   1      -6.972   8.481  73.209  1.00  0.00    -0.285 NA 
HETATM   44  C   UNK A   1      -7.076   6.152  73.858  1.00  0.00    -0.084 C  
HETATM   45  O   UNK A   1      -6.939   5.160  74.551  1.00  0.00    -0.075 OA 
HETATM   46  O   UNK A   1      -6.993   6.111  72.509  1.00  0.00    -0.076 OA 
HETATM   47  H2  UNK A   1      -7.248   9.443  73.402  1.00  0.00     0.000 HD 
HETATM   48  H1  UNK A   1      -5.968   8.412  73.041  1.00  0.00     0.000 HD 
ENDBRANCH  41  42
ENDBRANCH  40  41
ENDBRANCH  39  40
ENDBRANCH  27  36
ENDBRANCH  26  27
ENDBRANCH  25  26
ENDBRANCH  24  25
ENDBRANCH  23  24
ENDBRANCH  14  23
ENDBRANCH  11  14
ENDBRANCH   9  10
ENDBRANCH   8   9
ENDBRANCH   4   8
TORSDOF 17
ENDMDL
MODEL      237
REMARK 921   NORMALIZED FREE ENERGY PREDICTED BY IDOCK:   -3.59 KCAL/MOL
REMARK 922        TOTAL FREE ENERGY PREDICTED BY IDOCK:  -10.12 KCAL/MOL
REMARK 923 INTER-LIGAND FREE ENERGY PREDICTED BY IDOCK:   -9.40 KCAL/MOL
REMARK 924 INTRA-LIGAND FREE ENERGY PREDICTED BY IDOCK:   -0.72 KCAL/MOL
REMARK 927      BINDING AFFINITY PREDICTED BY RF-SCORE:    0.00 PKD
ROOT
HETATM    1  N   UNK A   1     -11.141   8.085  68.189  1.00  0.00    -0.352 NA 
HETATM    2  H1  UNK A   1     -11.821   7.384  68.485  1.00  0.00     0.000 HD 
HETATM    3  H2  UNK A   1     -11.536   9.023  68.258  1.00  0.00     0.000 HD 
HETATM    4  C   UNK A   1     -10.592   7.844  66.828  1.00  0.00    -0.163 C  
HETATM    5  O   UNK A   1      -9.177   6.023  65.981  1.00  0.00    -0.161 OA 
HETATM    6  C   UNK A   1     -10.022   6.416  66.770  1.00  0.00    -0.171 C  
HETATM    7  O   UNK A   1     -10.587   5.630  67.722  1.00  0.00    -0.227 OA 
ENDROOT
BRANCH   4   8
HETATM    8  C   UNK A   1      -9.572   8.895  66.385  1.00  0.00    -0.304 C  
BRANCH   8   9
HETATM    9  C   UNK A   1      -8.131   8.621  66.819  1.00  0.00    -0.101 C  
BRANCH   9  10
HETATM   10  C   UNK A   1      -7.901   9.173  68.206  1.00  0.00    -0.102 C  
HETATM   11  N   UNK A   1      -6.702   8.798  68.776  1.00  0.00    -0.054 N  
HETATM   12  O   UNK A   1      -8.735   9.862  68.786  1.00  0.00    -0.122 OA 
HETATM   13  H   UNK A   1      -6.068   8.176  68.275  1.00  0.00     0.000 HD 
BRANCH  11  14
HETATM   14  C   UNK A   1      -6.345   9.299  70.109  1.00  0.00    -0.047 C  
BRANCH  14  15
HETATM   15  C   UNK A   1      -7.094   8.465  71.168  1.00  0.00    -0.066 C  
ATOM     16  H   GLY A   2      -6.602   6.739  70.139  1.00  0.00     0.000 HD 
ATOM     17  N   GLY A   2      -7.066   7.102  70.971  1.00  0.00    -0.068 N  
HETATM   18  O   UNK A   1      -7.690   8.973  72.106  1.00  0.00    -0.351 OA 
BRANCH  17  19
ATOM     19  CA  GLY A   2      -7.669   6.161  71.898  1.00  0.00    -0.097 C  
ATOM     20  C   GLY A   2      -8.146   4.864  71.264  1.00  0.00    -0.105 C  
ATOM     21  O   GLY A   2      -8.478   4.953  69.941  1.00  0.00    -0.078 OA 
ATOM     22  OXT GLY A   2      -8.296   3.821  71.882  1.00  0.00    -0.082 OA 
ENDBRANCH  17  19
ENDBRANCH  14  15
BRANCH  14  23
HETATM   23  C   UNK A   1      -6.676  10.796  70.234  1.00  0.00    -0.045 C  
BRANCH  23  24
HETATM   24  S   UNK A   1      -5.475  11.945  69.492  1.00  0.00    -0.074 SA 
BRANCH  24  25
HETATM   25  S   UNK A   1      -6.031  13.736  70.320  1.00  0.00    -0.138 SA 
BRANCH  25  26
HETATM   26  C   UNK A   1      -6.804  14.593  68.903  1.00  0.00    -0.104 C  
BRANCH  26  27
HETATM   27  C   UNK A   1      -7.994  15.505  69.253  1.00  0.00    -0.238 C  
BRANCH  27  28
HETATM   28  C   UNK A   1      -7.566  17.003  69.223  1.00  0.00    -0.055 C  
ATOM     29  H   GLY A   2      -5.821  16.597  70.298  1.00  0.00     0.000 HD 
ATOM     30  N   GLY A   2      -6.354  17.314  69.805  1.00  0.00    -0.205 N  
HETATM   31  O   UNK A   1      -8.198  17.859  68.607  1.00  0.00    -0.299 OA 
BRANCH  30  32
ATOM     32  CA  GLY A   2      -5.840  18.675  69.710  1.00  0.00    -0.252 C  
ATOM     33  OXT GLY A   2      -5.674  20.691  71.078  1.00  0.00    -0.532 OA 
ATOM     34  C   GLY A   2      -5.643  19.469  71.009  1.00  0.00    -0.234 C  
ATOM     35  O   GLY A   2      -5.215  18.733  72.052  1.00  0.00    -0.744 OA 
ENDBRANCH  30  32
ENDBRANCH  27  28
BRANCH  27  36
HETATM   36  N   UNK A   1      -9.274  15.127  68.615  1.00  0.00    -0.188 N  
HETATM   37  H   UNK A   1      -9.262  14.757  67.665  1.00  0.00     0.000 HD 
HETATM   38  O   UNK A   1     -10.582  15.561  70.446  1.00  0.00    -0.317 OA 
HETATM   39  C   UNK A   1     -10.481  15.258  69.261  1.00  0.00    -0.258 C  
BRANCH  39  40
HETATM   40  C   UNK A   1     -11.717  14.869  68.464  1.00  0.00    -0.338 C  
BRANCH  40  41
HETATM   41  C   UNK A   1     -11.648  15.065  66.938  1.00  0.00    -0.229 C  
BRANCH  41  42
HETATM   42  C   UNK A   1     -11.088  13.910  66.095  1.00  0.00    -0.299 C  
HETATM   43  N   UNK A   1     -11.036  14.241  64.646  1.00  0.00    -0.499 NA 
HETATM   44  C   UNK A   1     -11.976  12.688  66.247  1.00  0.00    -0.374 C  
HETATM   45  O   UNK A   1     -12.014  11.886  67.162  1.00  0.00    -0.611 OA 
HETATM   46  O   UNK A   1     -12.828  12.632  65.198  1.00  0.00    -0.721 OA 
HETATM   47  H2  UNK A   1     -10.514  15.101  64.484  1.00  0.00     0.000 HD 
HETATM   48  H1  UNK A   1     -10.665  13.473  64.086  1.00  0.00     0.000 HD 
ENDBRANCH  41  42
ENDBRANCH  40  41
ENDBRANCH  39  40
ENDBRANCH  27  36
ENDBRANCH  26  27
ENDBRANCH  25  26
ENDBRANCH  24  25
ENDBRANCH  23  24
ENDBRANCH  14  23
ENDBRANCH  11  14
ENDBRANCH   9  10
ENDBRANCH   8   9
ENDBRANCH   4   8
TORSDOF 17
ENDMDL
MODEL      238
REMARK 921   NORMALIZED FREE ENERGY PREDICTED BY IDOCK:   -3.56 KCAL/MOL
REMARK 922        TOTAL FREE ENERGY PREDICTED BY IDOCK:  -10.08 KCAL/MOL
REMARK 923 INTER-LIGAND FREE ENERGY PREDICTED BY IDOCK:  -10.48 KCAL/MOL
REMARK 924 INTRA-LIGAND FREE ENERGY PREDICTED BY IDOCK:    0.41 KCAL/MOL
REMARK 927      BINDING AFFINITY PREDICTED BY RF-SCORE:    0.00 PKD
ROOT
HETATM    1  N   UNK A   1     -10.495   5.474  73.474  1.00  0.00    -0.233 NA 
HETATM    2  H1  UNK A   1     -11.188   5.271  74.194  1.00  0.00     0.000 HD 
HETATM    3  H2  UNK A   1     -10.635   6.410  73.092  1.00  0.00     0.000 HD 
HETATM    4  C   UNK A   1     -10.455   4.462  72.384  1.00  0.00    -0.149 C  
HETATM    5  O   UNK A   1      -9.801   2.095  72.433  1.00  0.00    -0.109 OA 
HETATM    6  C   UNK A   1     -10.257   3.070  73.009  1.00  0.00    -0.149 C  
HETATM    7  O   UNK A   1     -10.661   3.058  74.304  1.00  0.00    -0.178 OA 
ENDROOT
BRANCH   4   8
HETATM    8  C   UNK A   1      -9.415   4.768  71.304  1.00  0.00    -0.216 C  
BRANCH   8   9
HETATM    9  C   UNK A   1      -9.781   4.285  69.899  1.00  0.00    -0.291 C  
BRANCH   9  10
HETATM   10  C   UNK A   1      -9.454   5.359  68.887  1.00  0.00    -0.133 C  
HETATM   11  N   UNK A   1     -10.553   5.889  68.244  1.00  0.00    -0.236 N  
HETATM   12  O   UNK A   1      -8.301   5.695  68.636  1.00  0.00    -0.105 OA 
HETATM   13  H   UNK A   1     -11.487   5.534  68.448  1.00  0.00     0.000 HD 
BRANCH  11  14
HETATM   14  C   UNK A   1     -10.369   6.967  67.263  1.00  0.00    -0.251 C  
BRANCH  14  15
HETATM   15  C   UNK A   1      -9.072   6.700  66.474  1.00  0.00    -0.149 C  
ATOM     16  H   GLY A   2      -8.813   8.739  66.235  1.00  0.00     0.000 HD 
ATOM     17  N   GLY A   2      -8.402   7.826  66.047  1.00  0.00    -0.126 N  
HETATM   18  O   UNK A   1      -8.672   5.574  66.224  1.00  0.00    -0.120 OA 
BRANCH  17  19
ATOM     19  CA  GLY A   2      -7.134   7.766  65.340  1.00  0.00    -0.059 C  
ATOM     20  C   GLY A   2      -6.353   9.070  65.329  1.00  0.00    -0.064 C  
ATOM     21  O   GLY A   2      -7.110  10.202  65.445  1.00  0.00    -0.131 OA 
ATOM     22  OXT GLY A   2      -5.144   9.135  65.164  1.00  0.00    -0.036 OA 
ENDBRANCH  17  19
ENDBRANCH  14  15
BRANCH  14  23
HETATM   23  C   UNK A   1     -10.332   8.337  67.962  1.00  0.00    -0.213 C  
BRANCH  23  24
HETATM   24  S   UNK A   1      -9.291   8.445  69.451  1.00  0.00    -0.154 SA 
BRANCH  24  25
HETATM   25  S   UNK A   1      -8.348  10.245  69.182  1.00  0.00    -0.162 SA 
BRANCH  25  26
HETATM   26  C   UNK A   1      -9.411  11.055  67.935  1.00  0.00    -0.158 C  
BRANCH  26  27
HETATM   27  C   UNK A   1     -10.542  11.933  68.503  1.00  0.00    -0.222 C  
BRANCH  27  28
HETATM   28  C   UNK A   1     -11.220  12.757  67.368  1.00  0.00    -0.294 C  
ATOM     29  H   GLY A   2      -9.991  14.405  67.734  1.00  0.00     0.000 HD 
ATOM     30  N   GLY A   2     -10.715  14.019  67.129  1.00  0.00    -0.282 N  
HETATM   31  O   UNK A   1     -12.076  12.279  66.625  1.00  0.00    -0.612 OA 
BRANCH  30  32
ATOM     32  CA  GLY A   2     -11.226  14.797  66.007  1.00  0.00    -0.341 C  
ATOM     33  OXT GLY A   2     -10.872  16.967  64.945  1.00  0.00    -0.717 OA 
ATOM     34  C   GLY A   2     -10.398  15.993  65.517  1.00  0.00    -0.390 C  
ATOM     35  O   GLY A   2      -9.066  15.806  65.566  1.00  0.00    -0.235 OA 
ENDBRANCH  30  32
ENDBRANCH  27  28
BRANCH  27  36
HETATM   36  N   UNK A   1     -11.407  11.263  69.499  1.00  0.00    -0.273 N  
HETATM   37  H   UNK A   1     -11.469  10.245  69.493  1.00  0.00     0.000 HD 
HETATM   38  O   UNK A   1     -12.013  13.176  70.604  1.00  0.00    -0.308 OA 
HETATM   39  C   UNK A   1     -12.130  11.967  70.432  1.00  0.00    -0.321 C  
BRANCH  39  40
HETATM   40  C   UNK A   1     -13.008  11.145  71.363  1.00  0.00    -0.506 C  
BRANCH  40  41
HETATM   41  C   UNK A   1     -13.647   9.874  70.772  1.00  0.00     0.021 C  
BRANCH  41  42
HETATM   42  C   UNK A   1     -13.769   8.646  71.686  1.00  0.00    -0.384 C  
HETATM   43  N   UNK A   1     -13.903   9.020  73.119  1.00  0.00    -1.177 NA 
HETATM   44  C   UNK A   1     -12.523   7.788  71.560  1.00  0.00    -0.324 C  
HETATM   45  O   UNK A   1     -12.233   6.996  70.682  1.00  0.00    -0.330 OA 
HETATM   46  O   UNK A   1     -11.684   8.081  72.579  1.00  0.00    -0.367 OA 
HETATM   47  H2  UNK A   1     -14.683   9.662  73.261  1.00  0.00     0.000 HD 
HETATM   48  H1  UNK A   1     -13.984   8.205  73.727  1.00  0.00     0.000 HD 
ENDBRANCH  41  42
ENDBRANCH  40  41
ENDBRANCH  39  40
ENDBRANCH  27  36
ENDBRANCH  26  27
ENDBRANCH  25  26
ENDBRANCH  24  25
ENDBRANCH  23  24
ENDBRANCH  14  23
ENDBRANCH  11  14
ENDBRANCH   9  10
ENDBRANCH   8   9
ENDBRANCH   4   8
TORSDOF 17
ENDMDL
MODEL      239
REMARK 921   NORMALIZED FREE ENERGY PREDICTED BY IDOCK:   -3.53 KCAL/MOL
REMARK 922        TOTAL FREE ENERGY PREDICTED BY IDOCK:  -10.01 KCAL/MOL
REMARK 923 INTER-LIGAND FREE ENERGY PREDICTED BY IDOCK:   -9.21 KCAL/MOL
REMARK 924 INTRA-LIGAND FREE ENERGY PREDICTED BY IDOCK:   -0.79 KCAL/MOL
REMARK 927      BINDING AFFINITY PREDICTED BY RF-SCORE:    0.00 PKD
ROOT
HETATM    1  N   UNK A   1      -9.652   4.034  69.354  1.00  0.00    -0.193 NA 
HETATM    2  H1  UNK A   1      -9.811   3.119  69.775  1.00  0.00     0.000 HD 
HETATM    3  H2  UNK A   1     -10.532   4.451  69.052  1.00  0.00     0.000 HD 
HETATM    4  C   UNK A   1      -8.670   4.011  68.237  1.00  0.00    -0.100 C  
HETATM    5  O   UNK A   1      -6.262   3.524  68.244  1.00  0.00    -0.031 OA 
HETATM    6  C   UNK A   1      -7.367   3.362  68.737  1.00  0.00    -0.050 C  
HETATM    7  O   UNK A   1      -7.602   2.571  69.814  1.00  0.00    -0.043 OA 
ENDROOT
BRANCH   4   8
HETATM    8  C   UNK A   1      -8.430   5.384  67.605  1.00  0.00    -0.105 C  
BRANCH   8   9
HETATM    9  C   UNK A   1      -9.528   6.416  67.866  1.00  0.00    -0.115 C  
BRANCH   9  10
HETATM   10  C   UNK A   1      -9.261   7.130  69.171  1.00  0.00    -0.139 C  
HETATM   11  N   UNK A   1     -10.330   7.858  69.650  1.00  0.00    -0.212 N  
HETATM   12  O   UNK A   1      -8.168   7.092  69.728  1.00  0.00    -0.127 OA 
HETATM   13  H   UNK A   1     -11.199   7.904  69.119  1.00  0.00     0.000 HD 
BRANCH  11  14
HETATM   14  C   UNK A   1     -10.207   8.568  70.930  1.00  0.00    -0.200 C  
BRANCH  14  15
HETATM   15  C   UNK A   1     -10.847   7.706  72.037  1.00  0.00    -0.238 C  
ATOM     16  H   GLY A   2     -11.161   6.194  70.660  1.00  0.00     0.000 HD 
ATOM     17  N   GLY A   2     -11.260   6.453  71.641  1.00  0.00    -0.266 N  
HETATM   18  O   UNK A   1     -10.998   8.108  73.180  1.00  0.00    -0.262 OA 
BRANCH  17  19
ATOM     19  CA  GLY A   2     -11.831   5.486  72.562  1.00  0.00    -0.092 C  
ATOM     20  C   GLY A   2     -10.816   4.580  73.240  1.00  0.00    -0.269 C  
ATOM     21  O   GLY A   2      -9.659   4.378  72.540  1.00  0.00    -0.136 OA 
ATOM     22  OXT GLY A   2     -11.018   4.008  74.301  1.00  0.00    -0.177 OA 
ENDBRANCH  17  19
ENDBRANCH  14  15
BRANCH  14  23
HETATM   23  C   UNK A   1     -10.865   9.956  70.847  1.00  0.00    -0.286 C  
BRANCH  23  24
HETATM   24  S   UNK A   1     -11.508  10.438  69.213  1.00  0.00    -0.181 SA 
BRANCH  24  25
HETATM   25  S   UNK A   1     -10.450  12.151  68.828  1.00  0.00    -0.125 SA 
BRANCH  25  26
HETATM   26  C   UNK A   1     -11.436  13.419  69.701  1.00  0.00    -0.207 C  
BRANCH  26  27
HETATM   27  C   UNK A   1     -11.737  14.694  68.892  1.00  0.00    -0.309 C  
BRANCH  27  28
HETATM   28  C   UNK A   1     -10.503  15.645  68.887  1.00  0.00    -0.220 C  
ATOM     29  H   GLY A   2      -9.262  14.152  69.658  1.00  0.00     0.000 HD 
ATOM     30  N   GLY A   2      -9.300  15.104  69.295  1.00  0.00    -0.221 N  
HETATM   31  O   UNK A   1     -10.549  16.784  68.426  1.00  0.00    -0.316 OA 
BRANCH  30  32
ATOM     32  CA  GLY A   2      -8.086  15.905  69.205  1.00  0.00    -0.239 C  
ATOM     33  OXT GLY A   2      -5.766  15.843  69.967  1.00  0.00    -0.147 OA 
ATOM     34  C   GLY A   2      -6.749  15.238  69.557  1.00  0.00    -0.172 C  
ATOM     35  O   GLY A   2      -6.653  13.949  69.179  1.00  0.00    -0.101 OA 
ENDBRANCH  30  32
ENDBRANCH  27  28
BRANCH  27  36
HETATM   36  N   UNK A   1     -12.454  14.464  67.618  1.00  0.00    -0.530 N  
HETATM   37  H   UNK A   1     -13.473  14.425  67.625  1.00  0.00     0.000 HD 
HETATM   38  O   UNK A   1     -10.583  14.472  66.295  1.00  0.00    -0.292 OA 
HETATM   39  C   UNK A   1     -11.791  14.303  66.424  1.00  0.00    -0.411 C  
BRANCH  39  40
HETATM   40  C   UNK A   1     -12.659  14.032  65.204  1.00  0.00    -0.453 C  
BRANCH  40  41
HETATM   41  C   UNK A   1     -11.932  13.894  63.852  1.00  0.00    -0.372 C  
BRANCH  41  42
HETATM   42  C   UNK A   1     -11.926  12.511  63.185  1.00  0.00    -0.265 C  
HETATM   43  N   UNK A   1     -13.006  11.629  63.704  1.00  0.00    -0.529 NA 
HETATM   44  C   UNK A   1     -10.606  11.815  63.460  1.00  0.00    -0.440 C  
HETATM   45  O   UNK A   1      -9.530  11.985  62.915  1.00  0.00    -0.302 OA 
HETATM   46  O   UNK A   1     -10.763  10.970  64.504  1.00  0.00    -0.341 OA 
HETATM   47  H2  UNK A   1     -13.919  12.075  63.617  1.00  0.00     0.000 HD 
HETATM   48  H1  UNK A   1     -13.002  10.710  63.261  1.00  0.00     0.000 HD 
ENDBRANCH  41  42
ENDBRANCH  40  41
ENDBRANCH  39  40
ENDBRANCH  27  36
ENDBRANCH  26  27
ENDBRANCH  25  26
ENDBRANCH  24  25
ENDBRANCH  23  24
ENDBRANCH  14  23
ENDBRANCH  11  14
ENDBRANCH   9  10
ENDBRANCH   8   9
ENDBRANCH   4   8
TORSDOF 17
ENDMDL
MODEL      240
REMARK 921   NORMALIZED FREE ENERGY PREDICTED BY IDOCK:   -3.50 KCAL/MOL
REMARK 922        TOTAL FREE ENERGY PREDICTED BY IDOCK:   -9.96 KCAL/MOL
REMARK 923 INTER-LIGAND FREE ENERGY PREDICTED BY IDOCK:   -9.17 KCAL/MOL
REMARK 924 INTRA-LIGAND FREE ENERGY PREDICTED BY IDOCK:   -0.79 KCAL/MOL
REMARK 927      BINDING AFFINITY PREDICTED BY RF-SCORE:    0.00 PKD
ROOT
HETATM    1  N   UNK A   1     -10.848   8.016  72.856  1.00  0.00    -0.372 NA 
HETATM    2  H1  UNK A   1     -11.196   8.106  73.810  1.00  0.00     0.000 HD 
HETATM    3  H2  UNK A   1     -11.143   8.811  72.288  1.00  0.00     0.000 HD 
HETATM    4  C   UNK A   1     -11.226   6.734  72.203  1.00  0.00    -0.259 C  
HETATM    5  O   UNK A   1     -10.566   4.427  72.727  1.00  0.00    -0.188 OA 
HETATM    6  C   UNK A   1     -10.773   5.570  73.102  1.00  0.00    -0.268 C  
HETATM    7  O   UNK A   1     -10.632   5.978  74.389  1.00  0.00    -0.212 OA 
ENDROOT
BRANCH   4   8
HETATM    8  C   UNK A   1     -10.703   6.600  70.771  1.00  0.00    -0.282 C  
BRANCH   8   9
HETATM    9  C   UNK A   1     -11.095   7.740  69.830  1.00  0.00    -0.142 C  
BRANCH   9  10
HETATM   10  C   UNK A   1      -9.923   8.674  69.641  1.00  0.00    -0.191 C  
HETATM   11  N   UNK A   1      -9.444   8.734  68.349  1.00  0.00    -0.140 N  
HETATM   12  O   UNK A   1      -9.419   9.292  70.575  1.00  0.00    -0.224 OA 
HETATM   13  H   UNK A   1      -9.862   8.156  67.621  1.00  0.00     0.000 HD 
BRANCH  11  14
HETATM   14  C   UNK A   1      -8.329   9.634  68.030  1.00  0.00    -0.117 C  
BRANCH  14  15
HETATM   15  C   UNK A   1      -7.720   9.207  66.679  1.00  0.00    -0.097 C  
ATOM     16  H   GLY A   2      -9.620   8.810  65.963  1.00  0.00     0.000 HD 
ATOM     17  N   GLY A   2      -8.630   8.827  65.718  1.00  0.00    -0.153 N  
HETATM   18  O   UNK A   1      -6.516   9.186  66.476  1.00  0.00    -0.065 OA 
BRANCH  17  19
ATOM     19  CA  GLY A   2      -8.241   8.450  64.371  1.00  0.00    -0.138 C  
ATOM     20  C   GLY A   2      -8.332   6.961  64.078  1.00  0.00     0.184 C  
ATOM     21  O   GLY A   2      -8.201   6.146  65.168  1.00  0.00    -0.134 OA 
ATOM     22  OXT GLY A   2      -8.446   6.496  62.954  1.00  0.00     0.029 OA 
ENDBRANCH  17  19
ENDBRANCH  14  15
BRANCH  14  23
HETATM   23  C   UNK A   1      -7.276   9.615  69.152  1.00  0.00    -0.068 C  
BRANCH  23  24
HETATM   24  S   UNK A   1      -6.762  11.241  69.792  1.00  0.00    -0.048 SA 
BRANCH  24  25
HETATM   25  S   UNK A   1      -6.599  12.343  68.071  1.00  0.00    -0.095 SA 
BRANCH  25  26
HETATM   26  C   UNK A   1      -7.602  13.820  68.462  1.00  0.00    -0.134 C  
BRANCH  26  27
HETATM   27  C   UNK A   1      -8.298  14.481  67.258  1.00  0.00    -0.212 C  
BRANCH  27  28
HETATM   28  C   UNK A   1      -9.694  13.836  67.008  1.00  0.00    -0.251 C  
ATOM     29  H   GLY A   2     -10.111  15.172  65.457  1.00  0.00     0.000 HD 
ATOM     30  N   GLY A   2     -10.441  14.353  65.968  1.00  0.00    -0.291 N  
HETATM   31  O   UNK A   1     -10.076  12.834  67.610  1.00  0.00    -0.213 OA 
BRANCH  30  32
ATOM     32  CA  GLY A   2     -11.703  13.720  65.607  1.00  0.00    -0.347 C  
ATOM     33  OXT GLY A   2     -12.859  12.897  63.618  1.00  0.00    -0.692 OA 
ATOM     34  C   GLY A   2     -11.809  13.045  64.232  1.00  0.00    -0.396 C  
ATOM     35  O   GLY A   2     -10.684  12.426  63.827  1.00  0.00    -0.388 OA 
ENDBRANCH  30  32
ENDBRANCH  27  28
BRANCH  27  36
HETATM   36  N   UNK A   1      -8.186  15.956  67.210  1.00  0.00    -0.170 N  
HETATM   37  H   UNK A   1      -8.069  16.412  66.306  1.00  0.00     0.000 HD 
HETATM   38  O   UNK A   1      -8.511  16.286  69.453  1.00  0.00    -0.200 OA 
HETATM   39  C   UNK A   1      -8.235  16.731  68.345  1.00  0.00    -0.224 C  
BRANCH  39  40
HETATM   40  C   UNK A   1      -8.063  18.229  68.144  1.00  0.00    -0.297 C  
BRANCH  40  41
HETATM   41  C   UNK A   1      -9.254  19.123  68.539  1.00  0.00    -0.425 C  
BRANCH  41  42
HETATM   42  C   UNK A   1     -10.604  18.853  67.860  1.00  0.00    -0.352 C  
HETATM   43  N   UNK A   1     -11.104  17.477  68.123  1.00  0.00    -0.120 NA 
HETATM   44  C   UNK A   1     -10.460  19.000  66.357  1.00  0.00    -0.446 C  
HETATM   45  O   UNK A   1     -10.431  20.020  65.693  1.00  0.00    -0.458 OA 
HETATM   46  O   UNK A   1     -10.289  17.775  65.810  1.00  0.00    -0.570 OA 
HETATM   47  H2  UNK A   1     -11.151  17.287  69.124  1.00  0.00     0.000 HD 
HETATM   48  H1  UNK A   1     -12.001  17.297  67.672  1.00  0.00     0.000 HD 
ENDBRANCH  41  42
ENDBRANCH  40  41
ENDBRANCH  39  40
ENDBRANCH  27  36
ENDBRANCH  26  27
ENDBRANCH  25  26
ENDBRANCH  24  25
ENDBRANCH  23  24
ENDBRANCH  14  23
ENDBRANCH  11  14
ENDBRANCH   9  10
ENDBRANCH   8   9
ENDBRANCH   4   8
TORSDOF 17
ENDMDL
MODEL      241
REMARK 921   NORMALIZED FREE ENERGY PREDICTED BY IDOCK:   -3.50 KCAL/MOL
REMARK 922        TOTAL FREE ENERGY PREDICTED BY IDOCK:   -9.95 KCAL/MOL
REMARK 923 INTER-LIGAND FREE ENERGY PREDICTED BY IDOCK:   -8.78 KCAL/MOL
REMARK 924 INTRA-LIGAND FREE ENERGY PREDICTED BY IDOCK:   -1.17 KCAL/MOL
REMARK 927      BINDING AFFINITY PREDICTED BY RF-SCORE:    0.00 PKD
ROOT
HETATM    1  N   UNK A   1      -6.369  11.696  70.701  1.00  0.00    -0.512 NA 
HETATM    2  H1  UNK A   1      -5.743  11.666  71.506  1.00  0.00     0.000 HD 
HETATM    3  H2  UNK A   1      -6.370  10.801  70.212  1.00  0.00     0.000 HD 
HETATM    4  C   UNK A   1      -6.075  12.810  69.760  1.00  0.00    -0.131 C  
HETATM    5  O   UNK A   1      -6.251  15.241  70.066  1.00  0.00    -0.147 OA 
HETATM    6  C   UNK A   1      -6.070  14.133  70.546  1.00  0.00    -0.174 C  
HETATM    7  O   UNK A   1      -5.833  13.913  71.864  1.00  0.00    -0.364 OA 
ENDROOT
BRANCH   4   8
HETATM    8  C   UNK A   1      -7.014  12.855  68.553  1.00  0.00    -0.098 C  
BRANCH   8   9
HETATM    9  C   UNK A   1      -6.361  12.511  67.213  1.00  0.00    -0.126 C  
BRANCH   9  10
HETATM   10  C   UNK A   1      -7.278  11.616  66.411  1.00  0.00     0.133 C  
HETATM   11  N   UNK A   1      -8.555  12.108  66.249  1.00  0.00    -0.397 N  
HETATM   12  O   UNK A   1      -6.917  10.524  65.981  1.00  0.00    -0.122 OA 
HETATM   13  H   UNK A   1      -8.821  12.995  66.676  1.00  0.00     0.000 HD 
BRANCH  11  14
HETATM   14  C   UNK A   1      -9.531  11.347  65.457  1.00  0.00    -0.227 C  
BRANCH  14  15
HETATM   15  C   UNK A   1     -10.437  12.340  64.702  1.00  0.00    -0.303 C  
ATOM     16  H   GLY A   2     -10.745  13.380  66.463  1.00  0.00     0.000 HD 
ATOM     17  N   GLY A   2     -10.952  13.364  65.465  1.00  0.00    -0.281 N  
HETATM   18  O   UNK A   1     -10.699  12.220  63.515  1.00  0.00    -0.429 OA 
BRANCH  17  19
ATOM     19  CA  GLY A   2     -11.777  14.422  64.908  1.00  0.00    -0.408 C  
ATOM     20  C   GLY A   2     -11.132  15.798  64.914  1.00  0.00    -0.399 C  
ATOM     21  O   GLY A   2     -10.191  15.995  65.886  1.00  0.00    -0.321 OA 
ATOM     22  OXT GLY A   2     -11.457  16.704  64.160  1.00  0.00    -1.131 OA 
ENDBRANCH  17  19
ENDBRANCH  14  15
BRANCH  14  23
HETATM   23  C   UNK A   1     -10.353  10.412  66.361  1.00  0.00    -0.213 C  
BRANCH  23  24
HETATM   24  S   UNK A   1      -9.943  10.453  68.135  1.00  0.00    -0.154 SA 
BRANCH  24  25
HETATM   25  S   UNK A   1     -11.023   8.868  68.858  1.00  0.00     0.182 SA 
BRANCH  25  26
HETATM   26  C   UNK A   1      -9.882   7.467  68.586  1.00  0.00    -0.163 C  
BRANCH  26  27
HETATM   27  C   UNK A   1     -10.546   6.079  68.514  1.00  0.00    -0.265 C  
BRANCH  27  28
HETATM   28  C   UNK A   1      -9.930   5.235  67.360  1.00  0.00    -0.174 C  
ATOM     29  H   GLY A   2      -8.358   6.588  67.115  1.00  0.00     0.000 HD 
ATOM     30  N   GLY A   2      -8.746   5.694  66.817  1.00  0.00    -0.114 N  
HETATM   31  O   UNK A   1     -10.388   4.145  67.020  1.00  0.00     0.049 OA 
BRANCH  30  32
ATOM     32  CA  GLY A   2      -8.056   4.891  65.815  1.00  0.00    -0.112 C  
ATOM     33  OXT GLY A   2      -7.679   4.866  63.402  1.00  0.00    -0.065 OA 
ATOM     34  C   GLY A   2      -7.805   5.513  64.434  1.00  0.00    -0.110 C  
ATOM     35  O   GLY A   2      -7.515   6.828  64.460  1.00  0.00    -0.083 OA 
ENDBRANCH  30  32
ENDBRANCH  27  28
BRANCH  27  36
HETATM   36  N   UNK A   1     -10.764   5.427  69.824  1.00  0.00    -0.284 N  
HETATM   37  H   UNK A   1     -11.718   5.322  70.171  1.00  0.00     0.000 HD 
HETATM   38  O   UNK A   1      -8.563   4.914  70.196  1.00  0.00    -0.088 OA 
HETATM   39  C   UNK A   1      -9.723   4.957  70.590  1.00  0.00    -0.201 C  
BRANCH  39  40
HETATM   40  C   UNK A   1     -10.098   4.349  71.933  1.00  0.00    -0.245 C  
BRANCH  40  41
HETATM   41  C   UNK A   1     -11.028   5.181  72.837  1.00  0.00    -0.345 C  
BRANCH  41  42
HETATM   42  C   UNK A   1     -10.387   5.956  73.998  1.00  0.00    -0.285 C  
HETATM   43  N   UNK A   1     -10.900   7.348  74.099  1.00  0.00    -0.331 NA 
HETATM   44  C   UNK A   1      -8.886   6.043  73.789  1.00  0.00    -0.123 C  
HETATM   45  O   UNK A   1      -8.040   5.194  74.004  1.00  0.00    -0.101 OA 
HETATM   46  O   UNK A   1      -8.589   7.239  73.232  1.00  0.00    -0.124 OA 
HETATM   47  H2  UNK A   1     -11.917   7.362  74.165  1.00  0.00     0.000 HD 
HETATM   48  H1  UNK A   1     -10.474   7.863  74.870  1.00  0.00     0.000 HD 
ENDBRANCH  41  42
ENDBRANCH  40  41
ENDBRANCH  39  40
ENDBRANCH  27  36
ENDBRANCH  26  27
ENDBRANCH  25  26
ENDBRANCH  24  25
ENDBRANCH  23  24
ENDBRANCH  14  23
ENDBRANCH  11  14
ENDBRANCH   9  10
ENDBRANCH   8   9
ENDBRANCH   4   8
TORSDOF 17
ENDMDL
MODEL      242
REMARK 921   NORMALIZED FREE ENERGY PREDICTED BY IDOCK:   -3.49 KCAL/MOL
REMARK 922        TOTAL FREE ENERGY PREDICTED BY IDOCK:   -9.93 KCAL/MOL
REMARK 923 INTER-LIGAND FREE ENERGY PREDICTED BY IDOCK:   -8.28 KCAL/MOL
REMARK 924 INTRA-LIGAND FREE ENERGY PREDICTED BY IDOCK:   -1.65 KCAL/MOL
REMARK 927      BINDING AFFINITY PREDICTED BY RF-SCORE:    0.00 PKD
ROOT
HETATM    1  N   UNK A   1     -10.112   3.105  72.375  1.00  0.00    -0.162 NA 
HETATM    2  H1  UNK A   1     -10.601   2.696  73.170  1.00  0.00     0.000 HD 
HETATM    3  H2  UNK A   1      -9.277   2.564  72.148  1.00  0.00     0.000 HD 
HETATM    4  C   UNK A   1      -9.774   4.542  72.559  1.00  0.00    -0.151 C  
HETATM    5  O   UNK A   1     -11.234   6.508  72.750  1.00  0.00    -0.257 OA 
HETATM    6  C   UNK A   1     -11.059   5.311  72.911  1.00  0.00    -0.305 C  
HETATM    7  O   UNK A   1     -11.994   4.478  73.436  1.00  0.00    -0.149 OA 
ENDROOT
BRANCH   4   8
HETATM    8  C   UNK A   1      -9.039   5.155  71.364  1.00  0.00    -0.171 C  
BRANCH   8   9
HETATM    9  C   UNK A   1      -9.801   5.102  70.039  1.00  0.00    -0.295 C  
BRANCH   9  10
HETATM   10  C   UNK A   1      -9.711   6.439  69.342  1.00  0.00    -0.145 C  
HETATM   11  N   UNK A   1      -8.495   6.687  68.741  1.00  0.00    -0.123 N  
HETATM   12  O   UNK A   1     -10.634   7.248  69.351  1.00  0.00    -0.222 OA 
HETATM   13  H   UNK A   1      -7.740   6.006  68.812  1.00  0.00     0.000 HD 
BRANCH  11  14
HETATM   14  C   UNK A   1      -8.294   7.939  68.000  1.00  0.00    -0.123 C  
BRANCH  14  15
HETATM   15  C   UNK A   1      -8.302   7.625  66.490  1.00  0.00    -0.129 C  
ATOM     16  H   GLY A   2      -6.910   6.128  66.805  1.00  0.00     0.000 HD 
ATOM     17  N   GLY A   2      -7.487   6.586  66.100  1.00  0.00    -0.080 N  
HETATM   18  O   UNK A   1      -8.968   8.263  65.688  1.00  0.00    -0.171 OA 
BRANCH  17  19
ATOM     19  CA  GLY A   2      -7.413   6.116  64.728  1.00  0.00    -0.084 C  
ATOM     20  C   GLY A   2      -8.516   5.149  64.329  1.00  0.00    -0.131 C  
ATOM     21  O   GLY A   2      -9.052   4.425  65.357  1.00  0.00    -0.130 OA 
ATOM     22  OXT GLY A   2      -8.870   4.962  63.175  1.00  0.00    -0.134 OA 
ENDBRANCH  17  19
ENDBRANCH  14  15
BRANCH  14  23
HETATM   23  C   UNK A   1      -6.981   8.618  68.425  1.00  0.00    -0.066 C  
BRANCH  23  24
HETATM   24  S   UNK A   1      -6.566  10.166  67.561  1.00  0.00    -0.068 SA 
BRANCH  24  25
HETATM   25  S   UNK A   1      -7.320  11.581  68.839  1.00  0.00    -0.096 SA 
BRANCH  25  26
HETATM   26  C   UNK A   1      -9.083  11.635  68.358  1.00  0.00    -0.180 C  
BRANCH  26  27
HETATM   27  C   UNK A   1      -9.700  13.044  68.271  1.00  0.00    -0.221 C  
BRANCH  27  28
HETATM   28  C   UNK A   1     -11.201  13.012  68.686  1.00  0.00    -0.277 C  
ATOM     29  H   GLY A   2     -10.712  12.675  70.688  1.00  0.00     0.000 HD 
ATOM     30  N   GLY A   2     -11.471  12.849  70.030  1.00  0.00    -0.094 N  
HETATM   31  O   UNK A   1     -12.111  13.247  67.892  1.00  0.00    -0.331 OA 
BRANCH  30  32
ATOM     32  CA  GLY A   2     -12.848  12.927  70.500  1.00  0.00     0.106 C  
ATOM     33  OXT GLY A   2     -14.076  13.275  72.582  1.00  0.00    -0.744 OA 
ATOM     34  C   GLY A   2     -13.109  13.545  71.881  1.00  0.00    -0.384 C  
ATOM     35  O   GLY A   2     -12.305  14.580  72.189  1.00  0.00    -0.322 OA 
ENDBRANCH  30  32
ENDBRANCH  27  28
BRANCH  27  36
HETATM   36  N   UNK A   1      -8.845  14.129  68.802  1.00  0.00    -0.337 N  
HETATM   37  H   UNK A   1      -8.329  13.971  69.667  1.00  0.00     0.000 HD 
HETATM   38  O   UNK A   1      -9.195  15.573  67.058  1.00  0.00    -0.208 OA 
HETATM   39  C   UNK A   1      -8.725  15.343  68.167  1.00  0.00    -0.161 C  
BRANCH  39  40
HETATM   40  C   UNK A   1      -7.845  16.377  68.853  1.00  0.00    -0.234 C  
BRANCH  40  41
HETATM   41  C   UNK A   1      -7.437  17.605  68.018  1.00  0.00    -0.223 C  
BRANCH  41  42
HETATM   42  C   UNK A   1      -7.829  18.991  68.551  1.00  0.00    -0.340 C  
HETATM   43  N   UNK A   1      -9.259  19.311  68.295  1.00  0.00    -0.327 NA 
HETATM   44  C   UNK A   1      -6.999  20.058  67.862  1.00  0.00    -0.275 C  
HETATM   45  O   UNK A   1      -5.850  20.392  68.092  1.00  0.00    -0.222 OA 
HETATM   46  O   UNK A   1      -7.717  20.585  66.845  1.00  0.00    -0.309 OA 
HETATM   47  H2  UNK A   1      -9.871  18.586  68.669  1.00  0.00     0.000 HD 
HETATM   48  H1  UNK A   1      -9.520  20.231  68.648  1.00  0.00     0.000 HD 
ENDBRANCH  41  42
ENDBRANCH  40  41
ENDBRANCH  39  40
ENDBRANCH  27  36
ENDBRANCH  26  27
ENDBRANCH  25  26
ENDBRANCH  24  25
ENDBRANCH  23  24
ENDBRANCH  14  23
ENDBRANCH  11  14
ENDBRANCH   9  10
ENDBRANCH   8   9
ENDBRANCH   4   8
TORSDOF 17
ENDMDL
MODEL      243
REMARK 921   NORMALIZED FREE ENERGY PREDICTED BY IDOCK:   -3.48 KCAL/MOL
REMARK 922        TOTAL FREE ENERGY PREDICTED BY IDOCK:   -9.91 KCAL/MOL
REMARK 923 INTER-LIGAND FREE ENERGY PREDICTED BY IDOCK:   -8.48 KCAL/MOL
REMARK 924 INTRA-LIGAND FREE ENERGY PREDICTED BY IDOCK:   -1.43 KCAL/MOL
REMARK 927      BINDING AFFINITY PREDICTED BY RF-SCORE:    0.00 PKD
ROOT
HETATM    1  N   UNK A   1      -6.815   9.458  71.680  1.00  0.00    -0.313 NA 
HETATM    2  H1  UNK A   1      -7.525   9.942  72.229  1.00  0.00     0.000 HD 
HETATM    3  H2  UNK A   1      -6.947   9.634  70.684  1.00  0.00     0.000 HD 
HETATM    4  C   UNK A   1      -6.746   7.997  71.951  1.00  0.00    -0.067 C  
HETATM    5  O   UNK A   1      -6.089   6.785  73.984  1.00  0.00    -0.063 OA 
HETATM    6  C   UNK A   1      -6.561   7.783  73.464  1.00  0.00    -0.085 C  
HETATM    7  O   UNK A   1      -6.997   8.861  74.163  1.00  0.00    -0.369 OA 
ENDROOT
BRANCH   4   8
HETATM    8  C   UNK A   1      -5.681   7.271  71.127  1.00  0.00    -0.035 C  
BRANCH   8   9
HETATM    9  C   UNK A   1      -6.046   5.845  70.709  1.00  0.00    -0.030 C  
BRANCH   9  10
HETATM   10  C   UNK A   1      -7.347   5.854  69.942  1.00  0.00    -0.075 C  
HETATM   11  N   UNK A   1      -7.356   6.689  68.844  1.00  0.00    -0.091 N  
HETATM   12  O   UNK A   1      -8.324   5.201  70.298  1.00  0.00    -0.094 OA 
HETATM   13  H   UNK A   1      -6.537   7.255  68.624  1.00  0.00     0.000 HD 
BRANCH  11  14
HETATM   14  C   UNK A   1      -8.552   6.758  67.995  1.00  0.00    -0.122 C  
BRANCH  14  15
HETATM   15  C   UNK A   1      -8.379   5.778  66.816  1.00  0.00    -0.109 C  
ATOM     16  H   GLY A   2      -9.856   4.571  67.619  1.00  0.00     0.000 HD 
ATOM     17  N   GLY A   2      -9.219   4.686  66.831  1.00  0.00    -0.120 N  
HETATM   18  O   UNK A   1      -7.544   5.943  65.940  1.00  0.00    -0.083 OA 
BRANCH  17  19
ATOM     19  CA  GLY A   2      -9.235   3.692  65.772  1.00  0.00    -0.159 C  
ATOM     20  C   GLY A   2     -10.305   3.910  64.715  1.00  0.00    -0.173 C  
ATOM     21  O   GLY A   2     -11.411   4.591  65.141  1.00  0.00    -0.119 OA 
ATOM     22  OXT GLY A   2     -10.239   3.462  63.580  1.00  0.00    -0.169 OA 
ENDBRANCH  17  19
ENDBRANCH  14  15
BRANCH  14  23
HETATM   23  C   UNK A   1      -8.786   8.196  67.501  1.00  0.00    -0.129 C  
BRANCH  23  24
HETATM   24  S   UNK A   1     -10.334   8.485  66.588  1.00  0.00    -0.130 SA 
BRANCH  24  25
HETATM   25  S   UNK A   1     -10.260  10.506  66.253  1.00  0.00    -0.219 SA 
BRANCH  25  26
HETATM   26  C   UNK A   1     -10.185  11.176  67.952  1.00  0.00    -0.180 C  
BRANCH  26  27
HETATM   27  C   UNK A   1     -11.546  11.514  68.589  1.00  0.00    -0.313 C  
BRANCH  27  28
HETATM   28  C   UNK A   1     -11.782  10.656  69.867  1.00  0.00    -0.317 C  
ATOM     29  H   GLY A   2     -10.194   9.384  69.391  1.00  0.00     0.000 HD 
ATOM     30  N   GLY A   2     -10.904   9.614  70.087  1.00  0.00    -0.259 N  
HETATM   31  O   UNK A   1     -12.623  10.951  70.715  1.00  0.00    -0.340 OA 
BRANCH  30  32
ATOM     32  CA  GLY A   2     -10.997   8.844  71.322  1.00  0.00    -0.293 C  
ATOM     33  OXT GLY A   2     -12.240   6.949  72.232  1.00  0.00    -0.242 OA 
ATOM     34  C   GLY A   2     -11.690   7.475  71.272  1.00  0.00    -0.287 C  
ATOM     35  O   GLY A   2     -11.468   6.779  70.141  1.00  0.00    -0.333 OA 
ENDBRANCH  30  32
ENDBRANCH  27  28
BRANCH  27  36
HETATM   36  N   UNK A   1     -11.863  12.958  68.643  1.00  0.00    -0.319 N  
HETATM   37  H   UNK A   1     -12.841  13.247  68.683  1.00  0.00     0.000 HD 
HETATM   38  O   UNK A   1      -9.688  13.671  68.732  1.00  0.00    -0.157 OA 
HETATM   39  C   UNK A   1     -10.884  13.924  68.639  1.00  0.00    -0.262 C  
BRANCH  39  40
HETATM   40  C   UNK A   1     -11.363  15.368  68.655  1.00  0.00    -0.337 C  
BRANCH  40  41
HETATM   41  C   UNK A   1     -11.008  16.230  67.428  1.00  0.00    -0.175 C  
BRANCH  41  42
HETATM   42  C   UNK A   1     -10.094  17.443  67.651  1.00  0.00    -0.327 C  
HETATM   43  N   UNK A   1     -10.842  18.632  68.139  1.00  0.00    -0.285 NA 
HETATM   44  C   UNK A   1      -9.433  17.834  66.342  1.00  0.00    -0.264 C  
HETATM   45  O   UNK A   1      -8.474  17.323  65.793  1.00  0.00    -0.532 OA 
HETATM   46  O   UNK A   1     -10.131  18.850  65.784  1.00  0.00    -0.508 OA 
HETATM   47  H2  UNK A   1     -11.373  18.412  68.982  1.00  0.00     0.000 HD 
HETATM   48  H1  UNK A   1     -10.235  19.438  68.287  1.00  0.00     0.000 HD 
ENDBRANCH  41  42
ENDBRANCH  40  41
ENDBRANCH  39  40
ENDBRANCH  27  36
ENDBRANCH  26  27
ENDBRANCH  25  26
ENDBRANCH  24  25
ENDBRANCH  23  24
ENDBRANCH  14  23
ENDBRANCH  11  14
ENDBRANCH   9  10
ENDBRANCH   8   9
ENDBRANCH   4   8
TORSDOF 17
ENDMDL
MODEL      244
REMARK 921   NORMALIZED FREE ENERGY PREDICTED BY IDOCK:   -3.47 KCAL/MOL
REMARK 922        TOTAL FREE ENERGY PREDICTED BY IDOCK:   -9.90 KCAL/MOL
REMARK 923 INTER-LIGAND FREE ENERGY PREDICTED BY IDOCK:   -9.28 KCAL/MOL
REMARK 924 INTRA-LIGAND FREE ENERGY PREDICTED BY IDOCK:   -0.61 KCAL/MOL
REMARK 927      BINDING AFFINITY PREDICTED BY RF-SCORE:    0.00 PKD
ROOT
HETATM    1  N   UNK A   1      -9.706  14.533  69.452  1.00  0.00    -0.424 NA 
HETATM    2  H1  UNK A   1      -9.015  14.986  68.855  1.00  0.00     0.000 HD 
HETATM    3  H2  UNK A   1      -9.248  13.996  70.190  1.00  0.00     0.000 HD 
HETATM    4  C   UNK A   1     -10.671  13.682  68.704  1.00  0.00    -0.256 C  
HETATM    5  O   UNK A   1     -12.396  14.296  67.067  1.00  0.00    -0.386 OA 
HETATM    6  C   UNK A   1     -11.322  14.530  67.597  1.00  0.00    -0.337 C  
HETATM    7  O   UNK A   1     -10.538  15.590  67.274  1.00  0.00    -0.287 OA 
ENDROOT
BRANCH   4   8
HETATM    8  C   UNK A   1     -11.708  13.002  69.601  1.00  0.00    -0.364 C  
BRANCH   8   9
HETATM    9  C   UNK A   1     -12.271  11.688  69.056  1.00  0.00    -0.162 C  
BRANCH   9  10
HETATM   10  C   UNK A   1     -11.171  10.657  68.967  1.00  0.00    -0.265 C  
HETATM   11  N   UNK A   1     -10.280  10.682  70.019  1.00  0.00    -0.412 N  
HETATM   12  O   UNK A   1     -11.063   9.892  68.013  1.00  0.00    -0.249 OA 
HETATM   13  H   UNK A   1     -10.381  11.376  70.759  1.00  0.00     0.000 HD 
BRANCH  11  14
HETATM   14  C   UNK A   1      -9.185   9.704  70.067  1.00  0.00    -0.241 C  
BRANCH  14  15
HETATM   15  C   UNK A   1      -7.908  10.365  69.511  1.00  0.00    -0.155 C  
ATOM     16  H   GLY A   2      -8.964  10.971  67.838  1.00  0.00     0.000 HD 
ATOM     17  N   GLY A   2      -8.056  11.007  68.301  1.00  0.00    -0.121 N  
HETATM   18  O   UNK A   1      -6.833  10.309  70.087  1.00  0.00    -0.127 OA 
BRANCH  17  19
ATOM     19  CA  GLY A   2      -6.975  11.732  67.657  1.00  0.00    -0.103 C  
ATOM     20  C   GLY A   2      -6.171  10.916  66.658  1.00  0.00    -0.113 C  
ATOM     21  O   GLY A   2      -6.157   9.568  66.887  1.00  0.00    -0.061 OA 
ATOM     22  OXT GLY A   2      -5.521  11.407  65.748  1.00  0.00    -0.239 OA 
ENDBRANCH  17  19
ENDBRANCH  14  15
BRANCH  14  23
HETATM   23  C   UNK A   1      -9.554   8.437  69.275  1.00  0.00    -0.164 C  
BRANCH  23  24
HETATM   24  S   UNK A   1      -8.347   7.075  69.342  1.00  0.00    -0.133 SA 
BRANCH  24  25
HETATM   25  S   UNK A   1      -8.981   5.870  67.810  1.00  0.00    -0.109 SA 
BRANCH  25  26
HETATM   26  C   UNK A   1      -9.136   7.054  66.426  1.00  0.00    -0.160 C  
BRANCH  26  27
HETATM   27  C   UNK A   1      -7.999   7.008  65.389  1.00  0.00    -0.129 C  
BRANCH  27  28
HETATM   28  C   UNK A   1      -7.833   5.568  64.819  1.00  0.00    -0.106 C  
ATOM     29  H   GLY A   2      -9.382   5.858  63.447  1.00  0.00     0.000 HD 
ATOM     30  N   GLY A   2      -8.653   5.218  63.765  1.00  0.00    -0.098 N  
HETATM   31  O   UNK A   1      -6.938   4.810  65.188  1.00  0.00    -0.059 OA 
BRANCH  30  32
ATOM     32  CA  GLY A   2      -8.470   3.929  63.110  1.00  0.00    -0.092 C  
ATOM     33  OXT GLY A   2      -9.413   1.677  63.160  1.00  0.00    -0.090 OA 
ATOM     34  C   GLY A   2      -9.590   2.887  63.235  1.00  0.00    -0.096 C  
ATOM     35  O   GLY A   2     -10.835   3.401  63.221  1.00  0.00    -0.226 OA 
ENDBRANCH  30  32
ENDBRANCH  27  28
BRANCH  27  36
HETATM   36  N   UNK A   1      -7.976   8.146  64.443  1.00  0.00    -0.142 N  
HETATM   37  H   UNK A   1      -7.378   8.091  63.619  1.00  0.00     0.000 HD 
HETATM   38  O   UNK A   1      -9.583   9.374  65.520  1.00  0.00    -0.268 OA 
HETATM   39  C   UNK A   1      -8.736   9.276  64.638  1.00  0.00    -0.192 C  
BRANCH  39  40
HETATM   40  C   UNK A   1      -8.576  10.381  63.605  1.00  0.00    -0.186 C  
BRANCH  40  41
HETATM   41  C   UNK A   1      -9.871  11.010  63.056  1.00  0.00    -0.370 C  
BRANCH  41  42
HETATM   42  C   UNK A   1     -10.374  12.299  63.720  1.00  0.00    -0.435 C  
HETATM   43  N   UNK A   1      -9.634  12.617  64.970  1.00  0.00    -0.476 NA 
HETATM   44  C   UNK A   1     -11.838  12.147  64.091  1.00  0.00    -0.404 C  
HETATM   45  O   UNK A   1     -12.817  12.239  63.372  1.00  0.00    -0.754 OA 
HETATM   46  O   UNK A   1     -11.927  11.804  65.396  1.00  0.00    -0.294 OA 
HETATM   47  H2  UNK A   1      -8.629  12.658  64.802  1.00  0.00     0.000 HD 
HETATM   48  H1  UNK A   1      -9.968  13.473  65.412  1.00  0.00     0.000 HD 
ENDBRANCH  41  42
ENDBRANCH  40  41
ENDBRANCH  39  40
ENDBRANCH  27  36
ENDBRANCH  26  27
ENDBRANCH  25  26
ENDBRANCH  24  25
ENDBRANCH  23  24
ENDBRANCH  14  23
ENDBRANCH  11  14
ENDBRANCH   9  10
ENDBRANCH   8   9
ENDBRANCH   4   8
TORSDOF 17
ENDMDL
MODEL      245
REMARK 921   NORMALIZED FREE ENERGY PREDICTED BY IDOCK:   -3.45 KCAL/MOL
REMARK 922        TOTAL FREE ENERGY PREDICTED BY IDOCK:   -9.85 KCAL/MOL
REMARK 923 INTER-LIGAND FREE ENERGY PREDICTED BY IDOCK:   -9.10 KCAL/MOL
REMARK 924 INTRA-LIGAND FREE ENERGY PREDICTED BY IDOCK:   -0.75 KCAL/MOL
REMARK 927      BINDING AFFINITY PREDICTED BY RF-SCORE:    0.00 PKD
ROOT
HETATM    1  N   UNK A   1     -12.825  15.141  63.535  1.00  0.00    -0.269 NA 
HETATM    2  H1  UNK A   1     -13.260  16.063  63.504  1.00  0.00     0.000 HD 
HETATM    3  H2  UNK A   1     -13.531  14.407  63.479  1.00  0.00     0.000 HD 
HETATM    4  C   UNK A   1     -11.946  14.938  64.718  1.00  0.00    -0.361 C  
HETATM    5  O   UNK A   1      -9.832  16.025  65.335  1.00  0.00    -0.440 OA 
HETATM    6  C   UNK A   1     -10.910  16.075  64.765  1.00  0.00    -0.294 C  
HETATM    7  O   UNK A   1     -11.352  17.162  64.083  1.00  0.00    -1.031 OA 
ENDROOT
BRANCH   4   8
HETATM    8  C   UNK A   1     -11.293  13.555  64.764  1.00  0.00    -0.362 C  
BRANCH   8   9
HETATM    9  C   UNK A   1     -12.027  12.521  65.621  1.00  0.00    -0.492 C  
BRANCH   9  10
HETATM   10  C   UNK A   1     -11.392  12.448  66.990  1.00  0.00    -0.327 C  
HETATM   11  N   UNK A   1     -10.372  13.353  67.194  1.00  0.00    -0.245 N  
HETATM   12  O   UNK A   1     -11.735  11.620  67.829  1.00  0.00    -0.489 OA 
HETATM   13  H   UNK A   1     -10.086  13.982  66.444  1.00  0.00     0.000 HD 
BRANCH  11  14
HETATM   14  C   UNK A   1      -9.699  13.406  68.499  1.00  0.00    -0.156 C  
BRANCH  14  15
HETATM   15  C   UNK A   1      -8.747  14.619  68.515  1.00  0.00    -0.176 C  
ATOM     16  H   GLY A   2     -10.298  15.829  67.876  1.00  0.00     0.000 HD 
ATOM     17  N   GLY A   2      -9.319  15.820  68.161  1.00  0.00    -0.193 N  
HETATM   18  O   UNK A   1      -7.564  14.523  68.801  1.00  0.00    -0.120 OA 
BRANCH  17  19
ATOM     19  CA  GLY A   2      -8.588  17.075  68.177  1.00  0.00    -0.228 C  
ATOM     20  C   GLY A   2      -9.461  18.318  68.111  1.00  0.00    -0.303 C  
ATOM     21  O   GLY A   2     -10.670  18.146  67.499  1.00  0.00    -0.412 OA 
ATOM     22  OXT GLY A   2      -9.106  19.418  68.508  1.00  0.00    -0.354 OA 
ENDBRANCH  17  19
ENDBRANCH  14  15
BRANCH  14  23
HETATM   23  C   UNK A   1      -8.944  12.094  68.773  1.00  0.00     0.118 C  
BRANCH  23  24
HETATM   24  S   UNK A   1      -7.616  11.676  67.600  1.00  0.00    -0.138 SA 
BRANCH  24  25
HETATM   25  S   UNK A   1      -7.229   9.720  68.073  1.00  0.00    -0.080 SA 
BRANCH  25  26
HETATM   26  C   UNK A   1      -5.690   9.394  67.143  1.00  0.00    -0.044 C  
BRANCH  26  27
HETATM   27  C   UNK A   1      -5.801   8.326  66.038  1.00  0.00    -0.044 C  
BRANCH  27  28
HETATM   28  C   UNK A   1      -6.212   6.951  66.643  1.00  0.00    -0.041 C  
ATOM     29  H   GLY A   2      -8.243   7.423  66.513  1.00  0.00     0.000 HD 
ATOM     30  N   GLY A   2      -7.565   6.698  66.748  1.00  0.00    -0.089 N  
HETATM   31  O   UNK A   1      -5.393   6.071  66.901  1.00  0.00    -0.008 OA 
BRANCH  30  32
ATOM     32  CA  GLY A   2      -8.018   5.387  67.196  1.00  0.00    -0.101 C  
ATOM     33  OXT GLY A   2      -9.671   3.693  66.593  1.00  0.00    -0.182 OA 
ATOM     34  C   GLY A   2      -8.866   4.544  66.234  1.00  0.00    -0.113 C  
ATOM     35  O   GLY A   2      -8.513   4.651  64.939  1.00  0.00    -0.123 OA 
ENDBRANCH  30  32
ENDBRANCH  27  28
BRANCH  27  36
HETATM   36  N   UNK A   1      -6.474   8.781  64.802  1.00  0.00    -0.066 N  
HETATM   37  H   UNK A   1      -7.298   8.277  64.475  1.00  0.00     0.000 HD 
HETATM   38  O   UNK A   1      -5.133  10.608  64.466  1.00  0.00    -0.137 OA 
HETATM   39  C   UNK A   1      -6.026   9.861  64.079  1.00  0.00    -0.121 C  
BRANCH  39  40
HETATM   40  C   UNK A   1      -6.794  10.185  62.806  1.00  0.00    -0.132 C  
BRANCH  40  41
HETATM   41  C   UNK A   1      -8.079   9.376  62.547  1.00  0.00    -0.141 C  
BRANCH  41  42
HETATM   42  C   UNK A   1      -9.409   9.978  63.024  1.00  0.00    -0.263 C  
HETATM   43  N   UNK A   1      -9.605  11.370  62.538  1.00  0.00    -0.530 NA 
HETATM   44  C   UNK A   1      -9.436  10.022  64.540  1.00  0.00    -0.296 C  
HETATM   45  O   UNK A   1      -9.667   9.118  65.322  1.00  0.00    -0.157 OA 
HETATM   46  O   UNK A   1      -9.082  11.261  64.950  1.00  0.00    -0.159 OA 
HETATM   47  H2  UNK A   1      -9.521  11.421  61.523  1.00  0.00     0.000 HD 
HETATM   48  H1  UNK A   1     -10.488  11.770  62.855  1.00  0.00     0.000 HD 
ENDBRANCH  41  42
ENDBRANCH  40  41
ENDBRANCH  39  40
ENDBRANCH  27  36
ENDBRANCH  26  27
ENDBRANCH  25  26
ENDBRANCH  24  25
ENDBRANCH  23  24
ENDBRANCH  14  23
ENDBRANCH  11  14
ENDBRANCH   9  10
ENDBRANCH   8   9
ENDBRANCH   4   8
TORSDOF 17
ENDMDL
MODEL      246
REMARK 921   NORMALIZED FREE ENERGY PREDICTED BY IDOCK:   -3.44 KCAL/MOL
REMARK 922        TOTAL FREE ENERGY PREDICTED BY IDOCK:   -9.82 KCAL/MOL
REMARK 923 INTER-LIGAND FREE ENERGY PREDICTED BY IDOCK:   -7.30 KCAL/MOL
REMARK 924 INTRA-LIGAND FREE ENERGY PREDICTED BY IDOCK:   -2.52 KCAL/MOL
REMARK 927      BINDING AFFINITY PREDICTED BY RF-SCORE:    0.00 PKD
ROOT
HETATM    1  N   UNK A   1     -10.092   8.103  66.764  1.00  0.00    -0.279 NA 
HETATM    2  H1  UNK A   1      -9.686   7.172  66.853  1.00  0.00     0.000 HD 
HETATM    3  H2  UNK A   1     -11.104   8.045  66.646  1.00  0.00     0.000 HD 
HETATM    4  C   UNK A   1      -9.482   8.918  65.678  1.00  0.00    -0.159 C  
HETATM    5  O   UNK A   1      -7.209   9.821  65.452  1.00  0.00    -0.102 OA 
HETATM    6  C   UNK A   1      -7.959   8.963  65.891  1.00  0.00    -0.107 C  
HETATM    7  O   UNK A   1      -7.543   7.911  66.641  1.00  0.00    -0.090 OA 
ENDROOT
BRANCH   4   8
HETATM    8  C   UNK A   1     -10.093  10.315  65.545  1.00  0.00    -0.351 C  
BRANCH   8   9
HETATM    9  C   UNK A   1     -10.899  10.786  66.757  1.00  0.00    -0.256 C  
BRANCH   9  10
HETATM   10  C   UNK A   1     -10.083  11.767  67.565  1.00  0.00    -0.192 C  
HETATM   11  N   UNK A   1      -8.901  12.152  66.969  1.00  0.00    -0.197 N  
HETATM   12  O   UNK A   1     -10.432  12.151  68.678  1.00  0.00    -0.228 OA 
HETATM   13  H   UNK A   1      -8.630  11.760  66.068  1.00  0.00     0.000 HD 
BRANCH  11  14
HETATM   14  C   UNK A   1      -8.035  13.131  67.640  1.00  0.00    -0.174 C  
BRANCH  14  15
HETATM   15  C   UNK A   1      -8.475  14.549  67.221  1.00  0.00    -0.215 C  
ATOM     16  H   GLY A   2      -7.359  15.340  68.773  1.00  0.00     0.000 HD 
ATOM     17  N   GLY A   2      -7.953  15.574  67.977  1.00  0.00    -0.130 N  
HETATM   18  O   UNK A   1      -9.247  14.753  66.297  1.00  0.00    -0.283 OA 
BRANCH  17  19
ATOM     19  CA  GLY A   2      -8.212  16.974  67.691  1.00  0.00    -0.185 C  
ATOM     20  C   GLY A   2      -9.402  17.563  68.431  1.00  0.00    -0.287 C  
ATOM     21  O   GLY A   2     -10.369  16.663  68.784  1.00  0.00    -0.261 OA 
ATOM     22  OXT GLY A   2      -9.542  18.757  68.649  1.00  0.00    -0.353 OA 
ENDBRANCH  17  19
ENDBRANCH  14  15
BRANCH  14  23
HETATM   23  C   UNK A   1      -6.558  12.876  67.296  1.00  0.00    -0.037 C  
BRANCH  23  24
HETATM   24  S   UNK A   1      -5.793  11.425  68.088  1.00  0.00    -0.045 SA 
BRANCH  24  25
HETATM   25  S   UNK A   1      -6.252  11.728  70.063  1.00  0.00    -0.089 SA 
BRANCH  25  26
HETATM   26  C   UNK A   1      -5.597  10.213  70.848  1.00  0.00    -0.086 C  
BRANCH  26  27
HETATM   27  C   UNK A   1      -6.581   9.030  70.922  1.00  0.00    -0.068 C  
BRANCH  27  28
HETATM   28  C   UNK A   1      -6.166   8.040  72.050  1.00  0.00    -0.045 C  
ATOM     29  H   GLY A   2      -6.803   6.393  70.934  1.00  0.00     0.000 HD 
ATOM     30  N   GLY A   2      -6.343   6.695  71.793  1.00  0.00    -0.042 N  
HETATM   31  O   UNK A   1      -5.589   8.407  73.072  1.00  0.00    -0.050 OA 
BRANCH  30  32
ATOM     32  CA  GLY A   2      -5.868   5.710  72.757  1.00  0.00    -0.035 C  
ATOM     33  OXT GLY A   2      -6.766   4.180  74.436  1.00  0.00    -0.051 OA 
ATOM     34  C   GLY A   2      -6.883   4.719  73.342  1.00  0.00    -0.069 C  
ATOM     35  O   GLY A   2      -7.825   4.307  72.471  1.00  0.00    -0.081 OA 
ENDBRANCH  30  32
ENDBRANCH  27  28
BRANCH  27  36
HETATM   36  N   UNK A   1      -8.008   9.402  70.803  1.00  0.00    -0.157 N  
HETATM   37  H   UNK A   1      -8.306  10.324  71.121  1.00  0.00     0.000 HD 
HETATM   38  O   UNK A   1      -8.662   7.478  69.745  1.00  0.00    -0.139 OA 
HETATM   39  C   UNK A   1      -8.947   8.546  70.277  1.00  0.00    -0.149 C  
BRANCH  39  40
HETATM   40  C   UNK A   1     -10.382   9.050  70.258  1.00  0.00    -0.243 C  
BRANCH  40  41
HETATM   41  C   UNK A   1     -11.021   9.376  71.622  1.00  0.00    -0.382 C  
BRANCH  41  42
HETATM   42  C   UNK A   1     -11.540   8.202  72.464  1.00  0.00    -0.404 C  
HETATM   43  N   UNK A   1     -10.440   7.334  72.963  1.00  0.00    -0.275 NA 
HETATM   44  C   UNK A   1     -12.454   7.331  71.622  1.00  0.00    -0.359 C  
HETATM   45  O   UNK A   1     -13.620   7.519  71.324  1.00  0.00    -0.331 OA 
HETATM   46  O   UNK A   1     -11.746   6.279  71.151  1.00  0.00    -0.315 OA 
HETATM   47  H2  UNK A   1      -9.747   7.878  73.477  1.00  0.00     0.000 HD 
HETATM   48  H1  UNK A   1     -10.785   6.554  73.523  1.00  0.00     0.000 HD 
ENDBRANCH  41  42
ENDBRANCH  40  41
ENDBRANCH  39  40
ENDBRANCH  27  36
ENDBRANCH  26  27
ENDBRANCH  25  26
ENDBRANCH  24  25
ENDBRANCH  23  24
ENDBRANCH  14  23
ENDBRANCH  11  14
ENDBRANCH   9  10
ENDBRANCH   8   9
ENDBRANCH   4   8
TORSDOF 17
ENDMDL
MODEL      247
REMARK 921   NORMALIZED FREE ENERGY PREDICTED BY IDOCK:   -3.39 KCAL/MOL
REMARK 922        TOTAL FREE ENERGY PREDICTED BY IDOCK:   -9.72 KCAL/MOL
REMARK 923 INTER-LIGAND FREE ENERGY PREDICTED BY IDOCK:   -9.10 KCAL/MOL
REMARK 924 INTRA-LIGAND FREE ENERGY PREDICTED BY IDOCK:   -0.62 KCAL/MOL
REMARK 927      BINDING AFFINITY PREDICTED BY RF-SCORE:    0.00 PKD
ROOT
HETATM    1  N   UNK A   1     -11.607   6.915  70.127  1.00  0.00    -0.522 NA 
HETATM    2  H1  UNK A   1     -12.626   6.948  70.134  1.00  0.00     0.000 HD 
HETATM    3  H2  UNK A   1     -11.270   6.312  69.377  1.00  0.00     0.000 HD 
HETATM    4  C   UNK A   1     -11.016   6.513  71.432  1.00  0.00    -0.258 C  
HETATM    5  O   UNK A   1     -11.027   7.657  73.605  1.00  0.00    -0.301 OA 
HETATM    6  C   UNK A   1     -11.564   7.441  72.530  1.00  0.00    -0.275 C  
HETATM    7  O   UNK A   1     -12.741   7.999  72.151  1.00  0.00    -0.308 OA 
ENDROOT
BRANCH   4   8
HETATM    8  C   UNK A   1      -9.486   6.465  71.421  1.00  0.00    -0.164 C  
BRANCH   8   9
HETATM    9  C   UNK A   1      -8.865   5.923  70.132  1.00  0.00    -0.144 C  
BRANCH   9  10
HETATM   10  C   UNK A   1      -8.091   7.018  69.437  1.00  0.00    -0.130 C  
HETATM   11  N   UNK A   1      -8.484   8.296  69.775  1.00  0.00    -0.126 N  
HETATM   12  O   UNK A   1      -7.215   6.780  68.611  1.00  0.00    -0.080 OA 
HETATM   13  H   UNK A   1      -9.257   8.440  70.424  1.00  0.00     0.000 HD 
BRANCH  11  14
HETATM   14  C   UNK A   1      -7.782   9.448  69.193  1.00  0.00    -0.079 C  
BRANCH  14  15
HETATM   15  C   UNK A   1      -6.860  10.059  70.267  1.00  0.00    -0.147 C  
ATOM     16  H   GLY A   2      -6.291  11.528  68.925  1.00  0.00     0.000 HD 
ATOM     17  N   GLY A   2      -6.181  11.194  69.882  1.00  0.00    -0.118 N  
HETATM   18  O   UNK A   1      -6.722   9.565  71.375  1.00  0.00    -0.286 OA 
BRANCH  17  19
ATOM     19  CA  GLY A   2      -5.314  11.935  70.781  1.00  0.00    -0.149 C  
ATOM     20  C   GLY A   2      -5.633  13.417  70.892  1.00  0.00    -0.197 C  
ATOM     21  O   GLY A   2      -6.244  13.963  69.797  1.00  0.00    -0.124 OA 
ATOM     22  OXT GLY A   2      -5.319  14.110  71.848  1.00  0.00    -0.175 OA 
ENDBRANCH  17  19
ENDBRANCH  14  15
BRANCH  14  23
HETATM   23  C   UNK A   1      -8.788  10.484  68.659  1.00  0.00    -0.147 C  
BRANCH  23  24
HETATM   24  S   UNK A   1     -10.401  10.536  69.500  1.00  0.00    -0.189 SA 
BRANCH  24  25
HETATM   25  S   UNK A   1     -11.621  11.288  68.034  1.00  0.00    -0.234 SA 
BRANCH  25  26
HETATM   26  C   UNK A   1     -10.587  11.103  66.539  1.00  0.00    -0.262 C  
BRANCH  26  27
HETATM   27  C   UNK A   1     -10.999  11.977  65.340  1.00  0.00    -0.300 C  
BRANCH  27  28
HETATM   28  C   UNK A   1     -11.325  13.428  65.805  1.00  0.00    -0.305 C  
ATOM     29  H   GLY A   2      -9.413  14.096  65.293  1.00  0.00     0.000 HD 
ATOM     30  N   GLY A   2     -10.334  14.374  65.632  1.00  0.00    -0.323 N  
HETATM   31  O   UNK A   1     -12.444  13.762  66.189  1.00  0.00    -0.446 OA 
BRANCH  30  32
ATOM     32  CA  GLY A   2     -10.614  15.771  65.937  1.00  0.00    -0.339 C  
ATOM     33  OXT GLY A   2     -11.220  17.834  64.779  1.00  0.00    -0.767 OA 
ATOM     34  C   GLY A   2     -11.328  16.617  64.874  1.00  0.00     0.048 C  
ATOM     35  O   GLY A   2     -12.263  15.953  64.168  1.00  0.00    -0.636 OA 
ENDBRANCH  30  32
ENDBRANCH  27  28
BRANCH  27  36
HETATM   36  N   UNK A   1     -10.170  11.797  64.127  1.00  0.00    -0.296 N  
HETATM   37  H   UNK A   1     -10.005  12.598  63.518  1.00  0.00     0.000 HD 
HETATM   38  O   UNK A   1      -9.644   9.604  64.531  1.00  0.00    -0.224 OA 
HETATM   39  C   UNK A   1      -9.616  10.583  63.793  1.00  0.00    -0.311 C  
BRANCH  39  40
HETATM   40  C   UNK A   1      -8.824  10.540  62.495  1.00  0.00    -0.287 C  
BRANCH  40  41
HETATM   41  C   UNK A   1      -7.357  11.005  62.560  1.00  0.00     0.062 C  
BRANCH  41  42
HETATM   42  C   UNK A   1      -6.313  10.000  63.066  1.00  0.00    -0.130 C  
HETATM   43  N   UNK A   1      -6.665   8.597  62.721  1.00  0.00    -0.091 NA 
HETATM   44  C   UNK A   1      -6.214  10.081  64.578  1.00  0.00    -0.126 C  
HETATM   45  O   UNK A   1      -5.625  10.902  65.258  1.00  0.00    -0.135 OA 
HETATM   46  O   UNK A   1      -6.971   9.100  65.121  1.00  0.00    -0.085 OA 
HETATM   47  H2  UNK A   1      -6.821   8.492  61.719  1.00  0.00     0.000 HD 
HETATM   48  H1  UNK A   1      -5.972   7.929  63.058  1.00  0.00     0.000 HD 
ENDBRANCH  41  42
ENDBRANCH  40  41
ENDBRANCH  39  40
ENDBRANCH  27  36
ENDBRANCH  26  27
ENDBRANCH  25  26
ENDBRANCH  24  25
ENDBRANCH  23  24
ENDBRANCH  14  23
ENDBRANCH  11  14
ENDBRANCH   9  10
ENDBRANCH   8   9
ENDBRANCH   4   8
TORSDOF 17
ENDMDL
MODEL      248
REMARK 921   NORMALIZED FREE ENERGY PREDICTED BY IDOCK:   -3.39 KCAL/MOL
REMARK 922        TOTAL FREE ENERGY PREDICTED BY IDOCK:   -9.72 KCAL/MOL
REMARK 923 INTER-LIGAND FREE ENERGY PREDICTED BY IDOCK:   -7.91 KCAL/MOL
REMARK 924 INTRA-LIGAND FREE ENERGY PREDICTED BY IDOCK:   -1.81 KCAL/MOL
REMARK 927      BINDING AFFINITY PREDICTED BY RF-SCORE:    0.00 PKD
ROOT
HETATM    1  N   UNK A   1      -8.808  14.558  66.228  1.00  0.00    -0.469 NA 
HETATM    2  H1  UNK A   1      -8.010  14.600  65.594  1.00  0.00     0.000 HD 
HETATM    3  H2  UNK A   1      -9.624  14.168  65.755  1.00  0.00     0.000 HD 
HETATM    4  C   UNK A   1      -9.138  15.865  66.856  1.00  0.00    -0.231 C  
HETATM    5  O   UNK A   1      -7.862  17.232  68.450  1.00  0.00    -0.233 OA 
HETATM    6  C   UNK A   1      -7.875  16.417  67.541  1.00  0.00    -0.146 C  
HETATM    7  O   UNK A   1      -6.754  15.877  66.998  1.00  0.00    -0.243 OA 
ENDROOT
BRANCH   4   8
HETATM    8  C   UNK A   1     -10.334  15.802  67.807  1.00  0.00    -0.275 C  
BRANCH   8   9
HETATM    9  C   UNK A   1     -10.218  14.765  68.925  1.00  0.00    -0.237 C  
BRANCH   9  10
HETATM   10  C   UNK A   1     -11.144  13.605  68.646  1.00  0.00    -0.272 C  
HETATM   11  N   UNK A   1     -10.743  12.409  69.205  1.00  0.00    -0.445 N  
HETATM   12  O   UNK A   1     -12.145  13.717  67.945  1.00  0.00    -0.365 OA 
HETATM   13  H   UNK A   1      -9.872  12.356  69.732  1.00  0.00     0.000 HD 
BRANCH  11  14
HETATM   14  C   UNK A   1     -11.579  11.213  69.036  1.00  0.00    -0.324 C  
BRANCH  14  15
HETATM   15  C   UNK A   1     -11.457  10.341  70.302  1.00  0.00    -0.317 C  
ATOM     16  H   GLY A   2     -13.520  10.221  70.404  1.00  0.00     0.000 HD 
ATOM     17  N   GLY A   2     -12.651   9.911  70.838  1.00  0.00    -0.316 N  
HETATM   18  O   UNK A   1     -10.381  10.065  70.810  1.00  0.00    -0.223 OA 
BRANCH  17  19
ATOM     19  CA  GLY A   2     -12.724   9.036  71.994  1.00  0.00    -0.398 C  
ATOM     20  C   GLY A   2     -12.526   7.560  71.685  1.00  0.00    -0.342 C  
ATOM     21  O   GLY A   2     -12.868   7.182  70.417  1.00  0.00     0.063 OA 
ATOM     22  OXT GLY A   2     -12.154   6.738  72.510  1.00  0.00    -0.136 OA 
ENDBRANCH  17  19
ENDBRANCH  14  15
BRANCH  14  23
HETATM   23  C   UNK A   1     -11.165  10.435  67.775  1.00  0.00    -0.237 C  
BRANCH  23  24
HETATM   24  S   UNK A   1     -10.528   8.751  68.049  1.00  0.00    -0.169 SA 
BRANCH  24  25
HETATM   25  S   UNK A   1      -8.598   8.912  67.378  1.00  0.00    -0.119 SA 
BRANCH  25  26
HETATM   26  C   UNK A   1      -7.724   7.691  68.420  1.00  0.00    -0.119 C  
BRANCH  26  27
HETATM   27  C   UNK A   1      -8.579   7.025  69.514  1.00  0.00    -0.134 C  
BRANCH  27  28
HETATM   28  C   UNK A   1      -9.311   5.770  68.951  1.00  0.00    -0.123 C  
ATOM     29  H   GLY A   2      -7.878   5.521  67.452  1.00  0.00     0.000 HD 
ATOM     30  N   GLY A   2      -8.712   5.127  67.886  1.00  0.00    -0.103 N  
HETATM   31  O   UNK A   1     -10.303   5.285  69.493  1.00  0.00    -0.253 OA 
BRANCH  30  32
ATOM     32  CA  GLY A   2      -9.282   3.882  67.387  1.00  0.00    -0.172 C  
ATOM     33  OXT GLY A   2      -8.611   1.567  66.989  1.00  0.00    -0.086 OA 
ATOM     34  C   GLY A   2      -8.538   2.573  67.685  1.00  0.00    -0.101 C  
ATOM     35  O   GLY A   2      -7.954   2.527  68.898  1.00  0.00    -0.052 OA 
ENDBRANCH  30  32
ENDBRANCH  27  28
BRANCH  27  36
HETATM   36  N   UNK A   1      -7.924   6.923  70.837  1.00  0.00    -0.098 N  
HETATM   37  H   UNK A   1      -7.679   6.001  71.196  1.00  0.00     0.000 HD 
HETATM   38  O   UNK A   1      -7.767   9.181  71.192  1.00  0.00    -0.220 OA 
HETATM   39  C   UNK A   1      -7.636   8.031  71.598  1.00  0.00    -0.083 C  
BRANCH  39  40
HETATM   40  C   UNK A   1      -7.001   7.769  72.955  1.00  0.00    -0.090 C  
BRANCH  40  41
HETATM   41  C   UNK A   1      -7.903   7.138  74.033  1.00  0.00    -0.132 C  
BRANCH  41  42
HETATM   42  C   UNK A   1      -7.950   5.606  74.115  1.00  0.00    -0.105 C  
HETATM   43  N   UNK A   1      -7.040   4.959  73.133  1.00  0.00    -0.081 NA 
HETATM   44  C   UNK A   1      -9.356   5.120  73.814  1.00  0.00    -0.132 C  
HETATM   45  O   UNK A   1     -10.327   5.101  74.549  1.00  0.00    -0.261 OA 
HETATM   46  O   UNK A   1      -9.423   4.745  72.516  1.00  0.00    -0.133 OA 
HETATM   47  H2  UNK A   1      -6.086   5.303  73.234  1.00  0.00     0.000 HD 
HETATM   48  H1  UNK A   1      -7.072   3.941  73.187  1.00  0.00     0.000 HD 
ENDBRANCH  41  42
ENDBRANCH  40  41
ENDBRANCH  39  40
ENDBRANCH  27  36
ENDBRANCH  26  27
ENDBRANCH  25  26
ENDBRANCH  24  25
ENDBRANCH  23  24
ENDBRANCH  14  23
ENDBRANCH  11  14
ENDBRANCH   9  10
ENDBRANCH   8   9
ENDBRANCH   4   8
TORSDOF 17
ENDMDL
MODEL      249
REMARK 921   NORMALIZED FREE ENERGY PREDICTED BY IDOCK:   -3.38 KCAL/MOL
REMARK 922        TOTAL FREE ENERGY PREDICTED BY IDOCK:   -9.72 KCAL/MOL
REMARK 923 INTER-LIGAND FREE ENERGY PREDICTED BY IDOCK:   -8.06 KCAL/MOL
REMARK 924 INTRA-LIGAND FREE ENERGY PREDICTED BY IDOCK:   -1.65 KCAL/MOL
REMARK 927      BINDING AFFINITY PREDICTED BY RF-SCORE:    0.00 PKD
ROOT
HETATM    1  N   UNK A   1     -10.914  10.883  64.810  1.00  0.00    -0.091 NA 
HETATM    2  H1  UNK A   1     -10.999  11.791  64.353  1.00  0.00     0.000 HD 
HETATM    3  H2  UNK A   1     -11.380  10.891  65.718  1.00  0.00     0.000 HD 
HETATM    4  C   UNK A   1      -9.508  10.415  64.944  1.00  0.00    -0.265 C  
HETATM    5  O   UNK A   1      -7.873   9.774  63.227  1.00  0.00    -0.127 OA 
HETATM    6  C   UNK A   1      -8.846  10.435  63.556  1.00  0.00    -0.212 C  
HETATM    7  O   UNK A   1      -9.487  11.296  62.725  1.00  0.00    -0.352 OA 
ENDROOT
BRANCH   4   8
HETATM    8  C   UNK A   1      -9.381   9.052  65.630  1.00  0.00    -0.289 C  
BRANCH   8   9
HETATM    9  C   UNK A   1      -8.842   9.096  67.061  1.00  0.00    -0.135 C  
BRANCH   9  10
HETATM   10  C   UNK A   1      -7.484   9.759  67.077  1.00  0.00    -0.091 C  
HETATM   11  N   UNK A   1      -7.341  10.740  68.036  1.00  0.00    -0.087 N  
HETATM   12  O   UNK A   1      -6.603   9.471  66.272  1.00  0.00    -0.069 OA 
HETATM   13  H   UNK A   1      -8.123  10.982  68.643  1.00  0.00     0.000 HD 
BRANCH  11  14
HETATM   14  C   UNK A   1      -6.054  11.434  68.176  1.00  0.00    -0.045 C  
BRANCH  14  15
HETATM   15  C   UNK A   1      -5.679  11.482  69.671  1.00  0.00    -0.078 C  
ATOM     16  H   GLY A   2      -5.885   9.426  69.776  1.00  0.00     0.000 HD 
ATOM     17  N   GLY A   2      -5.633  10.260  70.305  1.00  0.00    -0.051 N  
HETATM   18  O   UNK A   1      -5.456  12.528  70.261  1.00  0.00    -0.108 OA 
BRANCH  17  19
ATOM     19  CA  GLY A   2      -5.242  10.110  71.696  1.00  0.00    -0.061 C  
ATOM     20  C   GLY A   2      -6.037   9.070  72.469  1.00  0.00     0.018 C  
ATOM     21  O   GLY A   2      -7.301   8.840  72.001  1.00  0.00    -0.255 OA 
ATOM     22  OXT GLY A   2      -5.628   8.514  73.477  1.00  0.00    -0.073 OA 
ENDBRANCH  17  19
ENDBRANCH  14  15
BRANCH  14  23
HETATM   23  C   UNK A   1      -6.129  12.846  67.570  1.00  0.00    -0.141 C  
BRANCH  23  24
HETATM   24  S   UNK A   1      -6.948  14.111  68.592  1.00  0.00    -0.115 SA 
BRANCH  24  25
HETATM   25  S   UNK A   1      -8.864  14.070  67.865  1.00  0.00    -0.196 SA 
BRANCH  25  26
HETATM   26  C   UNK A   1      -9.860  14.093  69.397  1.00  0.00     0.309 C  
BRANCH  26  27
HETATM   27  C   UNK A   1     -11.385  14.148  69.192  1.00  0.00    -0.279 C  
BRANCH  27  28
HETATM   28  C   UNK A   1     -11.730  14.763  67.803  1.00  0.00    -0.343 C  
ATOM     29  H   GLY A   2     -12.196  12.887  67.011  1.00  0.00     0.000 HD 
ATOM     30  N   GLY A   2     -12.180  13.891  66.832  1.00  0.00    -0.416 N  
HETATM   31  O   UNK A   1     -11.732  15.976  67.599  1.00  0.00    -0.019 OA 
BRANCH  30  32
ATOM     32  CA  GLY A   2     -12.630  14.416  65.548  1.00  0.00    -0.333 C  
ATOM     33  OXT GLY A   2     -11.824  15.866  63.756  1.00  0.00    -0.645 OA 
ATOM     34  C   GLY A   2     -11.580  15.012  64.600  1.00  0.00    -0.386 C  
ATOM     35  O   GLY A   2     -10.394  14.376  64.611  1.00  0.00    -0.397 OA 
ENDBRANCH  30  32
ENDBRANCH  27  28
BRANCH  27  36
HETATM   36  N   UNK A   1     -12.113  12.936  69.625  1.00  0.00    -0.266 N  
HETATM   37  H   UNK A   1     -12.999  13.042  70.120  1.00  0.00     0.000 HD 
HETATM   38  O   UNK A   1     -10.657  11.441  68.681  1.00  0.00    -0.185 OA 
HETATM   39  C   UNK A   1     -11.635  11.669  69.384  1.00  0.00    -0.327 C  
BRANCH  39  40
HETATM   40  C   UNK A   1     -12.471  10.519  69.926  1.00  0.00    -0.190 C  
BRANCH  40  41
HETATM   41  C   UNK A   1     -12.080   9.970  71.311  1.00  0.00    -0.487 C  
BRANCH  41  42
HETATM   42  C   UNK A   1     -11.042   8.840  71.362  1.00  0.00    -0.291 C  
HETATM   43  N   UNK A   1      -9.826   9.153  70.565  1.00  0.00    -0.214 NA 
HETATM   44  C   UNK A   1     -11.640   7.568  70.789  1.00  0.00    -0.277 C  
HETATM   45  O   UNK A   1     -12.398   6.778  71.323  1.00  0.00    -0.363 OA 
HETATM   46  O   UNK A   1     -11.257   7.446  69.498  1.00  0.00    -0.134 OA 
HETATM   47  H2  UNK A   1      -9.416  10.041  70.853  1.00  0.00     0.000 HD 
HETATM   48  H1  UNK A   1      -9.136   8.402  70.599  1.00  0.00     0.000 HD 
ENDBRANCH  41  42
ENDBRANCH  40  41
ENDBRANCH  39  40
ENDBRANCH  27  36
ENDBRANCH  26  27
ENDBRANCH  25  26
ENDBRANCH  24  25
ENDBRANCH  23  24
ENDBRANCH  14  23
ENDBRANCH  11  14
ENDBRANCH   9  10
ENDBRANCH   8   9
ENDBRANCH   4   8
TORSDOF 17
ENDMDL
MODEL      250
REMARK 921   NORMALIZED FREE ENERGY PREDICTED BY IDOCK:   -3.37 KCAL/MOL
REMARK 922        TOTAL FREE ENERGY PREDICTED BY IDOCK:   -9.69 KCAL/MOL
REMARK 923 INTER-LIGAND FREE ENERGY PREDICTED BY IDOCK:   -7.04 KCAL/MOL
REMARK 924 INTRA-LIGAND FREE ENERGY PREDICTED BY IDOCK:   -2.65 KCAL/MOL
REMARK 927      BINDING AFFINITY PREDICTED BY RF-SCORE:    0.00 PKD
ROOT
HETATM    1  N   UNK A   1      -6.928  10.476  69.592  1.00  0.00    -0.119 NA 
HETATM    2  H1  UNK A   1      -6.348  10.099  70.342  1.00  0.00     0.000 HD 
HETATM    3  H2  UNK A   1      -7.194   9.740  68.938  1.00  0.00     0.000 HD 
HETATM    4  C   UNK A   1      -6.301  11.617  68.873  1.00  0.00    -0.062 C  
HETATM    5  O   UNK A   1      -5.738  13.876  69.657  1.00  0.00    -0.089 OA 
HETATM    6  C   UNK A   1      -5.905  12.692  69.901  1.00  0.00    -0.133 C  
HETATM    7  O   UNK A   1      -5.759  12.150  71.137  1.00  0.00    -0.374 OA 
ENDROOT
BRANCH   4   8
HETATM    8  C   UNK A   1      -7.171  12.182  67.748  1.00  0.00    -0.113 C  
BRANCH   8   9
HETATM    9  C   UNK A   1      -7.787  11.135  66.819  1.00  0.00    -0.153 C  
BRANCH   9  10
HETATM   10  C   UNK A   1      -9.292  11.162  66.943  1.00  0.00    -0.175 C  
HETATM   11  N   UNK A   1      -9.790  12.270  67.596  1.00  0.00    -0.193 N  
HETATM   12  O   UNK A   1     -10.002  10.249  66.530  1.00  0.00    -0.205 OA 
HETATM   13  H   UNK A   1      -9.153  12.972  67.972  1.00  0.00     0.000 HD 
BRANCH  11  14
HETATM   14  C   UNK A   1     -11.242  12.430  67.749  1.00  0.00    -0.275 C  
BRANCH  14  15
HETATM   15  C   UNK A   1     -11.664  13.760  67.091  1.00  0.00    -0.385 C  
ATOM     16  H   GLY A   2      -9.958  13.708  65.921  1.00  0.00     0.000 HD 
ATOM     17  N   GLY A   2     -10.813  14.229  66.114  1.00  0.00    -0.305 N  
HETATM   18  O   UNK A   1     -12.670  14.368  67.421  1.00  0.00     0.187 OA 
BRANCH  17  19
ATOM     19  CA  GLY A   2     -11.082  15.433  65.349  1.00  0.00    -0.326 C  
ATOM     20  C   GLY A   2     -10.540  16.712  65.969  1.00  0.00    -0.233 C  
ATOM     21  O   GLY A   2     -10.404  16.685  67.329  1.00  0.00    -0.289 OA 
ATOM     22  OXT GLY A   2     -10.300  17.726  65.332  1.00  0.00    -0.602 OA 
ENDBRANCH  17  19
ENDBRANCH  14  15
BRANCH  14  23
HETATM   23  C   UNK A   1     -11.640  12.387  69.234  1.00  0.00    -0.319 C  
BRANCH  23  24
HETATM   24  S   UNK A   1     -12.326  10.809  69.831  1.00  0.00    -0.195 SA 
BRANCH  24  25
HETATM   25  S   UNK A   1     -10.652   9.858  70.536  1.00  0.00    -0.250 SA 
BRANCH  25  26
HETATM   26  C   UNK A   1     -10.638   8.320  69.548  1.00  0.00    -0.213 C  
BRANCH  26  27
HETATM   27  C   UNK A   1      -9.248   7.700  69.313  1.00  0.00    -0.145 C  
BRANCH  27  28
HETATM   28  C   UNK A   1      -8.859   6.760  70.494  1.00  0.00    -0.151 C  
ATOM     29  H   GLY A   2      -9.859   7.967  71.875  1.00  0.00     0.000 HD 
ATOM     30  N   GLY A   2      -9.344   7.097  71.742  1.00  0.00    -0.147 N  
HETATM   31  O   UNK A   1      -8.260   5.700  70.324  1.00  0.00    -0.101 OA 
BRANCH  30  32
ATOM     32  CA  GLY A   2      -9.115   6.199  72.867  1.00  0.00    -0.131 C  
ATOM     33  OXT GLY A   2     -10.393   4.802  74.410  1.00  0.00    -0.236 OA 
ATOM     34  C   GLY A   2     -10.248   5.248  73.278  1.00  0.00    -0.189 C  
ATOM     35  O   GLY A   2     -10.965   4.757  72.250  1.00  0.00    -0.126 OA 
ENDBRANCH  30  32
ENDBRANCH  27  28
BRANCH  27  36
HETATM   36  N   UNK A   1      -9.004   7.231  67.931  1.00  0.00    -0.131 N  
HETATM   37  H   UNK A   1      -9.775   6.822  67.405  1.00  0.00     0.000 HD 
HETATM   38  O   UNK A   1      -6.823   7.928  67.833  1.00  0.00    -0.068 OA 
HETATM   39  C   UNK A   1      -7.769   7.329  67.333  1.00  0.00    -0.110 C  
BRANCH  39  40
HETATM   40  C   UNK A   1      -7.658   6.766  65.924  1.00  0.00    -0.087 C  
BRANCH  40  41
HETATM   41  C   UNK A   1      -8.402   7.529  64.811  1.00  0.00    -0.014 C  
BRANCH  41  42
HETATM   42  C   UNK A   1      -7.569   8.078  63.644  1.00  0.00    -0.129 C  
HETATM   43  N   UNK A   1      -6.158   7.611  63.689  1.00  0.00    -0.053 NA 
HETATM   44  C   UNK A   1      -7.543   9.595  63.702  1.00  0.00    -0.124 C  
HETATM   45  O   UNK A   1      -8.400  10.383  63.345  1.00  0.00    -0.164 OA 
HETATM   46  O   UNK A   1      -6.398   9.992  64.303  1.00  0.00    -0.119 OA 
HETATM   47  H2  UNK A   1      -6.108   6.593  63.729  1.00  0.00     0.000 HD 
HETATM   48  H1  UNK A   1      -5.604   7.976  62.914  1.00  0.00     0.000 HD 
ENDBRANCH  41  42
ENDBRANCH  40  41
ENDBRANCH  39  40
ENDBRANCH  27  36
ENDBRANCH  26  27
ENDBRANCH  25  26
ENDBRANCH  24  25
ENDBRANCH  23  24
ENDBRANCH  14  23
ENDBRANCH  11  14
ENDBRANCH   9  10
ENDBRANCH   8   9
ENDBRANCH   4   8
TORSDOF 17
ENDMDL
MODEL      251
REMARK 921   NORMALIZED FREE ENERGY PREDICTED BY IDOCK:   -3.34 KCAL/MOL
REMARK 922        TOTAL FREE ENERGY PREDICTED BY IDOCK:   -9.63 KCAL/MOL
REMARK 923 INTER-LIGAND FREE ENERGY PREDICTED BY IDOCK:   -9.32 KCAL/MOL
REMARK 924 INTRA-LIGAND FREE ENERGY PREDICTED BY IDOCK:   -0.31 KCAL/MOL
REMARK 927      BINDING AFFINITY PREDICTED BY RF-SCORE:    0.00 PKD
ROOT
HETATM    1  N   UNK A   1      -9.650  15.152  69.771  1.00  0.00    -0.458 NA 
HETATM    2  H1  UNK A   1      -8.940  15.618  69.205  1.00  0.00     0.000 HD 
HETATM    3  H2  UNK A   1      -9.221  14.670  70.561  1.00  0.00     0.000 HD 
HETATM    4  C   UNK A   1     -10.515  14.224  68.994  1.00  0.00    -0.204 C  
HETATM    5  O   UNK A   1     -12.145  14.682  67.215  1.00  0.00    -0.358 OA 
HETATM    6  C   UNK A   1     -11.125  14.992  67.809  1.00  0.00    -0.310 C  
HETATM    7  O   UNK A   1     -10.373  16.079  67.496  1.00  0.00    -0.273 OA 
ENDROOT
BRANCH   4   8
HETATM    8  C   UNK A   1     -11.579  13.526  69.843  1.00  0.00    -0.271 C  
BRANCH   8   9
HETATM    9  C   UNK A   1     -12.396  12.462  69.109  1.00  0.00     0.126 C  
BRANCH   9  10
HETATM   10  C   UNK A   1     -11.633  11.158  69.080  1.00  0.00    -0.324 C  
HETATM   11  N   UNK A   1     -10.922  10.889  70.230  1.00  0.00    -0.456 N  
HETATM   12  O   UNK A   1     -11.620  10.427  68.094  1.00  0.00    -0.355 OA 
HETATM   13  H   UNK A   1     -10.920  11.558  71.000  1.00  0.00     0.000 HD 
BRANCH  11  14
HETATM   14  C   UNK A   1     -10.167   9.634  70.340  1.00  0.00    -0.288 C  
BRANCH  14  15
HETATM   15  C   UNK A   1      -8.689   9.915  70.000  1.00  0.00    -0.157 C  
ATOM     16  H   GLY A   2      -9.271  10.717  68.184  1.00  0.00     0.000 HD 
ATOM     17  N   GLY A   2      -8.471  10.529  68.787  1.00  0.00    -0.133 N  
HETATM   18  O   UNK A   1      -7.772   9.599  70.742  1.00  0.00    -0.283 OA 
BRANCH  17  19
ATOM     19  CA  GLY A   2      -7.149  10.920  68.330  1.00  0.00    -0.075 C  
ATOM     20  C   GLY A   2      -6.436   9.877  67.486  1.00  0.00    -0.068 C  
ATOM     21  O   GLY A   2      -6.811   8.584  67.722  1.00  0.00    -0.065 OA 
ATOM     22  OXT GLY A   2      -5.542  10.139  66.695  1.00  0.00    -0.044 OA 
ENDBRANCH  17  19
ENDBRANCH  14  15
BRANCH  14  23
HETATM   23  C   UNK A   1     -10.762   8.559  69.413  1.00  0.00    -0.156 C  
BRANCH  23  24
HETATM   24  S   UNK A   1     -10.136   6.866  69.650  1.00  0.00    -0.189 SA 
BRANCH  24  25
HETATM   25  S   UNK A   1     -10.837   5.916  67.974  1.00  0.00    -0.149 SA 
BRANCH  25  26
HETATM   26  C   UNK A   1     -10.451   7.122  66.656  1.00  0.00    -0.135 C  
BRANCH  26  27
HETATM   27  C   UNK A   1      -8.970   7.195  66.243  1.00  0.00    -0.155 C  
BRANCH  27  28
HETATM   28  C   UNK A   1      -8.365   5.766  66.111  1.00  0.00    -0.122 C  
ATOM     29  H   GLY A   2      -7.010   6.121  67.661  1.00  0.00     0.000 HD 
ATOM     30  N   GLY A   2      -7.372   5.426  67.009  1.00  0.00    -0.082 N  
HETATM   31  O   UNK A   1      -8.820   4.924  65.340  1.00  0.00    -0.139 OA 
BRANCH  30  32
ATOM     32  CA  GLY A   2      -6.845   4.067  67.016  1.00  0.00    -0.055 C  
ATOM     33  OXT GLY A   2      -5.994   2.420  68.607  1.00  0.00    -0.023 OA 
ATOM     34  C   GLY A   2      -6.789   3.318  68.355  1.00  0.00    -0.049 C  
ATOM     35  O   GLY A   2      -7.824   3.570  69.179  1.00  0.00    -0.052 OA 
ENDBRANCH  30  32
ENDBRANCH  27  28
BRANCH  27  36
HETATM   36  N   UNK A   1      -8.669   8.186  65.186  1.00  0.00    -0.366 N  
HETATM   37  H   UNK A   1      -8.034   7.926  64.431  1.00  0.00     0.000 HD 
HETATM   38  O   UNK A   1     -10.091   9.802  65.972  1.00  0.00    -0.276 OA 
HETATM   39  C   UNK A   1      -9.216   9.448  65.188  1.00  0.00    -0.225 C  
BRANCH  39  40
HETATM   40  C   UNK A   1      -8.782  10.372  64.061  1.00  0.00    -0.202 C  
BRANCH  40  41
HETATM   41  C   UNK A   1      -9.901  11.070  63.264  1.00  0.00    -0.406 C  
BRANCH  41  42
HETATM   42  C   UNK A   1     -10.391  12.434  63.770  1.00  0.00    -0.425 C  
HETATM   43  N   UNK A   1      -9.703  12.854  65.020  1.00  0.00    -0.507 NA 
HETATM   44  C   UNK A   1     -11.876  12.364  64.076  1.00  0.00    -0.439 C  
HETATM   45  O   UNK A   1     -12.814  12.413  63.300  1.00  0.00    -0.696 OA 
HETATM   46  O   UNK A   1     -12.042  12.157  65.402  1.00  0.00    -0.477 OA 
HETATM   47  H2  UNK A   1      -8.690  12.847  64.903  1.00  0.00     0.000 HD 
HETATM   48  H1  UNK A   1     -10.029  13.760  65.357  1.00  0.00     0.000 HD 
ENDBRANCH  41  42
ENDBRANCH  40  41
ENDBRANCH  39  40
ENDBRANCH  27  36
ENDBRANCH  26  27
ENDBRANCH  25  26
ENDBRANCH  24  25
ENDBRANCH  23  24
ENDBRANCH  14  23
ENDBRANCH  11  14
ENDBRANCH   9  10
ENDBRANCH   8   9
ENDBRANCH   4   8
TORSDOF 17
ENDMDL
MODEL      252
REMARK 921   NORMALIZED FREE ENERGY PREDICTED BY IDOCK:   -3.33 KCAL/MOL
REMARK 922        TOTAL FREE ENERGY PREDICTED BY IDOCK:   -9.61 KCAL/MOL
REMARK 923 INTER-LIGAND FREE ENERGY PREDICTED BY IDOCK:   -9.05 KCAL/MOL
REMARK 924 INTRA-LIGAND FREE ENERGY PREDICTED BY IDOCK:   -0.56 KCAL/MOL
REMARK 927      BINDING AFFINITY PREDICTED BY RF-SCORE:    0.00 PKD
ROOT
HETATM    1  N   UNK A   1      -9.075   4.316  68.003  1.00  0.00    -0.123 NA 
HETATM    2  H1  UNK A   1      -8.516   3.597  68.461  1.00  0.00     0.000 HD 
HETATM    3  H2  UNK A   1      -9.809   4.654  68.625  1.00  0.00     0.000 HD 
HETATM    4  C   UNK A   1      -9.647   3.884  66.699  1.00  0.00    -0.193 C  
HETATM    5  O   UNK A   1      -8.535   3.311  64.585  1.00  0.00    -0.093 OA 
HETATM    6  C   UNK A   1      -8.505   3.372  65.804  1.00  0.00    -0.109 C  
HETATM    7  O   UNK A   1      -7.439   2.986  66.551  1.00  0.00    -0.073 OA 
ENDROOT
BRANCH   4   8
HETATM    8  C   UNK A   1     -10.485   4.963  66.011  1.00  0.00    -0.327 C  
BRANCH   8   9
HETATM    9  C   UNK A   1     -10.613   6.275  66.787  1.00  0.00    -0.335 C  
BRANCH   9  10
HETATM   10  C   UNK A   1      -9.333   7.068  66.667  1.00  0.00    -0.165 C  
HETATM   11  N   UNK A   1      -8.892   7.620  67.851  1.00  0.00    -0.127 N  
HETATM   12  O   UNK A   1      -8.763   7.236  65.593  1.00  0.00    -0.143 OA 
HETATM   13  H   UNK A   1      -9.433   7.499  68.707  1.00  0.00     0.000 HD 
BRANCH  11  14
HETATM   14  C   UNK A   1      -7.638   8.385  67.872  1.00  0.00    -0.099 C  
BRANCH  14  15
HETATM   15  C   UNK A   1      -6.728   7.813  68.978  1.00  0.00    -0.049 C  
ATOM     16  H   GLY A   2      -7.616   9.084  70.348  1.00  0.00     0.000 HD 
ATOM     17  N   GLY A   2      -6.929   8.339  70.235  1.00  0.00    -0.036 N  
HETATM   18  O   UNK A   1      -5.875   6.968  68.758  1.00  0.00    -0.018 OA 
BRANCH  17  19
ATOM     19  CA  GLY A   2      -6.204   7.878  71.406  1.00  0.00    -0.035 C  
ATOM     20  C   GLY A   2      -7.033   7.806  72.678  1.00  0.00    -0.075 C  
ATOM     21  O   GLY A   2      -8.097   8.664  72.726  1.00  0.00    -0.380 OA 
ATOM     22  OXT GLY A   2      -6.755   7.093  73.630  1.00  0.00    -0.066 OA 
ENDBRANCH  17  19
ENDBRANCH  14  15
BRANCH  14  23
HETATM   23  C   UNK A   1      -7.917   9.882  68.092  1.00  0.00    -0.100 C  
BRANCH  23  24
HETATM   24  S   UNK A   1      -9.638  10.322  68.492  1.00  0.00    -0.168 SA 
BRANCH  24  25
HETATM   25  S   UNK A   1      -9.599  12.366  68.349  1.00  0.00    -0.135 SA 
BRANCH  25  26
HETATM   26  C   UNK A   1     -11.183  12.839  69.128  1.00  0.00    -0.237 C  
BRANCH  26  27
HETATM   27  C   UNK A   1     -11.717  14.232  68.745  1.00  0.00    -0.343 C  
BRANCH  27  28
HETATM   28  C   UNK A   1     -10.665  15.333  69.077  1.00  0.00    -0.244 C  
ATOM     29  H   GLY A   2     -11.822  16.812  68.161  1.00  0.00     0.000 HD 
ATOM     30  N   GLY A   2     -10.978  16.624  68.702  1.00  0.00    -0.344 N  
HETATM   31  O   UNK A   1      -9.662  15.107  69.751  1.00  0.00    -0.187 OA 
BRANCH  30  32
ATOM     32  CA  GLY A   2     -10.093  17.718  69.085  1.00  0.00    -0.220 C  
ATOM     33  OXT GLY A   2      -8.553  19.303  68.046  1.00  0.00    -0.301 OA 
ATOM     34  C   GLY A   2      -9.600  18.670  67.987  1.00  0.00    -0.316 C  
ATOM     35  O   GLY A   2     -10.509  18.935  67.029  1.00  0.00    -0.384 OA 
ENDBRANCH  30  32
ENDBRANCH  27  28
BRANCH  27  36
HETATM   36  N   UNK A   1     -12.411  14.293  67.440  1.00  0.00    -0.591 N  
HETATM   37  H   UNK A   1     -13.428  14.216  67.418  1.00  0.00     0.000 HD 
HETATM   38  O   UNK A   1     -10.529  14.686  66.195  1.00  0.00    -0.285 OA 
HETATM   39  C   UNK A   1     -11.730  14.449  66.255  1.00  0.00    -0.385 C  
BRANCH  39  40
HETATM   40  C   UNK A   1     -12.574  14.450  64.990  1.00  0.00    -0.309 C  
BRANCH  40  41
HETATM   41  C   UNK A   1     -12.069  13.589  63.817  1.00  0.00    -0.482 C  
BRANCH  41  42
HETATM   42  C   UNK A   1     -11.802  12.101  64.089  1.00  0.00    -0.404 C  
HETATM   43  N   UNK A   1     -12.116  11.718  65.491  1.00  0.00    -0.229 NA 
HETATM   44  C   UNK A   1     -10.335  11.792  63.855  1.00  0.00    -0.385 C  
HETATM   45  O   UNK A   1      -9.756  11.612  62.799  1.00  0.00    -0.321 OA 
HETATM   46  O   UNK A   1      -9.688  11.809  65.042  1.00  0.00    -0.240 OA 
HETATM   47  H2  UNK A   1     -13.072  11.972  65.737  1.00  0.00     0.000 HD 
HETATM   48  H1  UNK A   1     -11.939  10.730  65.672  1.00  0.00     0.000 HD 
ENDBRANCH  41  42
ENDBRANCH  40  41
ENDBRANCH  39  40
ENDBRANCH  27  36
ENDBRANCH  26  27
ENDBRANCH  25  26
ENDBRANCH  24  25
ENDBRANCH  23  24
ENDBRANCH  14  23
ENDBRANCH  11  14
ENDBRANCH   9  10
ENDBRANCH   8   9
ENDBRANCH   4   8
TORSDOF 17
ENDMDL
MODEL      253
REMARK 921   NORMALIZED FREE ENERGY PREDICTED BY IDOCK:   -3.33 KCAL/MOL
REMARK 922        TOTAL FREE ENERGY PREDICTED BY IDOCK:   -9.60 KCAL/MOL
REMARK 923 INTER-LIGAND FREE ENERGY PREDICTED BY IDOCK:   -8.03 KCAL/MOL
REMARK 924 INTRA-LIGAND FREE ENERGY PREDICTED BY IDOCK:   -1.58 KCAL/MOL
REMARK 927      BINDING AFFINITY PREDICTED BY RF-SCORE:    0.00 PKD
ROOT
HETATM    1  N   UNK A   1      -9.608  10.250  64.395  1.00  0.00    -0.298 NA 
HETATM    2  H1  UNK A   1     -10.100  10.400  63.515  1.00  0.00     0.000 HD 
HETATM    3  H2  UNK A   1      -9.858  10.969  65.075  1.00  0.00     0.000 HD 
HETATM    4  C   UNK A   1      -8.131  10.159  64.243  1.00  0.00    -0.159 C  
HETATM    5  O   UNK A   1      -6.749   8.473  63.111  1.00  0.00    -0.089 OA 
HETATM    6  C   UNK A   1      -7.807   9.074  63.201  1.00  0.00    -0.133 C  
HETATM    7  O   UNK A   1      -8.864   8.865  62.375  1.00  0.00    -0.216 OA 
ENDROOT
BRANCH   4   8
HETATM    8  C   UNK A   1      -7.393   9.933  65.565  1.00  0.00    -0.122 C  
BRANCH   8   9
HETATM    9  C   UNK A   1      -6.814  11.196  66.206  1.00  0.00    -0.055 C  
BRANCH   9  10
HETATM   10  C   UNK A   1      -7.808  11.775  67.186  1.00  0.00    -0.166 C  
HETATM   11  N   UNK A   1      -8.874  12.424  66.599  1.00  0.00    -0.327 N  
HETATM   12  O   UNK A   1      -7.649  11.704  68.401  1.00  0.00    -0.111 OA 
HETATM   13  H   UNK A   1      -8.929  12.505  65.584  1.00  0.00     0.000 HD 
BRANCH  11  14
HETATM   14  C   UNK A   1      -9.928  12.999  67.445  1.00  0.00    -0.228 C  
BRANCH  14  15
HETATM   15  C   UNK A   1      -9.507  14.425  67.857  1.00  0.00    -0.214 C  
ATOM     16  H   GLY A   2      -8.471  14.620  66.078  1.00  0.00     0.000 HD 
ATOM     17  N   GLY A   2      -8.742  15.102  66.934  1.00  0.00    -0.242 N  
HETATM   18  O   UNK A   1      -9.812  14.916  68.933  1.00  0.00    -0.220 OA 
BRANCH  17  19
ATOM     19  CA  GLY A   2      -8.306  16.474  67.129  1.00  0.00    -0.180 C  
ATOM     20  C   GLY A   2      -9.221  17.523  66.520  1.00  0.00    -0.267 C  
ATOM     21  O   GLY A   2      -9.956  17.100  65.448  1.00  0.00    -0.547 OA 
ATOM     22  OXT GLY A   2      -9.268  18.684  66.897  1.00  0.00    -0.286 OA 
ENDBRANCH  17  19
ENDBRANCH  14  15
BRANCH  14  23
HETATM   23  C   UNK A   1     -10.183  12.110  68.675  1.00  0.00    -0.174 C  
BRANCH  23  24
HETATM   24  S   UNK A   1     -11.473  10.839  68.486  1.00  0.00    -0.255 SA 
BRANCH  24  25
HETATM   25  S   UNK A   1     -10.395   9.239  67.795  1.00  0.00    -0.246 SA 
BRANCH  25  26
HETATM   26  C   UNK A   1      -9.491   8.706  69.292  1.00  0.00    -0.158 C  
BRANCH  26  27
HETATM   27  C   UNK A   1      -9.085   7.221  69.324  1.00  0.00    -0.138 C  
BRANCH  27  28
HETATM   28  C   UNK A   1     -10.092   6.395  70.179  1.00  0.00    -0.173 C  
ATOM     29  H   GLY A   2      -8.544   5.460  71.224  1.00  0.00     0.000 HD 
ATOM     30  N   GLY A   2      -9.555   5.571  71.147  1.00  0.00    -0.159 N  
HETATM   31  O   UNK A   1     -11.309   6.551  70.099  1.00  0.00    -0.341 OA 
BRANCH  30  32
ATOM     32  CA  GLY A   2     -10.444   4.860  72.058  1.00  0.00    -0.176 C  
ATOM     33  OXT GLY A   2     -11.016   4.821  74.432  1.00  0.00    -0.321 OA 
ATOM     34  C   GLY A   2     -10.705   5.471  73.442  1.00  0.00    -0.278 C  
ATOM     35  O   GLY A   2     -10.778   6.816  73.452  1.00  0.00    -0.292 OA 
ENDBRANCH  30  32
ENDBRANCH  27  28
BRANCH  27  36
HETATM   36  N   UNK A   1      -8.649   6.669  68.022  1.00  0.00    -0.119 N  
HETATM   37  H   UNK A   1      -9.356   6.345  67.362  1.00  0.00     0.000 HD 
HETATM   38  O   UNK A   1      -6.415   7.066  68.338  1.00  0.00    -0.037 OA 
HETATM   39  C   UNK A   1      -7.322   6.578  67.673  1.00  0.00    -0.095 C  
BRANCH  39  40
HETATM   40  C   UNK A   1      -7.024   5.949  66.320  1.00  0.00    -0.063 C  
BRANCH  40  41
HETATM   41  C   UNK A   1      -8.185   5.897  65.308  1.00  0.00    -0.141 C  
BRANCH  41  42
HETATM   42  C   UNK A   1      -8.971   4.584  65.192  1.00  0.00    -0.147 C  
HETATM   43  N   UNK A   1     -10.442   4.804  65.194  1.00  0.00    -0.464 NA 
HETATM   44  C   UNK A   1      -8.648   3.688  66.374  1.00  0.00    -0.115 C  
HETATM   45  O   UNK A   1      -7.670   2.984  66.548  1.00  0.00    -0.075 OA 
HETATM   46  O   UNK A   1      -9.617   3.827  67.308  1.00  0.00    -0.202 OA 
HETATM   47  H2  UNK A   1     -10.717   5.462  64.465  1.00  0.00     0.000 HD 
HETATM   48  H1  UNK A   1     -10.964   3.931  65.117  1.00  0.00     0.000 HD 
ENDBRANCH  41  42
ENDBRANCH  40  41
ENDBRANCH  39  40
ENDBRANCH  27  36
ENDBRANCH  26  27
ENDBRANCH  25  26
ENDBRANCH  24  25
ENDBRANCH  23  24
ENDBRANCH  14  23
ENDBRANCH  11  14
ENDBRANCH   9  10
ENDBRANCH   8   9
ENDBRANCH   4   8
TORSDOF 17
ENDMDL
MODEL      254
REMARK 921   NORMALIZED FREE ENERGY PREDICTED BY IDOCK:   -3.33 KCAL/MOL
REMARK 922        TOTAL FREE ENERGY PREDICTED BY IDOCK:   -9.60 KCAL/MOL
REMARK 923 INTER-LIGAND FREE ENERGY PREDICTED BY IDOCK:   -9.61 KCAL/MOL
REMARK 924 INTRA-LIGAND FREE ENERGY PREDICTED BY IDOCK:    0.00 KCAL/MOL
REMARK 927      BINDING AFFINITY PREDICTED BY RF-SCORE:    0.00 PKD
ROOT
HETATM    1  N   UNK A   1      -7.957  13.455  68.537  1.00  0.00    -0.212 NA 
HETATM    2  H1  UNK A   1      -8.661  14.192  68.489  1.00  0.00     0.000 HD 
HETATM    3  H2  UNK A   1      -8.187  12.784  69.269  1.00  0.00     0.000 HD 
HETATM    4  C   UNK A   1      -6.571  13.968  68.709  1.00  0.00    -0.096 C  
HETATM    5  O   UNK A   1      -5.167  15.299  67.196  1.00  0.00    -0.285 OA 
HETATM    6  C   UNK A   1      -6.278  14.985  67.593  1.00  0.00    -0.110 C  
HETATM    7  O   UNK A   1      -7.429  15.503  67.094  1.00  0.00    -0.206 OA 
ENDROOT
BRANCH   4   8
HETATM    8  C   UNK A   1      -5.515  12.863  68.781  1.00  0.00    -0.071 C  
BRANCH   8   9
HETATM    9  C   UNK A   1      -5.479  12.088  70.100  1.00  0.00    -0.117 C  
BRANCH   9  10
HETATM   10  C   UNK A   1      -6.225  10.783  69.948  1.00  0.00    -0.106 C  
HETATM   11  N   UNK A   1      -7.552  10.839  70.318  1.00  0.00    -0.050 N  
HETATM   12  O   UNK A   1      -5.675   9.754  69.565  1.00  0.00    -0.034 OA 
HETATM   13  H   UNK A   1      -7.946  11.705  70.684  1.00  0.00     0.000 HD 
BRANCH  11  14
HETATM   14  C   UNK A   1      -8.394   9.643  70.182  1.00  0.00    -0.198 C  
BRANCH  14  15
HETATM   15  C   UNK A   1      -8.136   8.717  71.389  1.00  0.00    -0.142 C  
ATOM     16  H   GLY A   2     -10.037   7.929  71.174  1.00  0.00     0.000 HD 
ATOM     17  N   GLY A   2      -9.172   7.868  71.710  1.00  0.00    -0.143 N  
HETATM   18  O   UNK A   1      -7.098   8.746  72.031  1.00  0.00    -0.216 OA 
BRANCH  17  19
ATOM     19  CA  GLY A   2      -9.083   6.889  72.779  1.00  0.00    -0.134 C  
ATOM     20  C   GLY A   2     -10.384   6.651  73.529  1.00  0.00    -0.296 C  
ATOM     21  O   GLY A   2     -11.256   7.703  73.528  1.00  0.00    -0.283 OA 
ATOM     22  OXT GLY A   2     -10.630   5.630  74.154  1.00  0.00    -0.272 OA 
ENDBRANCH  17  19
ENDBRANCH  14  15
BRANCH  14  23
HETATM   23  C   UNK A   1      -8.107   8.925  68.852  1.00  0.00    -0.112 C  
BRANCH  23  24
HETATM   24  S   UNK A   1      -8.399   9.898  67.341  1.00  0.00    -0.118 SA 
BRANCH  24  25
HETATM   25  S   UNK A   1     -10.327   9.384  66.870  1.00  0.00    -0.216 SA 
BRANCH  25  26
HETATM   26  C   UNK A   1     -11.284  10.240  68.171  1.00  0.00    -0.229 C  
BRANCH  26  27
HETATM   27  C   UNK A   1     -11.217  11.778  68.135  1.00  0.00    -0.260 C  
BRANCH  27  28
HETATM   28  C   UNK A   1     -11.398  12.301  66.679  1.00  0.00    -0.343 C  
ATOM     29  H   GLY A   2     -10.551  14.148  67.164  1.00  0.00     0.000 HD 
ATOM     30  N   GLY A   2     -10.922  13.569  66.411  1.00  0.00    -0.292 N  
HETATM   31  O   UNK A   1     -11.823  11.591  65.769  1.00  0.00    -0.219 OA 
BRANCH  30  32
ATOM     32  CA  GLY A   2     -10.954  14.074  65.044  1.00  0.00    -0.375 C  
ATOM     33  OXT GLY A   2     -12.498  14.212  63.156  1.00  0.00    -0.678 OA 
ATOM     34  C   GLY A   2     -12.320  14.253  64.368  1.00  0.00    -0.391 C  
ATOM     35  O   GLY A   2     -13.298  14.675  65.191  1.00  0.00    -0.304 OA 
ENDBRANCH  30  32
ENDBRANCH  27  28
BRANCH  27  36
HETATM   36  N   UNK A   1     -11.956  12.456  69.223  1.00  0.00    -0.285 N  
HETATM   37  H   UNK A   1     -12.487  13.300  69.007  1.00  0.00     0.000 HD 
HETATM   38  O   UNK A   1     -11.458  10.911  70.839  1.00  0.00    -0.205 OA 
HETATM   39  C   UNK A   1     -11.950  11.987  70.515  1.00  0.00    -0.246 C  
BRANCH  39  40
HETATM   40  C   UNK A   1     -12.720  12.813  71.535  1.00  0.00    -0.330 C  
BRANCH  40  41
HETATM   41  C   UNK A   1     -13.587  13.961  70.985  1.00  0.00    -0.067 C  
BRANCH  41  42
HETATM   42  C   UNK A   1     -12.960  15.362  70.926  1.00  0.00    -0.478 C  
HETATM   43  N   UNK A   1     -12.754  15.830  69.529  1.00  0.00    -0.483 NA 
HETATM   44  C   UNK A   1     -11.600  15.343  71.599  1.00  0.00    -0.423 C  
HETATM   45  O   UNK A   1     -11.341  15.373  72.789  1.00  0.00    -0.378 OA 
HETATM   46  O   UNK A   1     -10.643  15.211  70.653  1.00  0.00    -0.203 OA 
HETATM   47  H2  UNK A   1     -13.623  15.794  68.997  1.00  0.00     0.000 HD 
HETATM   48  H1  UNK A   1     -12.337  16.760  69.490  1.00  0.00     0.000 HD 
ENDBRANCH  41  42
ENDBRANCH  40  41
ENDBRANCH  39  40
ENDBRANCH  27  36
ENDBRANCH  26  27
ENDBRANCH  25  26
ENDBRANCH  24  25
ENDBRANCH  23  24
ENDBRANCH  14  23
ENDBRANCH  11  14
ENDBRANCH   9  10
ENDBRANCH   8   9
ENDBRANCH   4   8
TORSDOF 17
ENDMDL
MODEL      255
REMARK 921   NORMALIZED FREE ENERGY PREDICTED BY IDOCK:   -3.32 KCAL/MOL
REMARK 922        TOTAL FREE ENERGY PREDICTED BY IDOCK:   -9.59 KCAL/MOL
REMARK 923 INTER-LIGAND FREE ENERGY PREDICTED BY IDOCK:   -7.64 KCAL/MOL
REMARK 924 INTRA-LIGAND FREE ENERGY PREDICTED BY IDOCK:   -1.96 KCAL/MOL
REMARK 927      BINDING AFFINITY PREDICTED BY RF-SCORE:    0.00 PKD
ROOT
HETATM    1  N   UNK A   1      -9.178  14.721  65.998  1.00  0.00    -0.504 NA 
HETATM    2  H1  UNK A   1      -8.454  14.892  65.301  1.00  0.00     0.000 HD 
HETATM    3  H2  UNK A   1      -9.895  14.096  65.628  1.00  0.00     0.000 HD 
HETATM    4  C   UNK A   1      -9.791  15.965  66.536  1.00  0.00    -0.261 C  
HETATM    5  O   UNK A   1      -8.814  17.760  67.900  1.00  0.00    -0.242 OA 
HETATM    6  C   UNK A   1      -8.672  16.878  67.068  1.00  0.00    -0.209 C  
HETATM    7  O   UNK A   1      -7.484  16.577  66.485  1.00  0.00    -0.253 OA 
ENDROOT
BRANCH   4   8
HETATM    8  C   UNK A   1     -10.878  15.708  67.583  1.00  0.00    -0.307 C  
BRANCH   8   9
HETATM    9  C   UNK A   1     -10.486  14.735  68.696  1.00  0.00    -0.250 C  
BRANCH   9  10
HETATM   10  C   UNK A   1     -11.328  13.484  68.603  1.00  0.00    -0.288 C  
HETATM   11  N   UNK A   1     -10.713  12.346  69.082  1.00  0.00    -0.433 N  
HETATM   12  O   UNK A   1     -12.449  13.483  68.102  1.00  0.00    -0.062 OA 
HETATM   13  H   UNK A   1      -9.758  12.390  69.435  1.00  0.00     0.000 HD 
BRANCH  11  14
HETATM   14  C   UNK A   1     -11.443  11.071  69.079  1.00  0.00    -0.299 C  
BRANCH  14  15
HETATM   15  C   UNK A   1     -10.928  10.205  70.246  1.00  0.00    -0.317 C  
ATOM     16  H   GLY A   2     -12.877   9.678  70.698  1.00  0.00     0.000 HD 
ATOM     17  N   GLY A   2     -11.900   9.533  70.953  1.00  0.00    -0.296 N  
HETATM   18  O   UNK A   1      -9.744  10.131  70.539  1.00  0.00    -0.002 OA 
BRANCH  17  19
ATOM     19  CA  GLY A   2     -11.593   8.627  72.046  1.00  0.00    -0.370 C  
ATOM     20  C   GLY A   2     -11.794   7.155  71.724  1.00  0.00    -0.303 C  
ATOM     21  O   GLY A   2     -12.718   6.894  70.752  1.00  0.00    -0.286 OA 
ATOM     22  OXT GLY A   2     -11.233   6.247  72.320  1.00  0.00    -0.254 OA 
ENDBRANCH  17  19
ENDBRANCH  14  15
BRANCH  14  23
HETATM   23  C   UNK A   1     -11.277  10.353  67.729  1.00  0.00    -0.237 C  
BRANCH  23  24
HETATM   24  S   UNK A   1     -10.479   8.717  67.788  1.00  0.00    -0.201 SA 
BRANCH  24  25
HETATM   25  S   UNK A   1      -8.710   9.071  66.816  1.00  0.00    -0.125 SA 
BRANCH  25  26
HETATM   26  C   UNK A   1      -7.883   7.444  66.913  1.00  0.00    -0.115 C  
BRANCH  26  27
HETATM   27  C   UNK A   1      -8.699   6.329  67.593  1.00  0.00    -0.113 C  
BRANCH  27  28
HETATM   28  C   UNK A   1      -9.439   5.463  66.531  1.00  0.00    -0.149 C  
ATOM     29  H   GLY A   2      -7.661   5.081  65.503  1.00  0.00     0.000 HD 
ATOM     30  N   GLY A   2      -8.659   4.876  65.555  1.00  0.00    -0.130 N  
HETATM   31  O   UNK A   1     -10.637   5.199  66.611  1.00  0.00    -0.279 OA 
BRANCH  30  32
ATOM     32  CA  GLY A   2      -9.271   3.960  64.600  1.00  0.00    -0.148 C  
ATOM     33  OXT GLY A   2      -9.093   1.628  63.896  1.00  0.00    -0.090 OA 
ATOM     34  C   GLY A   2      -9.057   2.453  64.801  1.00  0.00    -0.129 C  
ATOM     35  O   GLY A   2      -9.037   2.059  66.088  1.00  0.00    -0.116 OA 
ENDBRANCH  30  32
ENDBRANCH  27  28
BRANCH  27  36
HETATM   36  N   UNK A   1      -8.003   5.640  68.702  1.00  0.00    -0.099 N  
HETATM   37  H   UNK A   1      -7.407   4.840  68.489  1.00  0.00     0.000 HD 
HETATM   38  O   UNK A   1      -8.713   7.069  70.346  1.00  0.00    -0.144 OA 
HETATM   39  C   UNK A   1      -8.133   6.042  70.011  1.00  0.00    -0.114 C  
BRANCH  39  40
HETATM   40  C   UNK A   1      -7.392   5.210  71.047  1.00  0.00    -0.073 C  
BRANCH  40  41
HETATM   41  C   UNK A   1      -8.228   4.194  71.848  1.00  0.00    -0.092 C  
BRANCH  41  42
HETATM   42  C   UNK A   1      -8.117   2.713  71.456  1.00  0.00    -0.055 C  
HETATM   43  N   UNK A   1      -7.412   2.523  70.161  1.00  0.00    -0.043 NA 
HETATM   44  C   UNK A   1      -9.505   2.118  71.304  1.00  0.00    -0.141 C  
HETATM   45  O   UNK A   1     -10.268   1.740  72.174  1.00  0.00    -0.151 OA 
HETATM   46  O   UNK A   1      -9.843   2.122  69.995  1.00  0.00     0.039 OA 
HETATM   47  H2  UNK A   1      -6.495   2.970  70.172  1.00  0.00     0.000 HD 
HETATM   48  H1  UNK A   1      -7.338   1.540  69.900  1.00  0.00     0.000 HD 
ENDBRANCH  41  42
ENDBRANCH  40  41
ENDBRANCH  39  40
ENDBRANCH  27  36
ENDBRANCH  26  27
ENDBRANCH  25  26
ENDBRANCH  24  25
ENDBRANCH  23  24
ENDBRANCH  14  23
ENDBRANCH  11  14
ENDBRANCH   9  10
ENDBRANCH   8   9
ENDBRANCH   4   8
TORSDOF 17
ENDMDL
MODEL      256
REMARK 921   NORMALIZED FREE ENERGY PREDICTED BY IDOCK:   -3.30 KCAL/MOL
REMARK 922        TOTAL FREE ENERGY PREDICTED BY IDOCK:   -9.54 KCAL/MOL
REMARK 923 INTER-LIGAND FREE ENERGY PREDICTED BY IDOCK:   -9.11 KCAL/MOL
REMARK 924 INTRA-LIGAND FREE ENERGY PREDICTED BY IDOCK:   -0.43 KCAL/MOL
REMARK 927      BINDING AFFINITY PREDICTED BY RF-SCORE:    0.00 PKD
ROOT
HETATM    1  N   UNK A   1     -10.425  10.602  62.908  1.00  0.00    -0.670 NA 
HETATM    2  H1  UNK A   1     -10.061  10.752  61.967  1.00  0.00     0.000 HD 
HETATM    3  H2  UNK A   1     -11.311  11.091  63.034  1.00  0.00     0.000 HD 
HETATM    4  C   UNK A   1      -9.465  10.966  63.983  1.00  0.00    -0.262 C  
HETATM    5  O   UNK A   1      -7.304   9.968  64.593  1.00  0.00    -0.136 OA 
HETATM    6  C   UNK A   1      -8.143  10.216  63.742  1.00  0.00    -0.160 C  
HETATM    7  O   UNK A   1      -8.021   9.856  62.438  1.00  0.00    -0.113 OA 
ENDROOT
BRANCH   4   8
HETATM    8  C   UNK A   1     -10.012  10.739  65.394  1.00  0.00    -0.330 C  
BRANCH   8   9
HETATM    9  C   UNK A   1      -9.965   9.290  65.881  1.00  0.00    -0.289 C  
BRANCH   9  10
HETATM   10  C   UNK A   1      -9.481   9.245  67.311  1.00  0.00    -0.144 C  
HETATM   11  N   UNK A   1      -8.123   9.042  67.447  1.00  0.00    -0.107 N  
HETATM   12  O   UNK A   1     -10.246   9.341  68.267  1.00  0.00    -0.185 OA 
HETATM   13  H   UNK A   1      -7.539   8.912  66.622  1.00  0.00     0.000 HD 
BRANCH  11  14
HETATM   14  C   UNK A   1      -7.525   9.016  68.788  1.00  0.00    -0.076 C  
BRANCH  14  15
HETATM   15  C   UNK A   1      -8.052   7.776  69.540  1.00  0.00    -0.126 C  
ATOM     16  H   GLY A   2      -6.172   7.487  70.356  1.00  0.00     0.000 HD 
ATOM     17  N   GLY A   2      -7.131   7.139  70.341  1.00  0.00    -0.065 N  
HETATM   18  O   UNK A   1      -9.198   7.373  69.422  1.00  0.00    -0.146 OA 
BRANCH  17  19
ATOM     19  CA  GLY A   2      -7.466   5.991  71.166  1.00  0.00    -0.085 C  
ATOM     20  C   GLY A   2      -7.286   6.210  72.660  1.00  0.00    -0.089 C  
ATOM     21  O   GLY A   2      -6.354   7.150  73.001  1.00  0.00    -0.056 OA 
ATOM     22  OXT GLY A   2      -7.869   5.561  73.516  1.00  0.00    -0.102 OA 
ENDBRANCH  17  19
ENDBRANCH  14  15
BRANCH  14  23
HETATM   23  C   UNK A   1      -7.842  10.313  69.551  1.00  0.00    -0.168 C  
BRANCH  23  24
HETATM   24  S   UNK A   1      -6.625  11.658  69.379  1.00  0.00    -0.103 SA 
BRANCH  24  25
HETATM   25  S   UNK A   1      -7.396  12.730  67.812  1.00  0.00    -0.146 SA 
BRANCH  25  26
HETATM   26  C   UNK A   1      -7.154  14.455  68.367  1.00  0.00    -0.106 C  
BRANCH  26  27
HETATM   27  C   UNK A   1      -8.428  15.319  68.411  1.00  0.00    -0.158 C  
BRANCH  27  28
HETATM   28  C   UNK A   1      -8.138  16.752  67.875  1.00  0.00    -0.185 C  
ATOM     29  H   GLY A   2      -8.103  17.543  69.808  1.00  0.00     0.000 HD 
ATOM     30  N   GLY A   2      -7.962  17.745  68.819  1.00  0.00    -0.271 N  
HETATM   31  O   UNK A   1      -7.945  16.986  66.683  1.00  0.00    -0.213 OA 
BRANCH  30  32
ATOM     32  CA  GLY A   2      -7.573  19.083  68.390  1.00  0.00    -0.308 C  
ATOM     33  OXT GLY A   2      -5.951  20.814  68.969  1.00  0.00    -0.354 OA 
ATOM     34  C   GLY A   2      -6.211  19.623  68.845  1.00  0.00    -0.270 C  
ATOM     35  O   GLY A   2      -5.234  18.698  68.900  1.00  0.00    -0.185 OA 
ENDBRANCH  30  32
ENDBRANCH  27  28
BRANCH  27  36
HETATM   36  N   UNK A   1      -9.658  14.633  67.956  1.00  0.00    -0.207 N  
HETATM   37  H   UNK A   1      -9.672  14.208  67.029  1.00  0.00     0.000 HD 
HETATM   38  O   UNK A   1     -10.814  14.907  69.915  1.00  0.00    -0.250 OA 
HETATM   39  C   UNK A   1     -10.783  14.550  68.743  1.00  0.00    -0.253 C  
BRANCH  39  40
HETATM   40  C   UNK A   1     -11.986  13.852  68.125  1.00  0.00    -0.385 C  
BRANCH  40  41
HETATM   41  C   UNK A   1     -11.783  13.222  66.734  1.00  0.00    -0.434 C  
BRANCH  41  42
HETATM   42  C   UNK A   1     -12.730  13.662  65.608  1.00  0.00    -0.454 C  
HETATM   43  N   UNK A   1     -13.351  12.505  64.908  1.00  0.00    -0.499 NA 
HETATM   44  C   UNK A   1     -11.958  14.455  64.570  1.00  0.00    -0.472 C  
HETATM   45  O   UNK A   1     -11.609  15.621  64.611  1.00  0.00    -0.363 OA 
HETATM   46  O   UNK A   1     -11.623  13.633  63.549  1.00  0.00    -0.180 OA 
HETATM   47  H2  UNK A   1     -13.824  11.887  65.566  1.00  0.00     0.000 HD 
HETATM   48  H1  UNK A   1     -13.980  12.797  64.160  1.00  0.00     0.000 HD 
ENDBRANCH  41  42
ENDBRANCH  40  41
ENDBRANCH  39  40
ENDBRANCH  27  36
ENDBRANCH  26  27
ENDBRANCH  25  26
ENDBRANCH  24  25
ENDBRANCH  23  24
ENDBRANCH  14  23
ENDBRANCH  11  14
ENDBRANCH   9  10
ENDBRANCH   8   9
ENDBRANCH   4   8
TORSDOF 17
ENDMDL
MODEL      257
REMARK 921   NORMALIZED FREE ENERGY PREDICTED BY IDOCK:   -3.25 KCAL/MOL
REMARK 922        TOTAL FREE ENERGY PREDICTED BY IDOCK:   -9.44 KCAL/MOL
REMARK 923 INTER-LIGAND FREE ENERGY PREDICTED BY IDOCK:   -7.87 KCAL/MOL
REMARK 924 INTRA-LIGAND FREE ENERGY PREDICTED BY IDOCK:   -1.57 KCAL/MOL
REMARK 927      BINDING AFFINITY PREDICTED BY RF-SCORE:    0.00 PKD
ROOT
HETATM    1  N   UNK A   1     -12.731  11.481  62.933  1.00  0.00    -0.839 NA 
HETATM    2  H1  UNK A   1     -13.477  12.006  63.389  1.00  0.00     0.000 HD 
HETATM    3  H2  UNK A   1     -13.061  10.558  62.650  1.00  0.00     0.000 HD 
HETATM    4  C   UNK A   1     -11.495  11.369  63.753  1.00  0.00    -0.154 C  
HETATM    5  O   UNK A   1      -9.913  13.097  64.489  1.00  0.00    -0.254 OA 
HETATM    6  C   UNK A   1     -11.047  12.782  64.166  1.00  0.00    -0.389 C  
HETATM    7  O   UNK A   1     -12.088  13.652  64.127  1.00  0.00    -0.430 OA 
ENDROOT
BRANCH   4   8
HETATM    8  C   UNK A   1     -10.376  10.581  63.068  1.00  0.00     0.305 C  
BRANCH   8   9
HETATM    9  C   UNK A   1      -9.037  11.314  62.968  1.00  0.00    -0.257 C  
BRANCH   9  10
HETATM   10  C   UNK A   1      -7.946  10.475  63.593  1.00  0.00    -0.023 C  
HETATM   11  N   UNK A   1      -8.185  10.114  64.902  1.00  0.00    -0.152 N  
HETATM   12  O   UNK A   1      -6.919  10.180  62.990  1.00  0.00    -0.129 OA 
HETATM   13  H   UNK A   1      -9.029  10.433  65.376  1.00  0.00     0.000 HD 
BRANCH  11  14
HETATM   14  C   UNK A   1      -7.215   9.267  65.609  1.00  0.00    -0.090 C  
BRANCH  14  15
HETATM   15  C   UNK A   1      -7.515   7.791  65.278  1.00  0.00    -0.082 C  
ATOM     16  H   GLY A   2      -6.545   7.218  67.014  1.00  0.00     0.000 HD 
ATOM     17  N   GLY A   2      -7.069   6.878  66.208  1.00  0.00    -0.072 N  
HETATM   18  O   UNK A   1      -8.088   7.448  64.255  1.00  0.00    -0.129 OA 
BRANCH  17  19
ATOM     19  CA  GLY A   2      -7.313   5.451  66.088  1.00  0.00    -0.081 C  
ATOM     20  C   GLY A   2      -8.706   5.009  66.505  1.00  0.00    -0.109 C  
ATOM     21  O   GLY A   2      -9.321   5.815  67.422  1.00  0.00    -0.112 OA 
ATOM     22  OXT GLY A   2      -9.236   3.978  66.117  1.00  0.00    -0.137 OA 
ENDBRANCH  17  19
ENDBRANCH  14  15
BRANCH  14  23
HETATM   23  C   UNK A   1      -7.271   9.526  67.125  1.00  0.00    -0.087 C  
BRANCH  23  24
HETATM   24  S   UNK A   1      -5.675   9.849  67.938  1.00  0.00    -0.039 SA 
BRANCH  24  25
HETATM   25  S   UNK A   1      -5.685  11.892  68.099  1.00  0.00    -0.051 SA 
BRANCH  25  26
HETATM   26  C   UNK A   1      -7.293  12.331  67.350  1.00  0.00    -0.151 C  
BRANCH  26  27
HETATM   27  C   UNK A   1      -8.165  13.295  68.176  1.00  0.00    -0.160 C  
BRANCH  27  28
HETATM   28  C   UNK A   1      -8.506  14.571  67.351  1.00  0.00    -0.205 C  
ATOM     29  H   GLY A   2     -10.394  14.721  68.231  1.00  0.00     0.000 HD 
ATOM     30  N   GLY A   2      -9.728  15.163  67.598  1.00  0.00    -0.211 N  
HETATM   31  O   UNK A   1      -7.691  15.114  66.607  1.00  0.00    -0.004 OA 
BRANCH  30  32
ATOM     32  CA  GLY A   2     -10.061  16.423  66.946  1.00  0.00    -0.281 C  
ATOM     33  OXT GLY A   2     -10.988  18.612  67.510  1.00  0.00    -0.392 OA 
ATOM     34  C   GLY A   2     -10.286  17.659  67.828  1.00  0.00    -0.354 C  
ATOM     35  O   GLY A   2      -9.480  17.729  68.905  1.00  0.00    -0.262 OA 
ENDBRANCH  30  32
ENDBRANCH  27  28
BRANCH  27  36
HETATM   36  N   UNK A   1      -9.248  12.645  68.947  1.00  0.00    -0.374 N  
HETATM   37  H   UNK A   1      -9.360  12.879  69.934  1.00  0.00     0.000 HD 
HETATM   38  O   UNK A   1     -10.139  11.499  67.174  1.00  0.00    -0.194 OA 
HETATM   39  C   UNK A   1     -10.109  11.737  68.377  1.00  0.00    -0.201 C  
BRANCH  39  40
HETATM   40  C   UNK A   1     -11.145  11.119  69.304  1.00  0.00    -0.318 C  
BRANCH  40  41
HETATM   41  C   UNK A   1     -10.682   9.934  70.172  1.00  0.00    -0.361 C  
BRANCH  41  42
HETATM   42  C   UNK A   1      -9.935   8.788  69.474  1.00  0.00    -0.195 C  
HETATM   43  N   UNK A   1     -10.789   8.079  68.483  1.00  0.00    -0.417 NA 
HETATM   44  C   UNK A   1      -9.492   7.763  70.502  1.00  0.00    -0.163 C  
HETATM   45  O   UNK A   1      -8.537   7.808  71.256  1.00  0.00    -0.116 OA 
HETATM   46  O   UNK A   1     -10.390   6.752  70.528  1.00  0.00    -0.198 OA 
HETATM   47  H2  UNK A   1     -11.182   8.730  67.804  1.00  0.00     0.000 HD 
HETATM   48  H1  UNK A   1     -10.293   7.318  68.019  1.00  0.00     0.000 HD 
ENDBRANCH  41  42
ENDBRANCH  40  41
ENDBRANCH  39  40
ENDBRANCH  27  36
ENDBRANCH  26  27
ENDBRANCH  25  26
ENDBRANCH  24  25
ENDBRANCH  23  24
ENDBRANCH  14  23
ENDBRANCH  11  14
ENDBRANCH   9  10
ENDBRANCH   8   9
ENDBRANCH   4   8
TORSDOF 17
ENDMDL
MODEL      258
REMARK 921   NORMALIZED FREE ENERGY PREDICTED BY IDOCK:   -3.19 KCAL/MOL
REMARK 922        TOTAL FREE ENERGY PREDICTED BY IDOCK:   -9.34 KCAL/MOL
REMARK 923 INTER-LIGAND FREE ENERGY PREDICTED BY IDOCK:   -8.14 KCAL/MOL
REMARK 924 INTRA-LIGAND FREE ENERGY PREDICTED BY IDOCK:   -1.19 KCAL/MOL
REMARK 927      BINDING AFFINITY PREDICTED BY RF-SCORE:    0.00 PKD
ROOT
HETATM    1  N   UNK A   1     -10.750   8.478  68.909  1.00  0.00    -0.405 NA 
HETATM    2  H1  UNK A   1     -11.677   8.184  68.601  1.00  0.00     0.000 HD 
HETATM    3  H2  UNK A   1     -10.024   8.004  68.372  1.00  0.00     0.000 HD 
HETATM    4  C   UNK A   1     -10.525   8.301  70.369  1.00  0.00    -0.215 C  
HETATM    5  O   UNK A   1     -11.584   9.409  72.289  1.00  0.00    -0.152 OA 
HETATM    6  C   UNK A   1     -11.650   9.020  71.134  1.00  0.00    -0.306 C  
HETATM    7  O   UNK A   1     -12.749   9.169  70.351  1.00  0.00     0.250 OA 
ENDROOT
BRANCH   4   8
HETATM    8  C   UNK A   1      -9.134   8.742  70.831  1.00  0.00    -0.256 C  
BRANCH   8   9
HETATM    9  C   UNK A   1      -7.979   8.271  69.946  1.00  0.00    -0.108 C  
BRANCH   9  10
HETATM   10  C   UNK A   1      -7.510   9.408  69.069  1.00  0.00    -0.073 C  
HETATM   11  N   UNK A   1      -8.177  10.598  69.273  1.00  0.00    -0.275 N  
HETATM   12  O   UNK A   1      -6.636   9.264  68.219  1.00  0.00    -0.058 OA 
HETATM   13  H   UNK A   1      -8.935  10.650  69.952  1.00  0.00     0.000 HD 
BRANCH  11  14
HETATM   14  C   UNK A   1      -7.787  11.789  68.506  1.00  0.00    -0.144 C  
BRANCH  14  15
HETATM   15  C   UNK A   1      -6.683  12.536  69.281  1.00  0.00    -0.060 C  
ATOM     16  H   GLY A   2      -6.705  14.028  67.847  1.00  0.00     0.000 HD 
ATOM     17  N   GLY A   2      -6.288  13.736  68.731  1.00  0.00    -0.086 N  
HETATM   18  O   UNK A   1      -6.177  12.092  70.300  1.00  0.00    -0.129 OA 
BRANCH  17  19
ATOM     19  CA  GLY A   2      -5.302  14.601  69.355  1.00  0.00    -0.086 C  
ATOM     20  C   GLY A   2      -5.847  15.934  69.842  1.00  0.00    -0.159 C  
ATOM     21  O   GLY A   2      -6.950  16.389  69.175  1.00  0.00    -0.194 OA 
ATOM     22  OXT GLY A   2      -5.319  16.603  70.718  1.00  0.00    -0.200 OA 
ENDBRANCH  17  19
ENDBRANCH  14  15
BRANCH  14  23
HETATM   23  C   UNK A   1      -9.006  12.693  68.251  1.00  0.00    -0.176 C  
BRANCH  23  24
HETATM   24  S   UNK A   1     -10.587  12.116  68.945  1.00  0.00    -0.088 SA 
BRANCH  24  25
HETATM   25  S   UNK A   1     -11.785  12.058  67.282  1.00  0.00    -0.195 SA 
BRANCH  25  26
HETATM   26  C   UNK A   1     -10.624  11.496  65.988  1.00  0.00    -0.261 C  
BRANCH  26  27
HETATM   27  C   UNK A   1     -10.854  12.096  64.589  1.00  0.00    -0.306 C  
BRANCH  27  28
HETATM   28  C   UNK A   1     -11.434  13.538  64.699  1.00  0.00    -0.358 C  
ATOM     29  H   GLY A   2      -9.667  14.259  65.548  1.00  0.00     0.000 HD 
ATOM     30  N   GLY A   2     -10.591  14.511  65.197  1.00  0.00    -0.383 N  
HETATM   31  O   UNK A   1     -12.539  13.842  64.252  1.00  0.00    -0.654 OA 
BRANCH  30  32
ATOM     32  CA  GLY A   2     -11.031  15.900  65.218  1.00  0.00    -0.324 C  
ATOM     33  OXT GLY A   2     -10.481  17.999  66.339  1.00  0.00    -0.375 OA 
ATOM     34  C   GLY A   2     -10.098  16.947  65.842  1.00  0.00    -0.283 C  
ATOM     35  O   GLY A   2      -8.788  16.731  65.618  1.00  0.00    -0.461 OA 
ENDBRANCH  30  32
ENDBRANCH  27  28
BRANCH  27  36
HETATM   36  N   UNK A   1      -9.764  11.849  63.620  1.00  0.00    -0.545 N  
HETATM   37  H   UNK A   1      -9.464  12.608  63.009  1.00  0.00     0.000 HD 
HETATM   38  O   UNK A   1      -9.336   9.702  64.296  1.00  0.00    -0.244 OA 
HETATM   39  C   UNK A   1      -9.140  10.627  63.516  1.00  0.00    -0.238 C  
BRANCH  39  40
HETATM   40  C   UNK A   1      -8.066  10.509  62.445  1.00  0.00    -0.216 C  
BRANCH  40  41
HETATM   41  C   UNK A   1      -6.779   9.756  62.833  1.00  0.00    -0.110 C  
BRANCH  41  42
HETATM   42  C   UNK A   1      -6.856   8.775  64.012  1.00  0.00    -0.083 C  
HETATM   43  N   UNK A   1      -5.873   9.097  65.080  1.00  0.00    -0.058 NA 
HETATM   44  C   UNK A   1      -6.552   7.369  63.528  1.00  0.00    -0.053 C  
HETATM   45  O   UNK A   1      -7.286   6.590  62.947  1.00  0.00    -0.053 OA 
HETATM   46  O   UNK A   1      -5.253   7.090  63.780  1.00  0.00    -0.027 OA 
HETATM   47  H2  UNK A   1      -5.975  10.060  65.397  1.00  0.00     0.000 HD 
HETATM   48  H1  UNK A   1      -5.924   8.445  65.863  1.00  0.00     0.000 HD 
ENDBRANCH  41  42
ENDBRANCH  40  41
ENDBRANCH  39  40
ENDBRANCH  27  36
ENDBRANCH  26  27
ENDBRANCH  25  26
ENDBRANCH  24  25
ENDBRANCH  23  24
ENDBRANCH  14  23
ENDBRANCH  11  14
ENDBRANCH   9  10
ENDBRANCH   8   9
ENDBRANCH   4   8
TORSDOF 17
ENDMDL
MODEL      259
REMARK 921   NORMALIZED FREE ENERGY PREDICTED BY IDOCK:   -3.18 KCAL/MOL
REMARK 922        TOTAL FREE ENERGY PREDICTED BY IDOCK:   -9.32 KCAL/MOL
REMARK 923 INTER-LIGAND FREE ENERGY PREDICTED BY IDOCK:   -8.22 KCAL/MOL
REMARK 924 INTRA-LIGAND FREE ENERGY PREDICTED BY IDOCK:   -1.09 KCAL/MOL
REMARK 927      BINDING AFFINITY PREDICTED BY RF-SCORE:    0.00 PKD
ROOT
HETATM    1  N   UNK A   1     -10.164   9.943  64.375  1.00  0.00    -0.316 NA 
HETATM    2  H1  UNK A   1     -10.553  10.019  63.435  1.00  0.00     0.000 HD 
HETATM    3  H2  UNK A   1     -10.703  10.503  65.035  1.00  0.00     0.000 HD 
HETATM    4  C   UNK A   1      -8.719  10.287  64.450  1.00  0.00    -0.198 C  
HETATM    5  O   UNK A   1      -6.762   9.161  63.481  1.00  0.00    -0.090 OA 
HETATM    6  C   UNK A   1      -7.952   9.428  63.429  1.00  0.00    -0.143 C  
HETATM    7  O   UNK A   1      -8.778   8.996  62.442  1.00  0.00    -0.221 OA 
ENDROOT
BRANCH   4   8
HETATM    8  C   UNK A   1      -8.135  10.172  65.860  1.00  0.00    -0.136 C  
BRANCH   8   9
HETATM    9  C   UNK A   1      -7.218  11.324  66.275  1.00  0.00     0.007 C  
BRANCH   9  10
HETATM   10  C   UNK A   1      -7.943  12.235  67.237  1.00  0.00    -0.177 C  
HETATM   11  N   UNK A   1      -8.678  13.233  66.632  1.00  0.00    -0.435 N  
HETATM   12  O   UNK A   1      -7.846  12.116  68.455  1.00  0.00    -0.140 OA 
HETATM   13  H   UNK A   1      -8.679  13.325  65.616  1.00  0.00     0.000 HD 
BRANCH  11  14
HETATM   14  C   UNK A   1      -9.458  14.163  67.459  1.00  0.00    -0.210 C  
BRANCH  14  15
HETATM   15  C   UNK A   1      -8.550  15.340  67.870  1.00  0.00    -0.152 C  
ATOM     16  H   GLY A   2      -7.359  14.981  66.216  1.00  0.00     0.000 HD 
ATOM     17  N   GLY A   2      -7.497  15.594  67.019  1.00  0.00    -0.216 N  
HETATM   18  O   UNK A   1      -8.735  15.991  68.886  1.00  0.00    -0.208 OA 
BRANCH  17  19
ATOM     19  CA  GLY A   2      -6.575  16.699  67.218  1.00  0.00    -0.178 C  
ATOM     20  C   GLY A   2      -7.094  18.050  66.753  1.00  0.00    -0.205 C  
ATOM     21  O   GLY A   2      -8.024  18.001  65.752  1.00  0.00    -0.532 OA 
ATOM     22  OXT GLY A   2      -6.681  19.118  67.177  1.00  0.00    -0.197 OA 
ENDBRANCH  17  19
ENDBRANCH  14  15
BRANCH  14  23
HETATM   23  C   UNK A   1     -10.036  13.442  68.689  1.00  0.00    -0.157 C  
BRANCH  23  24
HETATM   24  S   UNK A   1     -11.705  12.741  68.493  1.00  0.00    -0.329 SA 
BRANCH  24  25
HETATM   25  S   UNK A   1     -11.293  10.780  68.057  1.00  0.00    -0.258 SA 
BRANCH  25  26
HETATM   26  C   UNK A   1     -10.919  10.089  69.707  1.00  0.00    -0.276 C  
BRANCH  26  27
HETATM   27  C   UNK A   1     -10.843   8.552  69.776  1.00  0.00    -0.175 C  
BRANCH  27  28
HETATM   28  C   UNK A   1      -9.732   8.014  68.826  1.00  0.00    -0.156 C  
ATOM     29  H   GLY A   2     -11.090   6.788  67.818  1.00  0.00     0.000 HD 
ATOM     30  N   GLY A   2     -10.128   7.126  67.846  1.00  0.00    -0.164 N  
HETATM   31  O   UNK A   1      -8.579   8.443  68.848  1.00  0.00    -0.132 OA 
BRANCH  30  32
ATOM     32  CA  GLY A   2      -9.161   6.675  66.852  1.00  0.00    -0.142 C  
ATOM     33  OXT GLY A   2      -8.480   4.612  65.736  1.00  0.00    -0.114 OA 
ATOM     34  C   GLY A   2      -9.379   5.303  66.199  1.00  0.00    -0.156 C  
ATOM     35  O   GLY A   2     -10.670   4.992  65.973  1.00  0.00    -0.298 OA 
ENDBRANCH  30  32
ENDBRANCH  27  28
BRANCH  27  36
HETATM   36  N   UNK A   1     -10.936   7.987  71.140  1.00  0.00    -0.239 N  
HETATM   37  H   UNK A   1     -11.672   7.312  71.346  1.00  0.00     0.000 HD 
HETATM   38  O   UNK A   1      -9.068   9.036  71.953  1.00  0.00    -0.365 OA 
HETATM   39  C   UNK A   1     -10.062   8.342  72.141  1.00  0.00    -0.306 C  
BRANCH  39  40
HETATM   40  C   UNK A   1     -10.307   7.712  73.504  1.00  0.00    -0.306 C  
BRANCH  40  41
HETATM   41  C   UNK A   1     -10.542   6.190  73.532  1.00  0.00    -0.283 C  
BRANCH  41  42
HETATM   42  C   UNK A   1      -9.700   5.322  72.586  1.00  0.00    -0.151 C  
HETATM   43  N   UNK A   1     -10.463   4.895  71.382  1.00  0.00    -0.149 NA 
HETATM   44  C   UNK A   1      -9.254   4.063  73.306  1.00  0.00    -0.105 C  
HETATM   45  O   UNK A   1      -8.342   3.925  74.101  1.00  0.00    -0.089 OA 
HETATM   46  O   UNK A   1     -10.095   3.053  72.987  1.00  0.00    -0.124 OA 
HETATM   47  H2  UNK A   1     -10.857   5.697  70.892  1.00  0.00     0.000 HD 
HETATM   48  H1  UNK A   1      -9.904   4.318  70.754  1.00  0.00     0.000 HD 
ENDBRANCH  41  42
ENDBRANCH  40  41
ENDBRANCH  39  40
ENDBRANCH  27  36
ENDBRANCH  26  27
ENDBRANCH  25  26
ENDBRANCH  24  25
ENDBRANCH  23  24
ENDBRANCH  14  23
ENDBRANCH  11  14
ENDBRANCH   9  10
ENDBRANCH   8   9
ENDBRANCH   4   8
TORSDOF 17
ENDMDL
MODEL      260
REMARK 921   NORMALIZED FREE ENERGY PREDICTED BY IDOCK:   -3.18 KCAL/MOL
REMARK 922        TOTAL FREE ENERGY PREDICTED BY IDOCK:   -9.32 KCAL/MOL
REMARK 923 INTER-LIGAND FREE ENERGY PREDICTED BY IDOCK:   -8.84 KCAL/MOL
REMARK 924 INTRA-LIGAND FREE ENERGY PREDICTED BY IDOCK:   -0.47 KCAL/MOL
REMARK 927      BINDING AFFINITY PREDICTED BY RF-SCORE:    0.00 PKD
ROOT
HETATM    1  N   UNK A   1     -10.056   3.452  71.755  1.00  0.00    -0.122 NA 
HETATM    2  H1  UNK A   1     -10.444   2.984  72.574  1.00  0.00     0.000 HD 
HETATM    3  H2  UNK A   1      -9.365   2.860  71.295  1.00  0.00     0.000 HD 
HETATM    4  C   UNK A   1      -9.485   4.794  72.053  1.00  0.00    -0.141 C  
HETATM    5  O   UNK A   1     -10.583   6.862  72.793  1.00  0.00    -0.211 OA 
HETATM    6  C   UNK A   1     -10.557   5.642  72.757  1.00  0.00    -0.228 C  
HETATM    7  O   UNK A   1     -11.490   4.852  73.348  1.00  0.00    -0.336 OA 
ENDROOT
BRANCH   4   8
HETATM    8  C   UNK A   1      -8.902   5.496  70.825  1.00  0.00    -0.143 C  
BRANCH   8   9
HETATM    9  C   UNK A   1      -9.896   5.742  69.688  1.00  0.00    -0.230 C  
BRANCH   9  10
HETATM   10  C   UNK A   1      -9.947   7.216  69.362  1.00  0.00    -0.164 C  
HETATM   11  N   UNK A   1      -8.936   7.651  68.532  1.00  0.00    -0.130 N  
HETATM   12  O   UNK A   1     -10.797   7.964  69.837  1.00  0.00    -0.247 OA 
HETATM   13  H   UNK A   1      -8.220   7.001  68.211  1.00  0.00     0.000 HD 
BRANCH  11  14
HETATM   14  C   UNK A   1      -8.897   9.059  68.112  1.00  0.00    -0.133 C  
BRANCH  14  15
HETATM   15  C   UNK A   1      -9.497   9.169  66.696  1.00  0.00    -0.185 C  
ATOM     16  H   GLY A   2      -7.731  10.014  66.027  1.00  0.00     0.000 HD 
ATOM     17  N   GLY A   2      -8.657   9.697  65.741  1.00  0.00    -0.132 N  
HETATM   18  O   UNK A   1     -10.643   8.833  66.438  1.00  0.00    -0.132 OA 
BRANCH  17  19
ATOM     19  CA  GLY A   2      -9.034   9.822  64.344  1.00  0.00    -0.245 C  
ATOM     20  C   GLY A   2      -9.537  11.199  63.943  1.00  0.00    -0.254 C  
ATOM     21  O   GLY A   2     -10.098  11.929  64.954  1.00  0.00    -0.255 OA 
ATOM     22  OXT GLY A   2      -9.515  11.623  62.797  1.00  0.00    -0.348 OA 
ENDBRANCH  17  19
ENDBRANCH  14  15
BRANCH  14  23
HETATM   23  C   UNK A   1      -7.458   9.600  68.157  1.00  0.00    -0.082 C  
BRANCH  23  24
HETATM   24  S   UNK A   1      -7.146  11.119  67.204  1.00  0.00    -0.121 SA 
BRANCH  24  25
HETATM   25  S   UNK A   1      -7.679  12.578  68.542  1.00  0.00    -0.079 SA 
BRANCH  25  26
HETATM   26  C   UNK A   1      -9.484  12.703  68.278  1.00  0.00    -0.203 C  
BRANCH  26  27
HETATM   27  C   UNK A   1     -10.025  14.132  68.089  1.00  0.00    -0.232 C  
BRANCH  27  28
HETATM   28  C   UNK A   1     -11.477  14.247  68.639  1.00  0.00    -0.296 C  
ATOM     29  H   GLY A   2     -10.808  14.172  70.617  1.00  0.00     0.000 HD 
ATOM     30  N   GLY A   2     -11.620  14.294  70.012  1.00  0.00    -0.271 N  
HETATM   31  O   UNK A   1     -12.450  14.417  67.907  1.00  0.00    -0.092 OA 
BRANCH  30  32
ATOM     32  CA  GLY A   2     -12.940  14.517  70.590  1.00  0.00    -0.301 C  
ATOM     33  OXT GLY A   2     -13.941  15.175  72.718  1.00  0.00    -0.451 OA 
ATOM     34  C   GLY A   2     -13.032  15.300  71.907  1.00  0.00    -0.384 C  
ATOM     35  O   GLY A   2     -12.143  16.305  72.022  1.00  0.00    -0.489 OA 
ENDBRANCH  30  32
ENDBRANCH  27  28
BRANCH  27  36
HETATM   36  N   UNK A   1      -9.062  15.208  68.414  1.00  0.00    -0.179 N  
HETATM   37  H   UNK A   1      -8.363  15.042  69.138  1.00  0.00     0.000 HD 
HETATM   38  O   UNK A   1      -9.788  16.664  66.801  1.00  0.00    -0.252 OA 
HETATM   39  C   UNK A   1      -9.079  16.424  67.772  1.00  0.00    -0.199 C  
BRANCH  39  40
HETATM   40  C   UNK A   1      -8.056  17.447  68.243  1.00  0.00    -0.249 C  
BRANCH  40  41
HETATM   41  C   UNK A   1      -7.741  18.607  67.279  1.00  0.00    -0.238 C  
BRANCH  41  42
HETATM   42  C   UNK A   1      -6.793  18.320  66.105  1.00  0.00    -0.256 C  
HETATM   43  N   UNK A   1      -5.543  17.643  66.541  1.00  0.00    -0.174 NA 
HETATM   44  C   UNK A   1      -6.391  19.624  65.441  1.00  0.00    -0.249 C  
HETATM   45  O   UNK A   1      -7.024  20.300  64.651  1.00  0.00    -0.249 OA 
HETATM   46  O   UNK A   1      -5.185  20.007  65.920  1.00  0.00    -0.161 OA 
HETATM   47  H2  UNK A   1      -5.749  16.792  67.065  1.00  0.00     0.000 HD 
HETATM   48  H1  UNK A   1      -4.914  17.452  65.762  1.00  0.00     0.000 HD 
ENDBRANCH  41  42
ENDBRANCH  40  41
ENDBRANCH  39  40
ENDBRANCH  27  36
ENDBRANCH  26  27
ENDBRANCH  25  26
ENDBRANCH  24  25
ENDBRANCH  23  24
ENDBRANCH  14  23
ENDBRANCH  11  14
ENDBRANCH   9  10
ENDBRANCH   8   9
ENDBRANCH   4   8
TORSDOF 17
ENDMDL
MODEL      261
REMARK 921   NORMALIZED FREE ENERGY PREDICTED BY IDOCK:   -3.18 KCAL/MOL
REMARK 922        TOTAL FREE ENERGY PREDICTED BY IDOCK:   -9.31 KCAL/MOL
REMARK 923 INTER-LIGAND FREE ENERGY PREDICTED BY IDOCK:   -8.32 KCAL/MOL
REMARK 924 INTRA-LIGAND FREE ENERGY PREDICTED BY IDOCK:   -1.00 KCAL/MOL
REMARK 927      BINDING AFFINITY PREDICTED BY RF-SCORE:    0.00 PKD
ROOT
HETATM    1  N   UNK A   1     -11.122   7.797  67.823  1.00  0.00    -0.471 NA 
HETATM    2  H1  UNK A   1     -12.062   7.783  68.220  1.00  0.00     0.000 HD 
HETATM    3  H2  UNK A   1     -11.097   8.367  66.977  1.00  0.00     0.000 HD 
HETATM    4  C   UNK A   1     -10.566   6.442  67.562  1.00  0.00    -0.283 C  
HETATM    5  O   UNK A   1      -9.948   4.648  69.122  1.00  0.00    -0.189 OA 
HETATM    6  C   UNK A   1     -10.640   5.619  68.860  1.00  0.00    -0.233 C  
HETATM    7  O   UNK A   1     -11.589   6.114  69.695  1.00  0.00    -0.407 OA 
ENDROOT
BRANCH   4   8
HETATM    8  C   UNK A   1      -9.157   6.464  66.967  1.00  0.00    -0.130 C  
BRANCH   8   9
HETATM    9  C   UNK A   1      -8.035   6.119  67.948  1.00  0.00    -0.110 C  
BRANCH   9  10
HETATM   10  C   UNK A   1      -7.615   7.359  68.702  1.00  0.00    -0.110 C  
HETATM   11  N   UNK A   1      -6.324   7.320  69.187  1.00  0.00    -0.035 N  
HETATM   12  O   UNK A   1      -8.379   8.299  68.898  1.00  0.00    -0.124 OA 
HETATM   13  H   UNK A   1      -5.748   6.491  69.046  1.00  0.00     0.000 HD 
BRANCH  11  14
HETATM   14  C   UNK A   1      -5.785   8.481  69.907  1.00  0.00    -0.028 C  
BRANCH  14  15
HETATM   15  C   UNK A   1      -6.781   8.883  71.014  1.00  0.00    -0.077 C  
ATOM     16  H   GLY A   2      -6.431   7.079  71.965  1.00  0.00     0.000 HD 
ATOM     17  N   GLY A   2      -6.936   7.962  72.027  1.00  0.00    -0.063 N  
HETATM   18  O   UNK A   1      -7.406   9.931  70.989  1.00  0.00    -0.312 OA 
BRANCH  17  19
ATOM     19  CA  GLY A   2      -7.788   8.197  73.180  1.00  0.00    -0.159 C  
ATOM     20  C   GLY A   2      -9.122   7.470  73.141  1.00  0.00    -0.177 C  
ATOM     21  O   GLY A   2      -9.591   7.185  71.889  1.00  0.00    -0.151 OA 
ATOM     22  OXT GLY A   2      -9.780   7.206  74.136  1.00  0.00    -0.274 OA 
ENDBRANCH  17  19
ENDBRANCH  14  15
BRANCH  14  23
HETATM   23  C   UNK A   1      -5.521   9.647  68.938  1.00  0.00    -0.036 C  
BRANCH  23  24
HETATM   24  S   UNK A   1      -5.742   9.280  67.169  1.00  0.00    -0.045 SA 
BRANCH  24  25
HETATM   25  S   UNK A   1      -5.951  11.156  66.368  1.00  0.00    -0.127 SA 
BRANCH  25  26
HETATM   26  C   UNK A   1      -7.670  11.580  66.822  1.00  0.00    -0.136 C  
BRANCH  26  27
HETATM   27  C   UNK A   1      -7.850  12.192  68.224  1.00  0.00    -0.153 C  
BRANCH  27  28
HETATM   28  C   UNK A   1      -7.075  13.538  68.339  1.00  0.00    -0.107 C  
ATOM     29  H   GLY A   2      -7.733  14.158  66.456  1.00  0.00     0.000 HD 
ATOM     30  N   GLY A   2      -7.212  14.426  67.292  1.00  0.00    -0.111 N  
HETATM   31  O   UNK A   1      -6.469  13.866  69.358  1.00  0.00    -0.110 OA 
BRANCH  30  32
ATOM     32  CA  GLY A   2      -6.608  15.749  67.388  1.00  0.00    -0.180 C  
ATOM     33  OXT GLY A   2      -6.805  17.954  66.355  1.00  0.00    -0.196 OA 
ATOM     34  C   GLY A   2      -7.353  16.934  66.757  1.00  0.00    -0.237 C  
ATOM     35  O   GLY A   2      -8.693  16.872  66.866  1.00  0.00    -0.203 OA 
ENDBRANCH  30  32
ENDBRANCH  27  28
BRANCH  27  36
HETATM   36  N   UNK A   1      -9.229  12.127  68.757  1.00  0.00    -0.398 N  
HETATM   37  H   UNK A   1      -9.384  11.711  69.675  1.00  0.00     0.000 HD 
HETATM   38  O   UNK A   1     -10.205  13.243  67.011  1.00  0.00    -0.240 OA 
HETATM   39  C   UNK A   1     -10.309  12.607  68.054  1.00  0.00    -0.228 C  
BRANCH  39  40
HETATM   40  C   UNK A   1     -11.670  12.432  68.710  1.00  0.00    -0.379 C  
BRANCH  40  41
HETATM   41  C   UNK A   1     -12.027  11.016  69.202  1.00  0.00    -0.394 C  
BRANCH  41  42
HETATM   42  C   UNK A   1     -11.475  10.576  70.565  1.00  0.00    -0.345 C  
HETATM   43  N   UNK A   1     -10.453   9.503  70.442  1.00  0.00    -0.256 NA 
HETATM   44  C   UNK A   1     -12.602  10.028  71.421  1.00  0.00    -0.415 C  
HETATM   45  O   UNK A   1     -13.440  10.641  72.057  1.00  0.00    -0.375 OA 
HETATM   46  O   UNK A   1     -12.605   8.679  71.332  1.00  0.00    -0.312 OA 
HETATM   47  H2  UNK A   1      -9.700   9.782  69.813  1.00  0.00     0.000 HD 
HETATM   48  H1  UNK A   1     -10.087   9.210  71.348  1.00  0.00     0.000 HD 
ENDBRANCH  41  42
ENDBRANCH  40  41
ENDBRANCH  39  40
ENDBRANCH  27  36
ENDBRANCH  26  27
ENDBRANCH  25  26
ENDBRANCH  24  25
ENDBRANCH  23  24
ENDBRANCH  14  23
ENDBRANCH  11  14
ENDBRANCH   9  10
ENDBRANCH   8   9
ENDBRANCH   4   8
TORSDOF 17
ENDMDL
MODEL      262
REMARK 921   NORMALIZED FREE ENERGY PREDICTED BY IDOCK:   -3.16 KCAL/MOL
REMARK 922        TOTAL FREE ENERGY PREDICTED BY IDOCK:   -9.27 KCAL/MOL
REMARK 923 INTER-LIGAND FREE ENERGY PREDICTED BY IDOCK:  -10.03 KCAL/MOL
REMARK 924 INTRA-LIGAND FREE ENERGY PREDICTED BY IDOCK:    0.77 KCAL/MOL
REMARK 927      BINDING AFFINITY PREDICTED BY RF-SCORE:    0.00 PKD
ROOT
HETATM    1  N   UNK A   1      -8.983   7.505  66.645  1.00  0.00    -0.146 NA 
HETATM    2  H1  UNK A   1      -9.466   7.150  65.820  1.00  0.00     0.000 HD 
HETATM    3  H2  UNK A   1      -8.012   7.727  66.427  1.00  0.00     0.000 HD 
HETATM    4  C   UNK A   1      -9.065   6.596  67.820  1.00  0.00    -0.113 C  
HETATM    5  O   UNK A   1     -10.999   5.910  69.169  1.00  0.00    -0.333 OA 
HETATM    6  C   UNK A   1     -10.545   6.281  68.099  1.00  0.00    -0.257 C  
HETATM    7  O   UNK A   1     -11.299   6.468  66.986  1.00  0.00    -0.342 OA 
ENDROOT
BRANCH   4   8
HETATM    8  C   UNK A   1      -8.341   7.130  69.058  1.00  0.00    -0.126 C  
BRANCH   8   9
HETATM    9  C   UNK A   1      -9.244   7.801  70.095  1.00  0.00    -0.153 C  
BRANCH   9  10
HETATM   10  C   UNK A   1      -9.542   9.221  69.673  1.00  0.00    -0.183 C  
HETATM   11  N   UNK A   1      -8.852   9.639  68.554  1.00  0.00    -0.123 N  
HETATM   12  O   UNK A   1     -10.305   9.947  70.304  1.00  0.00    -0.265 OA 
HETATM   13  H   UNK A   1      -8.186   9.016  68.100  1.00  0.00     0.000 HD 
BRANCH  11  14
HETATM   14  C   UNK A   1      -9.083  10.989  68.022  1.00  0.00    -0.152 C  
BRANCH  14  15
HETATM   15  C   UNK A   1     -10.222  10.923  66.985  1.00  0.00    -0.214 C  
ATOM     16  H   GLY A   2      -9.511  12.660  66.113  1.00  0.00     0.000 HD 
ATOM     17  N   GLY A   2     -10.219  11.929  66.044  1.00  0.00    -0.222 N  
HETATM   18  O   UNK A   1     -11.081  10.055  67.004  1.00  0.00    -0.139 OA 
BRANCH  17  19
ATOM     19  CA  GLY A   2     -11.182  11.994  64.959  1.00  0.00    -0.320 C  
ATOM     20  C   GLY A   2     -12.094  13.209  64.992  1.00  0.00    -0.415 C  
ATOM     21  O   GLY A   2     -12.305  13.744  66.232  1.00  0.00    -0.444 OA 
ATOM     22  OXT GLY A   2     -12.664  13.657  64.008  1.00  0.00    -0.666 OA 
ENDBRANCH  17  19
ENDBRANCH  14  15
BRANCH  14  23
HETATM   23  C   UNK A   1      -7.793  11.558  67.406  1.00  0.00    -0.143 C  
BRANCH  23  24
HETATM   24  S   UNK A   1      -7.265  13.187  68.024  1.00  0.00    -0.145 SA 
BRANCH  24  25
HETATM   25  S   UNK A   1      -9.054  14.166  68.227  1.00  0.00    -0.191 SA 
BRANCH  25  26
HETATM   26  C   UNK A   1      -8.890  15.527  67.017  1.00  0.00    -0.230 C  
BRANCH  26  27
HETATM   27  C   UNK A   1      -8.906  16.946  67.615  1.00  0.00    -0.214 C  
BRANCH  27  28
HETATM   28  C   UNK A   1     -10.062  17.093  68.649  1.00  0.00    -0.329 C  
ATOM     29  H   GLY A   2     -10.387  15.030  68.684  1.00  0.00     0.000 HD 
ATOM     30  N   GLY A   2     -10.653  15.927  69.091  1.00  0.00    -0.228 N  
HETATM   31  O   UNK A   1     -10.362  18.173  69.155  1.00  0.00    -0.296 OA 
BRANCH  30  32
ATOM     32  CA  GLY A   2     -11.660  15.986  70.143  1.00  0.00    -0.317 C  
ATOM     33  OXT GLY A   2     -13.674  14.797  70.847  1.00  0.00    -0.322 OA 
ATOM     34  C   GLY A   2     -12.547  14.754  70.368  1.00  0.00    -0.346 C  
ATOM     35  O   GLY A   2     -11.918  13.575  70.199  1.00  0.00    -0.319 OA 
ENDBRANCH  30  32
ENDBRANCH  27  28
BRANCH  27  36
HETATM   36  N   UNK A   1      -7.574  17.485  67.967  1.00  0.00    -0.213 N  
HETATM   37  H   UNK A   1      -7.218  18.294  67.457  1.00  0.00     0.000 HD 
HETATM   38  O   UNK A   1      -7.197  16.051  69.714  1.00  0.00    -0.140 OA 
HETATM   39  C   UNK A   1      -6.799  16.932  68.959  1.00  0.00    -0.224 C  
BRANCH  39  40
HETATM   40  C   UNK A   1      -5.434  17.566  69.180  1.00  0.00    -0.177 C  
BRANCH  40  41
HETATM   41  C   UNK A   1      -5.257  18.403  70.461  1.00  0.00    -0.253 C  
BRANCH  41  42
HETATM   42  C   UNK A   1      -5.327  19.931  70.329  1.00  0.00    -0.233 C  
HETATM   43  N   UNK A   1      -6.262  20.541  71.311  1.00  0.00    -0.596 NA 
HETATM   44  C   UNK A   1      -5.822  20.304  68.944  1.00  0.00    -0.302 C  
HETATM   45  O   UNK A   1      -5.200  20.330  67.897  1.00  0.00    -0.185 OA 
HETATM   46  O   UNK A   1      -7.149  20.557  69.006  1.00  0.00    -0.018 OA 
HETATM   47  H2  UNK A   1      -6.028  20.264  72.264  1.00  0.00     0.000 HD 
HETATM   48  H1  UNK A   1      -6.309  21.556  71.224  1.00  0.00     0.000 HD 
ENDBRANCH  41  42
ENDBRANCH  40  41
ENDBRANCH  39  40
ENDBRANCH  27  36
ENDBRANCH  26  27
ENDBRANCH  25  26
ENDBRANCH  24  25
ENDBRANCH  23  24
ENDBRANCH  14  23
ENDBRANCH  11  14
ENDBRANCH   9  10
ENDBRANCH   8   9
ENDBRANCH   4   8
TORSDOF 17
ENDMDL
MODEL      263
REMARK 921   NORMALIZED FREE ENERGY PREDICTED BY IDOCK:   -3.13 KCAL/MOL
REMARK 922        TOTAL FREE ENERGY PREDICTED BY IDOCK:   -9.22 KCAL/MOL
REMARK 923 INTER-LIGAND FREE ENERGY PREDICTED BY IDOCK:   -7.53 KCAL/MOL
REMARK 924 INTRA-LIGAND FREE ENERGY PREDICTED BY IDOCK:   -1.69 KCAL/MOL
REMARK 927      BINDING AFFINITY PREDICTED BY RF-SCORE:    0.00 PKD
ROOT
HETATM    1  N   UNK A   1      -9.510   9.501  64.520  1.00  0.00    -0.431 NA 
HETATM    2  H1  UNK A   1      -9.695   9.294  63.538  1.00  0.00     0.000 HD 
HETATM    3  H2  UNK A   1     -10.116  10.253  64.850  1.00  0.00     0.000 HD 
HETATM    4  C   UNK A   1      -8.083   9.810  64.805  1.00  0.00    -0.146 C  
HETATM    5  O   UNK A   1      -6.087   8.386  64.665  1.00  0.00    -0.062 OA 
HETATM    6  C   UNK A   1      -7.212   8.657  64.277  1.00  0.00    -0.094 C  
HETATM    7  O   UNK A   1      -7.861   7.965  63.306  1.00  0.00    -0.133 OA 
ENDROOT
BRANCH   4   8
HETATM    8  C   UNK A   1      -7.807  10.120  66.278  1.00  0.00    -0.113 C  
BRANCH   8   9
HETATM    9  C   UNK A   1      -7.566  11.597  66.594  1.00  0.00    -0.050 C  
BRANCH   9  10
HETATM   10  C   UNK A   1      -8.740  12.155  67.364  1.00  0.00    -0.177 C  
HETATM   11  N   UNK A   1      -9.954  12.027  66.722  1.00  0.00    -0.199 N  
HETATM   12  O   UNK A   1      -8.608  12.711  68.450  1.00  0.00    -0.174 OA 
HETATM   13  H   UNK A   1     -10.002  11.608  65.794  1.00  0.00     0.000 HD 
BRANCH  11  14
HETATM   14  C   UNK A   1     -11.178  12.499  67.384  1.00  0.00    -0.293 C  
BRANCH  14  15
HETATM   15  C   UNK A   1     -11.421  13.968  66.984  1.00  0.00    -0.351 C  
ATOM     16  H   GLY A   2     -10.170  14.579  68.515  1.00  0.00     0.000 HD 
ATOM     17  N   GLY A   2     -10.742  14.902  67.735  1.00  0.00    -0.266 N  
HETATM   18  O   UNK A   1     -12.177  14.288  66.080  1.00  0.00    -0.421 OA 
BRANCH  17  19
ATOM     19  CA  GLY A   2     -10.806  16.327  67.464  1.00  0.00    -0.268 C  
ATOM     20  C   GLY A   2      -9.939  16.791  66.304  1.00  0.00    -0.320 C  
ATOM     21  O   GLY A   2      -8.844  16.014  66.052  1.00  0.00    -0.333 OA 
ATOM     22  OXT GLY A   2     -10.145  17.816  65.671  1.00  0.00    -0.570 OA 
ENDBRANCH  17  19
ENDBRANCH  14  15
BRANCH  14  23
HETATM   23  C   UNK A   1     -11.064  12.343  68.911  1.00  0.00    -0.258 C  
BRANCH  23  24
HETATM   24  S   UNK A   1     -11.887  10.885  69.627  1.00  0.00    -0.359 SA 
BRANCH  24  25
HETATM   25  S   UNK A   1     -10.579   9.381  69.151  1.00  0.00    -0.199 SA 
BRANCH  25  26
HETATM   26  C   UNK A   1      -9.304   9.551  70.450  1.00  0.00    -0.257 C  
BRANCH  26  27
HETATM   27  C   UNK A   1      -8.418   8.311  70.671  1.00  0.00    -0.130 C  
BRANCH  27  28
HETATM   28  C   UNK A   1      -8.848   7.553  71.962  1.00  0.00    -0.117 C  
ATOM     29  H   GLY A   2     -10.862   7.615  71.412  1.00  0.00     0.000 HD 
ATOM     30  N   GLY A   2     -10.191   7.265  72.096  1.00  0.00    -0.188 N  
HETATM   31  O   UNK A   1      -8.034   7.111  72.771  1.00  0.00    -0.103 OA 
BRANCH  30  32
ATOM     32  CA  GLY A   2     -10.644   6.457  73.222  1.00  0.00    -0.268 C  
ATOM     33  OXT GLY A   2     -11.806   4.350  73.640  1.00  0.00    -0.117 OA 
ATOM     34  C   GLY A   2     -11.013   4.990  72.960  1.00  0.00    -0.295 C  
ATOM     35  O   GLY A   2     -10.238   4.374  72.048  1.00  0.00    -0.186 OA 
ENDBRANCH  30  32
ENDBRANCH  27  28
BRANCH  27  36
HETATM   36  N   UNK A   1      -8.141   7.521  69.451  1.00  0.00    -0.126 N  
HETATM   37  H   UNK A   1      -8.891   6.964  69.042  1.00  0.00     0.000 HD 
HETATM   38  O   UNK A   1      -5.987   8.254  69.186  1.00  0.00    -0.037 OA 
HETATM   39  C   UNK A   1      -6.904   7.513  68.849  1.00  0.00    -0.068 C  
BRANCH  39  40
HETATM   40  C   UNK A   1      -6.757   6.620  67.627  1.00  0.00    -0.070 C  
BRANCH  40  41
HETATM   41  C   UNK A   1      -7.554   5.302  67.629  1.00  0.00    -0.088 C  
BRANCH  41  42
HETATM   42  C   UNK A   1      -6.928   4.092  68.337  1.00  0.00    -0.051 C  
HETATM   43  N   UNK A   1      -7.122   2.829  67.576  1.00  0.00    -0.052 NA 
HETATM   44  C   UNK A   1      -7.576   3.902  69.696  1.00  0.00    -0.052 C  
HETATM   45  O   UNK A   1      -7.361   4.507  70.731  1.00  0.00    -0.049 OA 
HETATM   46  O   UNK A   1      -8.538   2.957  69.596  1.00  0.00    -0.058 OA 
HETATM   47  H2  UNK A   1      -6.773   2.918  66.622  1.00  0.00     0.000 HD 
HETATM   48  H1  UNK A   1      -6.706   2.026  68.046  1.00  0.00     0.000 HD 
ENDBRANCH  41  42
ENDBRANCH  40  41
ENDBRANCH  39  40
ENDBRANCH  27  36
ENDBRANCH  26  27
ENDBRANCH  25  26
ENDBRANCH  24  25
ENDBRANCH  23  24
ENDBRANCH  14  23
ENDBRANCH  11  14
ENDBRANCH   9  10
ENDBRANCH   8   9
ENDBRANCH   4   8
TORSDOF 17
ENDMDL
MODEL      264
REMARK 921   NORMALIZED FREE ENERGY PREDICTED BY IDOCK:   -3.13 KCAL/MOL
REMARK 922        TOTAL FREE ENERGY PREDICTED BY IDOCK:   -9.22 KCAL/MOL
REMARK 923 INTER-LIGAND FREE ENERGY PREDICTED BY IDOCK:   -7.60 KCAL/MOL
REMARK 924 INTRA-LIGAND FREE ENERGY PREDICTED BY IDOCK:   -1.62 KCAL/MOL
REMARK 927      BINDING AFFINITY PREDICTED BY RF-SCORE:    0.00 PKD
ROOT
HETATM    1  N   UNK A   1      -7.989   5.988  68.077  1.00  0.00    -0.108 NA 
HETATM    2  H1  UNK A   1      -7.224   5.843  67.419  1.00  0.00     0.000 HD 
HETATM    3  H2  UNK A   1      -7.762   6.734  68.735  1.00  0.00     0.000 HD 
HETATM    4  C   UNK A   1      -8.395   4.753  68.800  1.00  0.00    -0.082 C  
HETATM    5  O   UNK A   1      -9.422   2.684  67.965  1.00  0.00    -0.211 OA 
HETATM    6  C   UNK A   1      -8.712   3.657  67.768  1.00  0.00    -0.106 C  
HETATM    7  O   UNK A   1      -8.090   3.908  66.588  1.00  0.00    -0.096 OA 
ENDROOT
BRANCH   4   8
HETATM    8  C   UNK A   1      -9.544   4.972  69.787  1.00  0.00    -0.240 C  
BRANCH   8   9
HETATM    9  C   UNK A   1     -10.792   5.626  69.192  1.00  0.00    -0.281 C  
BRANCH   9  10
HETATM   10  C   UNK A   1     -10.471   7.034  68.750  1.00  0.00    -0.206 C  
HETATM   11  N   UNK A   1      -9.733   7.762  69.659  1.00  0.00    -0.171 N  
HETATM   12  O   UNK A   1     -10.874   7.497  67.686  1.00  0.00    -0.208 OA 
HETATM   13  H   UNK A   1      -9.471   7.350  70.554  1.00  0.00     0.000 HD 
BRANCH  11  14
HETATM   14  C   UNK A   1      -9.326   9.135  69.330  1.00  0.00    -0.160 C  
BRANCH  14  15
HETATM   15  C   UNK A   1      -7.826   9.133  68.969  1.00  0.00    -0.090 C  
ATOM     16  H   GLY A   2      -8.319   8.873  66.976  1.00  0.00     0.000 HD 
ATOM     17  N   GLY A   2      -7.545   9.001  67.627  1.00  0.00    -0.092 N  
HETATM   18  O   UNK A   1      -6.946   9.221  69.811  1.00  0.00    -0.051 OA 
BRANCH  17  19
ATOM     19  CA  GLY A   2      -6.192   9.037  67.100  1.00  0.00    -0.059 C  
ATOM     20  C   GLY A   2      -6.043   8.467  65.699  1.00  0.00    -0.048 C  
ATOM     21  O   GLY A   2      -6.973   7.528  65.351  1.00  0.00    -0.057 OA 
ATOM     22  OXT GLY A   2      -5.129   8.758  64.942  1.00  0.00    -0.037 OA 
ENDBRANCH  17  19
ENDBRANCH  14  15
BRANCH  14  23
HETATM   23  C   UNK A   1      -9.620  10.085  70.504  1.00  0.00     0.193 C  
BRANCH  23  24
HETATM   24  S   UNK A   1     -11.270   9.932  71.259  1.00  0.00    -0.183 SA 
BRANCH  24  25
HETATM   25  S   UNK A   1     -12.347  11.329  70.214  1.00  0.00    -0.286 SA 
BRANCH  25  26
HETATM   26  C   UNK A   1     -11.098  12.625  69.901  1.00  0.00     0.324 C  
BRANCH  26  27
HETATM   27  C   UNK A   1     -11.554  13.771  68.977  1.00  0.00    -0.313 C  
BRANCH  27  28
HETATM   28  C   UNK A   1     -11.885  15.047  69.807  1.00  0.00    -0.321 C  
ATOM     29  H   GLY A   2     -13.088  13.962  71.126  1.00  0.00     0.000 HD 
ATOM     30  N   GLY A   2     -12.680  14.874  70.923  1.00  0.00    -0.336 N  
HETATM   31  O   UNK A   1     -11.371  16.139  69.573  1.00  0.00    -0.328 OA 
BRANCH  30  32
ATOM     32  CA  GLY A   2     -12.932  16.005  71.807  1.00  0.00    -0.159 C  
ATOM     33  OXT GLY A   2     -13.392  16.444  74.165  1.00  0.00    -0.506 OA 
ATOM     34  C   GLY A   2     -12.796  15.786  73.321  1.00  0.00    -0.542 C  
ATOM     35  O   GLY A   2     -11.803  14.949  73.676  1.00  0.00    -0.318 OA 
ENDBRANCH  30  32
ENDBRANCH  27  28
BRANCH  27  36
HETATM   36  N   UNK A   1     -10.757  13.923  67.740  1.00  0.00    -0.244 N  
HETATM   37  H   UNK A   1      -9.747  13.792  67.784  1.00  0.00     0.000 HD 
HETATM   38  O   UNK A   1     -12.548  14.276  66.355  1.00  0.00    -0.396 OA 
HETATM   39  C   UNK A   1     -11.335  14.237  66.532  1.00  0.00    -0.346 C  
BRANCH  39  40
HETATM   40  C   UNK A   1     -10.385  14.403  65.355  1.00  0.00    -0.400 C  
BRANCH  40  41
HETATM   41  C   UNK A   1      -9.920  13.114  64.651  1.00  0.00    -0.145 C  
BRANCH  41  42
HETATM   42  C   UNK A   1      -9.561  11.910  65.533  1.00  0.00    -0.182 C  
HETATM   43  N   UNK A   1      -8.524  12.242  66.547  1.00  0.00    -0.393 NA 
HETATM   44  C   UNK A   1      -9.006  10.791  64.672  1.00  0.00    -0.175 C  
HETATM   45  O   UNK A   1      -9.613   9.992  63.981  1.00  0.00    -0.285 OA 
HETATM   46  O   UNK A   1      -7.655  10.833  64.713  1.00  0.00     0.047 OA 
HETATM   47  H2  UNK A   1      -8.806  13.042  67.113  1.00  0.00     0.000 HD 
HETATM   48  H1  UNK A   1      -8.285  11.442  67.133  1.00  0.00     0.000 HD 
ENDBRANCH  41  42
ENDBRANCH  40  41
ENDBRANCH  39  40
ENDBRANCH  27  36
ENDBRANCH  26  27
ENDBRANCH  25  26
ENDBRANCH  24  25
ENDBRANCH  23  24
ENDBRANCH  14  23
ENDBRANCH  11  14
ENDBRANCH   9  10
ENDBRANCH   8   9
ENDBRANCH   4   8
TORSDOF 17
ENDMDL
MODEL      265
REMARK 921   NORMALIZED FREE ENERGY PREDICTED BY IDOCK:   -3.11 KCAL/MOL
REMARK 922        TOTAL FREE ENERGY PREDICTED BY IDOCK:   -9.18 KCAL/MOL
REMARK 923 INTER-LIGAND FREE ENERGY PREDICTED BY IDOCK:   -8.37 KCAL/MOL
REMARK 924 INTRA-LIGAND FREE ENERGY PREDICTED BY IDOCK:   -0.81 KCAL/MOL
REMARK 927      BINDING AFFINITY PREDICTED BY RF-SCORE:    0.00 PKD
ROOT
HETATM    1  N   UNK A   1     -10.948   9.373  71.453  1.00  0.00    -0.361 NA 
HETATM    2  H1  UNK A   1     -11.802   9.545  71.982  1.00  0.00     0.000 HD 
HETATM    3  H2  UNK A   1     -10.789  10.117  70.772  1.00  0.00     0.000 HD 
HETATM    4  C   UNK A   1     -10.913   8.040  70.794  1.00  0.00    -0.248 C  
HETATM    5  O   UNK A   1     -10.838   5.786  71.766  1.00  0.00    -0.241 OA 
HETATM    6  C   UNK A   1     -11.170   6.957  71.856  1.00  0.00    -0.254 C  
HETATM    7  O   UNK A   1     -11.827   7.473  72.926  1.00  0.00    -0.186 OA 
ENDROOT
BRANCH   4   8
HETATM    8  C   UNK A   1      -9.631   7.783  70.000  1.00  0.00    -0.161 C  
BRANCH   8   9
HETATM    9  C   UNK A   1      -8.343   8.240  70.687  1.00  0.00    -0.121 C  
BRANCH   9  10
HETATM   10  C   UNK A   1      -7.785   9.452  69.977  1.00  0.00    -0.123 C  
HETATM   11  N   UNK A   1      -6.429   9.395  69.733  1.00  0.00    -0.039 N  
HETATM   12  O   UNK A   1      -8.481  10.419  69.684  1.00  0.00    -0.145 OA 
HETATM   13  H   UNK A   1      -5.885   8.593  70.049  1.00  0.00     0.000 HD 
BRANCH  11  14
HETATM   14  C   UNK A   1      -5.774  10.497  69.016  1.00  0.00    -0.040 C  
BRANCH  14  15
HETATM   15  C   UNK A   1      -5.987  11.800  69.812  1.00  0.00    -0.126 C  
ATOM     16  H   GLY A   2      -6.488  12.775  68.057  1.00  0.00     0.000 HD 
ATOM     17  N   GLY A   2      -6.395  12.884  69.067  1.00  0.00    -0.093 N  
HETATM   18  O   UNK A   1      -5.789  11.877  71.015  1.00  0.00    -0.373 OA 
BRANCH  17  19
ATOM     19  CA  GLY A   2      -6.699  14.175  69.658  1.00  0.00    -0.092 C  
ATOM     20  C   GLY A   2      -6.782  15.323  68.665  1.00  0.00    -0.101 C  
ATOM     21  O   GLY A   2      -6.046  15.160  67.526  1.00  0.00    -0.280 OA 
ATOM     22  OXT GLY A   2      -7.399  16.358  68.873  1.00  0.00    -0.187 OA 
ENDBRANCH  17  19
ENDBRANCH  14  15
BRANCH  14  23
HETATM   23  C   UNK A   1      -6.324  10.616  67.584  1.00  0.00    -0.056 C  
BRANCH  23  24
HETATM   24  S   UNK A   1      -6.973   9.083  66.847  1.00  0.00    -0.078 SA 
BRANCH  24  25
HETATM   25  S   UNK A   1      -5.496   8.593  65.513  1.00  0.00    -0.035 SA 
BRANCH  25  26
HETATM   26  C   UNK A   1      -6.245   9.070  63.915  1.00  0.00    -0.087 C  
BRANCH  26  27
HETATM   27  C   UNK A   1      -7.593   8.398  63.593  1.00  0.00    -0.132 C  
BRANCH  27  28
HETATM   28  C   UNK A   1      -7.502   6.857  63.802  1.00  0.00    -0.091 C  
ATOM     29  H   GLY A   2      -8.995   6.897  65.263  1.00  0.00     0.000 HD 
ATOM     30  N   GLY A   2      -8.382   6.299  64.708  1.00  0.00    -0.099 N  
HETATM   31  O   UNK A   1      -6.779   6.138  63.114  1.00  0.00    -0.038 OA 
BRANCH  30  32
ATOM     32  CA  GLY A   2      -8.429   4.851  64.866  1.00  0.00    -0.144 C  
ATOM     33  OXT GLY A   2      -9.991   3.003  64.532  1.00  0.00    -0.138 OA 
ATOM     34  C   GLY A   2      -9.548   4.080  64.152  1.00  0.00    -0.163 C  
ATOM     35  O   GLY A   2      -9.876   4.567  62.940  1.00  0.00    -0.063 OA 
ENDBRANCH  30  32
ENDBRANCH  27  28
BRANCH  27  36
HETATM   36  N   UNK A   1      -8.781   9.109  64.113  1.00  0.00    -0.345 N  
HETATM   37  H   UNK A   1      -9.299   8.701  64.890  1.00  0.00     0.000 HD 
HETATM   38  O   UNK A   1      -8.574  10.936  62.745  1.00  0.00    -0.212 OA 
HETATM   39  C   UNK A   1      -9.209  10.304  63.583  1.00  0.00    -0.280 C  
BRANCH  39  40
HETATM   40  C   UNK A   1     -10.470  10.897  64.192  1.00  0.00    -0.397 C  
BRANCH  40  41
HETATM   41  C   UNK A   1     -10.817  12.345  63.798  1.00  0.00    -0.500 C  
BRANCH  41  42
HETATM   42  C   UNK A   1     -10.867  13.396  64.916  1.00  0.00    -0.352 C  
HETATM   43  N   UNK A   1     -10.918  12.779  66.269  1.00  0.00    -0.274 NA 
HETATM   44  C   UNK A   1     -12.112  14.249  64.763  1.00  0.00    -0.446 C  
HETATM   45  O   UNK A   1     -12.306  15.179  64.001  1.00  0.00    -0.675 OA 
HETATM   46  O   UNK A   1     -13.074  13.774  65.587  1.00  0.00    -0.591 OA 
HETATM   47  H2  UNK A   1     -10.144  12.130  66.407  1.00  0.00     0.000 HD 
HETATM   48  H1  UNK A   1     -10.951  13.477  67.012  1.00  0.00     0.000 HD 
ENDBRANCH  41  42
ENDBRANCH  40  41
ENDBRANCH  39  40
ENDBRANCH  27  36
ENDBRANCH  26  27
ENDBRANCH  25  26
ENDBRANCH  24  25
ENDBRANCH  23  24
ENDBRANCH  14  23
ENDBRANCH  11  14
ENDBRANCH   9  10
ENDBRANCH   8   9
ENDBRANCH   4   8
TORSDOF 17
ENDMDL
MODEL      266
REMARK 921   NORMALIZED FREE ENERGY PREDICTED BY IDOCK:   -3.11 KCAL/MOL
REMARK 922        TOTAL FREE ENERGY PREDICTED BY IDOCK:   -9.16 KCAL/MOL
REMARK 923 INTER-LIGAND FREE ENERGY PREDICTED BY IDOCK:   -7.19 KCAL/MOL
REMARK 924 INTRA-LIGAND FREE ENERGY PREDICTED BY IDOCK:   -1.97 KCAL/MOL
REMARK 927      BINDING AFFINITY PREDICTED BY RF-SCORE:    0.00 PKD
ROOT
HETATM    1  N   UNK A   1     -10.664  14.768  67.449  1.00  0.00    -0.275 NA 
HETATM    2  H1  UNK A   1     -10.225  15.336  66.724  1.00  0.00     0.000 HD 
HETATM    3  H2  UNK A   1     -10.059  14.698  68.267  1.00  0.00     0.000 HD 
HETATM    4  C   UNK A   1     -11.076  13.418  66.980  1.00  0.00    -0.292 C  
HETATM    5  O   UNK A   1     -12.780  12.753  65.340  1.00  0.00    -0.621 OA 
HETATM    6  C   UNK A   1     -11.972  13.577  65.739  1.00  0.00    -0.403 C  
HETATM    7  O   UNK A   1     -11.750  14.769  65.130  1.00  0.00    -0.358 OA 
ENDROOT
BRANCH   4   8
HETATM    8  C   UNK A   1     -11.735  12.567  68.068  1.00  0.00    -0.410 C  
BRANCH   8   9
HETATM    9  C   UNK A   1     -11.414  11.073  68.003  1.00  0.00    -0.365 C  
BRANCH   9  10
HETATM   10  C   UNK A   1     -11.361  10.500  69.400  1.00  0.00    -0.269 C  
HETATM   11  N   UNK A   1     -10.612   9.348  69.515  1.00  0.00    -0.217 N  
HETATM   12  O   UNK A   1     -11.972  11.002  70.340  1.00  0.00    -0.310 OA 
HETATM   13  H   UNK A   1     -10.171   8.938  68.692  1.00  0.00     0.000 HD 
BRANCH  11  14
HETATM   14  C   UNK A   1     -10.454   8.714  70.831  1.00  0.00    -0.214 C  
BRANCH  14  15
HETATM   15  C   UNK A   1      -8.970   8.795  71.244  1.00  0.00    -0.231 C  
ATOM     16  H   GLY A   2      -8.570   9.902  69.542  1.00  0.00     0.000 HD 
ATOM     17  N   GLY A   2      -8.162   9.514  70.391  1.00  0.00    -0.186 N  
HETATM   18  O   UNK A   1      -8.534   8.246  72.243  1.00  0.00    -0.157 OA 
BRANCH  17  19
ATOM     19  CA  GLY A   2      -6.751   9.744  70.652  1.00  0.00    -0.110 C  
ATOM     20  C   GLY A   2      -6.216  11.064  70.122  1.00  0.00    -0.146 C  
ATOM     21  O   GLY A   2      -6.886  11.571  69.044  1.00  0.00    -0.090 OA 
ATOM     22  OXT GLY A   2      -5.220  11.619  70.564  1.00  0.00    -0.092 OA 
ENDBRANCH  17  19
ENDBRANCH  14  15
BRANCH  14  23
HETATM   23  C   UNK A   1     -10.949   7.257  70.795  1.00  0.00    -0.251 C  
BRANCH  23  24
HETATM   24  S   UNK A   1      -9.847   6.060  69.978  1.00  0.00    -0.179 SA 
BRANCH  24  25
HETATM   25  S   UNK A   1     -10.878   5.638  68.257  1.00  0.00     0.053 SA 
BRANCH  25  26
HETATM   26  C   UNK A   1     -10.664   7.176  67.292  1.00  0.00    -0.329 C  
BRANCH  26  27
HETATM   27  C   UNK A   1      -9.553   7.137  66.227  1.00  0.00    -0.034 C  
BRANCH  27  28
HETATM   28  C   UNK A   1      -8.711   8.447  66.263  1.00  0.00    -0.142 C  
ATOM     29  H   GLY A   2      -8.458   8.424  64.189  1.00  0.00     0.000 HD 
ATOM     30  N   GLY A   2      -8.288   8.948  65.048  1.00  0.00    -0.156 N  
HETATM   31  O   UNK A   1      -8.529   9.087  67.297  1.00  0.00    -0.114 OA 
BRANCH  30  32
ATOM     32  CA  GLY A   2      -7.596  10.230  65.001  1.00  0.00    -0.124 C  
ATOM     33  OXT GLY A   2      -5.335  11.124  65.232  1.00  0.00    -0.216 OA 
ATOM     34  C   GLY A   2      -6.070  10.226  64.839  1.00  0.00    -0.128 C  
ATOM     35  O   GLY A   2      -5.597   9.254  64.035  1.00  0.00    -0.067 OA 
ENDBRANCH  30  32
ENDBRANCH  27  28
BRANCH  27  36
HETATM   36  N   UNK A   1      -8.839   5.845  66.122  1.00  0.00    -0.143 N  
HETATM   37  H   UNK A   1      -9.165   5.155  65.445  1.00  0.00     0.000 HD 
HETATM   38  O   UNK A   1      -7.207   6.357  67.646  1.00  0.00    -0.081 OA 
HETATM   39  C   UNK A   1      -7.752   5.543  66.908  1.00  0.00    -0.100 C  
BRANCH  39  40
HETATM   40  C   UNK A   1      -7.148   4.160  66.719  1.00  0.00    -0.064 C  
BRANCH  40  41
HETATM   41  C   UNK A   1      -6.419   3.897  65.387  1.00  0.00    -0.032 C  
BRANCH  41  42
HETATM   42  C   UNK A   1      -7.080   2.930  64.393  1.00  0.00    -0.049 C  
HETATM   43  N   UNK A   1      -6.122   2.430  63.370  1.00  0.00    -0.010 NA 
HETATM   44  C   UNK A   1      -8.198   3.641  63.653  1.00  0.00    -0.089 C  
HETATM   45  O   UNK A   1      -9.329   3.881  64.036  1.00  0.00    -0.135 OA 
HETATM   46  O   UNK A   1      -7.732   4.066  62.457  1.00  0.00    -0.058 OA 
HETATM   47  H2  UNK A   1      -5.305   2.006  63.808  1.00  0.00     0.000 HD 
HETATM   48  H1  UNK A   1      -6.561   1.789  62.710  1.00  0.00     0.000 HD 
ENDBRANCH  41  42
ENDBRANCH  40  41
ENDBRANCH  39  40
ENDBRANCH  27  36
ENDBRANCH  26  27
ENDBRANCH  25  26
ENDBRANCH  24  25
ENDBRANCH  23  24
ENDBRANCH  14  23
ENDBRANCH  11  14
ENDBRANCH   9  10
ENDBRANCH   8   9
ENDBRANCH   4   8
TORSDOF 17
ENDMDL
MODEL      267
REMARK 921   NORMALIZED FREE ENERGY PREDICTED BY IDOCK:   -3.10 KCAL/MOL
REMARK 922        TOTAL FREE ENERGY PREDICTED BY IDOCK:   -9.15 KCAL/MOL
REMARK 923 INTER-LIGAND FREE ENERGY PREDICTED BY IDOCK:   -8.35 KCAL/MOL
REMARK 924 INTRA-LIGAND FREE ENERGY PREDICTED BY IDOCK:   -0.80 KCAL/MOL
REMARK 927      BINDING AFFINITY PREDICTED BY RF-SCORE:    0.00 PKD
ROOT
HETATM    1  N   UNK A   1      -9.382  20.050  65.124  1.00  0.00     0.114 NA 
HETATM    2  H1  UNK A   1      -8.989  20.107  64.185  1.00  0.00     0.000 HD 
HETATM    3  H2  UNK A   1     -10.334  20.416  65.139  1.00  0.00     0.000 HD 
HETATM    4  C   UNK A   1      -8.546  20.714  66.160  1.00  0.00     0.354 C  
HETATM    5  O   UNK A   1      -6.305  20.153  66.996  1.00  0.00    -0.188 OA 
HETATM    6  C   UNK A   1      -7.121  20.139  66.088  1.00  0.00    -0.276 C  
HETATM    7  O   UNK A   1      -6.874  19.606  64.864  1.00  0.00    -0.384 OA 
ENDROOT
BRANCH   4   8
HETATM    8  C   UNK A   1      -9.136  20.628  67.569  1.00  0.00    -0.353 C  
BRANCH   8   9
HETATM    9  C   UNK A   1      -9.811  19.297  67.907  1.00  0.00    -0.441 C  
BRANCH   9  10
HETATM   10  C   UNK A   1      -8.823  18.380  68.588  1.00  0.00    -0.283 C  
HETATM   11  N   UNK A   1      -9.098  17.037  68.441  1.00  0.00    -0.248 N  
HETATM   12  O   UNK A   1      -7.880  18.805  69.250  1.00  0.00    -0.138 OA 
HETATM   13  H   UNK A   1      -9.926  16.736  67.929  1.00  0.00     0.000 HD 
BRANCH  11  14
HETATM   14  C   UNK A   1      -8.189  16.042  69.027  1.00  0.00    -0.235 C  
BRANCH  14  15
HETATM   15  C   UNK A   1      -7.247  15.521  67.922  1.00  0.00    -0.141 C  
ATOM     16  H   GLY A   2      -6.331  14.283  69.304  1.00  0.00     0.000 HD 
ATOM     17  N   GLY A   2      -6.349  14.557  68.322  1.00  0.00    -0.109 N  
HETATM   18  O   UNK A   1      -7.278  15.945  66.777  1.00  0.00    -0.184 OA 
BRANCH  17  19
ATOM     19  CA  GLY A   2      -5.426  13.912  67.404  1.00  0.00     0.341 C  
ATOM     20  C   GLY A   2      -5.567  12.401  67.321  1.00  0.00    -0.099 C  
ATOM     21  O   GLY A   2      -6.073  11.803  68.441  1.00  0.00    -0.049 OA 
ATOM     22  OXT GLY A   2      -5.200  11.737  66.363  1.00  0.00    -0.302 OA 
ENDBRANCH  17  19
ENDBRANCH  14  15
BRANCH  14  23
HETATM   23  C   UNK A   1      -8.984  14.895  69.675  1.00  0.00     0.114 C  
BRANCH  23  24
HETATM   24  S   UNK A   1      -9.547  13.578  68.550  1.00  0.00    -0.093 SA 
BRANCH  24  25
HETATM   25  S   UNK A   1     -11.527  14.046  68.305  1.00  0.00    -0.325 SA 
BRANCH  25  26
HETATM   26  C   UNK A   1     -12.254  12.429  67.861  1.00  0.00     0.230 C  
BRANCH  26  27
HETATM   27  C   UNK A   1     -11.624  11.737  66.637  1.00  0.00    -0.197 C  
BRANCH  27  28
HETATM   28  C   UNK A   1     -11.296  12.778  65.526  1.00  0.00    -0.312 C  
ATOM     29  H   GLY A   2     -13.107  13.774  65.827  1.00  0.00     0.000 HD 
ATOM     30  N   GLY A   2     -12.221  13.782  65.322  1.00  0.00    -0.412 N  
HETATM   31  O   UNK A   1     -10.216  12.798  64.937  1.00  0.00    -0.295 OA 
BRANCH  30  32
ATOM     32  CA  GLY A   2     -11.922  14.853  64.380  1.00  0.00    -0.394 C  
ATOM     33  OXT GLY A   2     -11.164  17.175  64.396  1.00  0.00    -1.143 OA 
ATOM     34  C   GLY A   2     -11.102  16.051  64.879  1.00  0.00    -0.370 C  
ATOM     35  O   GLY A   2     -10.136  15.736  65.763  1.00  0.00    -0.319 OA 
ENDBRANCH  30  32
ENDBRANCH  27  28
BRANCH  27  36
HETATM   36  N   UNK A   1     -10.610  10.709  66.960  1.00  0.00    -0.254 N  
HETATM   37  H   UNK A   1      -9.883  10.501  66.276  1.00  0.00     0.000 HD 
HETATM   38  O   UNK A   1     -11.362  10.301  69.086  1.00  0.00    -0.230 OA 
HETATM   39  C   UNK A   1     -10.616  10.024  68.153  1.00  0.00    -0.227 C  
BRANCH  39  40
HETATM   40  C   UNK A   1      -9.537   8.966  68.326  1.00  0.00    -0.159 C  
BRANCH  40  41
HETATM   41  C   UNK A   1      -9.524   8.201  69.663  1.00  0.00    -0.159 C  
BRANCH  41  42
HETATM   42  C   UNK A   1     -10.592   7.118  69.874  1.00  0.00    -0.230 C  
HETATM   43  N   UNK A   1     -11.737   7.605  70.688  1.00  0.00    -0.432 NA 
HETATM   44  C   UNK A   1      -9.986   5.937  70.610  1.00  0.00    -0.189 C  
HETATM   45  O   UNK A   1      -9.291   5.041  70.166  1.00  0.00    -0.139 OA 
HETATM   46  O   UNK A   1     -10.275   6.045  71.927  1.00  0.00    -0.193 OA 
HETATM   47  H2  UNK A   1     -12.143   8.448  70.285  1.00  0.00     0.000 HD 
HETATM   48  H1  UNK A   1     -12.446   6.885  70.829  1.00  0.00     0.000 HD 
ENDBRANCH  41  42
ENDBRANCH  40  41
ENDBRANCH  39  40
ENDBRANCH  27  36
ENDBRANCH  26  27
ENDBRANCH  25  26
ENDBRANCH  24  25
ENDBRANCH  23  24
ENDBRANCH  14  23
ENDBRANCH  11  14
ENDBRANCH   9  10
ENDBRANCH   8   9
ENDBRANCH   4   8
TORSDOF 17
ENDMDL
MODEL      268
REMARK 921   NORMALIZED FREE ENERGY PREDICTED BY IDOCK:   -3.08 KCAL/MOL
REMARK 922        TOTAL FREE ENERGY PREDICTED BY IDOCK:   -9.11 KCAL/MOL
REMARK 923 INTER-LIGAND FREE ENERGY PREDICTED BY IDOCK:   -8.01 KCAL/MOL
REMARK 924 INTRA-LIGAND FREE ENERGY PREDICTED BY IDOCK:   -1.09 KCAL/MOL
REMARK 927      BINDING AFFINITY PREDICTED BY RF-SCORE:    0.00 PKD
ROOT
HETATM    1  N   UNK A   1      -8.258  10.455  67.186  1.00  0.00    -0.121 NA 
HETATM    2  H1  UNK A   1      -9.011  10.306  66.514  1.00  0.00     0.000 HD 
HETATM    3  H2  UNK A   1      -8.590  10.995  67.985  1.00  0.00     0.000 HD 
HETATM    4  C   UNK A   1      -7.047  11.083  66.592  1.00  0.00    -0.139 C  
HETATM    5  O   UNK A   1      -5.467  10.225  64.918  1.00  0.00    -0.091 OA 
HETATM    6  C   UNK A   1      -6.595  10.242  65.385  1.00  0.00    -0.122 C  
HETATM    7  O   UNK A   1      -7.625   9.509  64.892  1.00  0.00    -0.104 OA 
ENDROOT
BRANCH   4   8
HETATM    8  C   UNK A   1      -5.917  11.306  67.601  1.00  0.00    -0.051 C  
BRANCH   8   9
HETATM    9  C   UNK A   1      -5.240  12.675  67.521  1.00  0.00    -0.091 C  
BRANCH   9  10
HETATM   10  C   UNK A   1      -5.966  13.658  68.409  1.00  0.00    -0.097 C  
HETATM   11  N   UNK A   1      -6.235  14.872  67.814  1.00  0.00    -0.157 N  
HETATM   12  O   UNK A   1      -6.250  13.403  69.576  1.00  0.00    -0.104 OA 
HETATM   13  H   UNK A   1      -5.926  15.055  66.859  1.00  0.00     0.000 HD 
BRANCH  11  14
HETATM   14  C   UNK A   1      -6.969  15.901  68.563  1.00  0.00    -0.122 C  
BRANCH  14  15
HETATM   15  C   UNK A   1      -5.951  16.864  69.207  1.00  0.00    -0.190 C  
ATOM     16  H   GLY A   2      -6.621  18.380  67.969  1.00  0.00     0.000 HD 
ATOM     17  N   GLY A   2      -5.979  18.155  68.728  1.00  0.00    -0.193 N  
HETATM   18  O   UNK A   1      -5.160  16.508  70.067  1.00  0.00    -0.146 OA 
BRANCH  17  19
ATOM     19  CA  GLY A   2      -5.132  19.209  69.259  1.00  0.00    -0.186 C  
ATOM     20  C   GLY A   2      -5.846  20.525  69.521  1.00  0.00    -0.352 C  
ATOM     21  O   GLY A   2      -6.952  20.749  68.749  1.00  0.00    -0.002 OA 
ATOM     22  OXT GLY A   2      -5.447  21.369  70.310  1.00  0.00    -0.417 OA 
ENDBRANCH  17  19
ENDBRANCH  14  15
BRANCH  14  23
HETATM   23  C   UNK A   1      -7.880  15.256  69.621  1.00  0.00    -0.144 C  
BRANCH  23  24
HETATM   24  S   UNK A   1      -9.672  15.430  69.345  1.00  0.00    -0.265 SA 
BRANCH  24  25
HETATM   25  S   UNK A   1     -10.118  13.698  68.343  1.00  0.00    -0.230 SA 
BRANCH  25  26
HETATM   26  C   UNK A   1     -11.081  12.769  69.588  1.00  0.00     0.102 C  
BRANCH  26  27
HETATM   27  C   UNK A   1     -11.817  11.525  69.057  1.00  0.00    -0.343 C  
BRANCH  27  28
HETATM   28  C   UNK A   1     -11.743  11.464  67.502  1.00  0.00    -0.140 C  
ATOM     29  H   GLY A   2     -12.924  13.177  67.310  1.00  0.00     0.000 HD 
ATOM     30  N   GLY A   2     -12.373  12.479  66.810  1.00  0.00     0.119 N  
HETATM   31  O   UNK A   1     -11.058  10.637  66.905  1.00  0.00    -0.220 OA 
BRANCH  30  32
ATOM     32  CA  GLY A   2     -12.244  12.547  65.360  1.00  0.00    -0.412 C  
ATOM     33  OXT GLY A   2     -12.414  14.190  63.561  1.00  0.00    -0.817 OA 
ATOM     34  C   GLY A   2     -12.080  13.928  64.710  1.00  0.00    -0.419 C  
ATOM     35  O   GLY A   2     -11.338  14.796  65.424  1.00  0.00    -0.340 OA 
ENDBRANCH  30  32
ENDBRANCH  27  28
BRANCH  27  36
HETATM   36  N   UNK A   1     -11.568  10.283  69.822  1.00  0.00    -0.355 N  
HETATM   37  H   UNK A   1     -12.362   9.704  70.096  1.00  0.00     0.000 HD 
HETATM   38  O   UNK A   1      -9.283  10.438  69.776  1.00  0.00    -0.135 OA 
HETATM   39  C   UNK A   1     -10.301   9.884  70.177  1.00  0.00    -0.282 C  
BRANCH  39  40
HETATM   40  C   UNK A   1     -10.203   8.608  71.000  1.00  0.00    -0.278 C  
BRANCH  40  41
HETATM   41  C   UNK A   1     -10.626   7.300  70.304  1.00  0.00    -0.243 C  
BRANCH  41  42
HETATM   42  C   UNK A   1      -9.679   6.718  69.244  1.00  0.00    -0.151 C  
HETATM   43  N   UNK A   1      -8.386   7.451  69.179  1.00  0.00    -0.131 NA 
HETATM   44  C   UNK A   1     -10.322   6.816  67.873  1.00  0.00    -0.194 C  
HETATM   45  O   UNK A   1     -11.173   6.097  67.381  1.00  0.00    -0.288 OA 
HETATM   46  O   UNK A   1      -9.852   7.917  67.245  1.00  0.00    -0.163 OA 
HETATM   47  H2  UNK A   1      -7.937   7.488  70.093  1.00  0.00     0.000 HD 
HETATM   48  H1  UNK A   1      -7.757   7.065  68.475  1.00  0.00     0.000 HD 
ENDBRANCH  41  42
ENDBRANCH  40  41
ENDBRANCH  39  40
ENDBRANCH  27  36
ENDBRANCH  26  27
ENDBRANCH  25  26
ENDBRANCH  24  25
ENDBRANCH  23  24
ENDBRANCH  14  23
ENDBRANCH  11  14
ENDBRANCH   9  10
ENDBRANCH   8   9
ENDBRANCH   4   8
TORSDOF 17
ENDMDL
MODEL      269
REMARK 921   NORMALIZED FREE ENERGY PREDICTED BY IDOCK:   -3.06 KCAL/MOL
REMARK 922        TOTAL FREE ENERGY PREDICTED BY IDOCK:   -9.06 KCAL/MOL
REMARK 923 INTER-LIGAND FREE ENERGY PREDICTED BY IDOCK:   -8.01 KCAL/MOL
REMARK 924 INTRA-LIGAND FREE ENERGY PREDICTED BY IDOCK:   -1.06 KCAL/MOL
REMARK 927      BINDING AFFINITY PREDICTED BY RF-SCORE:    0.00 PKD
ROOT
HETATM    1  N   UNK A   1     -11.343   7.250  72.918  1.00  0.00    -0.515 NA 
HETATM    2  H1  UNK A   1     -11.603   7.288  73.904  1.00  0.00     0.000 HD 
HETATM    3  H2  UNK A   1     -11.967   7.832  72.359  1.00  0.00     0.000 HD 
HETATM    4  C   UNK A   1     -11.282   5.868  72.372  1.00  0.00    -0.291 C  
HETATM    5  O   UNK A   1      -9.765   4.011  72.907  1.00  0.00    -0.125 OA 
HETATM    6  C   UNK A   1     -10.343   5.028  73.256  1.00  0.00    -0.191 C  
HETATM    7  O   UNK A   1     -10.235   5.567  74.497  1.00  0.00    -0.251 OA 
ENDROOT
BRANCH   4   8
HETATM    8  C   UNK A   1     -10.892   5.812  70.893  1.00  0.00    -0.326 C  
BRANCH   8   9
HETATM    9  C   UNK A   1     -11.335   7.017  70.062  1.00  0.00    -0.293 C  
BRANCH   9  10
HETATM   10  C   UNK A   1     -10.178   7.973  69.890  1.00  0.00    -0.204 C  
HETATM   11  N   UNK A   1      -9.369   7.700  68.807  1.00  0.00    -0.149 N  
HETATM   12  O   UNK A   1      -9.960   8.889  70.678  1.00  0.00    -0.189 OA 
HETATM   13  H   UNK A   1      -9.560   6.891  68.216  1.00  0.00     0.000 HD 
BRANCH  11  14
HETATM   14  C   UNK A   1      -8.230   8.579  68.511  1.00  0.00    -0.123 C  
BRANCH  14  15
HETATM   15  C   UNK A   1      -7.552   8.091  67.215  1.00  0.00    -0.097 C  
ATOM     16  H   GLY A   2      -9.289   8.499  66.168  1.00  0.00     0.000 HD 
ATOM     17  N   GLY A   2      -8.328   8.172  66.080  1.00  0.00    -0.123 N  
HETATM   18  O   UNK A   1      -6.416   7.645  67.194  1.00  0.00    -0.051 OA 
BRANCH  17  19
ATOM     19  CA  GLY A   2      -7.834   7.811  64.762  1.00  0.00    -0.129 C  
ATOM     20  C   GLY A   2      -8.108   6.373  64.355  1.00  0.00    -0.076 C  
ATOM     21  O   GLY A   2      -8.237   5.490  65.391  1.00  0.00    -0.120 OA 
ATOM     22  OXT GLY A   2      -8.150   5.992  63.194  1.00  0.00    -0.115 OA 
ENDBRANCH  17  19
ENDBRANCH  14  15
BRANCH  14  23
HETATM   23  C   UNK A   1      -7.241   8.601  69.689  1.00  0.00    -0.052 C  
BRANCH  23  24
HETATM   24  S   UNK A   1      -6.776  10.249  70.310  1.00  0.00    -0.119 SA 
BRANCH  24  25
HETATM   25  S   UNK A   1      -6.379  11.262  68.572  1.00  0.00    -0.048 SA 
BRANCH  25  26
HETATM   26  C   UNK A   1      -7.465  12.724  68.721  1.00  0.00    -0.048 C  
BRANCH  26  27
HETATM   27  C   UNK A   1      -8.437  12.946  67.547  1.00  0.00    -0.186 C  
BRANCH  27  28
HETATM   28  C   UNK A   1      -9.610  11.922  67.605  1.00  0.00    -0.185 C  
ATOM     29  H   GLY A   2     -10.290  12.697  69.422  1.00  0.00     0.000 HD 
ATOM     30  N   GLY A   2     -10.476  12.029  68.674  1.00  0.00    -0.227 N  
HETATM   31  O   UNK A   1      -9.845  11.135  66.690  1.00  0.00    -0.191 OA 
BRANCH  30  32
ATOM     32  CA  GLY A   2     -11.659  11.179  68.727  1.00  0.00    -0.322 C  
ATOM     33  OXT GLY A   2     -13.109  10.126  70.387  1.00  0.00    -0.225 OA 
ATOM     34  C   GLY A   2     -12.428  11.088  70.053  1.00  0.00    -0.250 C  
ATOM     35  O   GLY A   2     -12.479  12.240  70.748  1.00  0.00    -0.346 OA 
ENDBRANCH  30  32
ENDBRANCH  27  28
BRANCH  27  36
HETATM   36  N   UNK A   1      -8.754  14.363  67.263  1.00  0.00    -0.203 N  
HETATM   37  H   UNK A   1      -8.447  14.770  66.380  1.00  0.00     0.000 HD 
HETATM   38  O   UNK A   1      -9.972  14.715  69.171  1.00  0.00    -0.210 OA 
HETATM   39  C   UNK A   1      -9.447  15.151  68.152  1.00  0.00    -0.201 C  
BRANCH  39  40
HETATM   40  C   UNK A   1      -9.661  16.600  67.743  1.00  0.00    -0.236 C  
BRANCH  40  41
HETATM   41  C   UNK A   1      -8.400  17.420  67.408  1.00  0.00    -0.215 C  
BRANCH  41  42
HETATM   42  C   UNK A   1      -8.307  18.044  66.008  1.00  0.00    -0.033 C  
HETATM   43  N   UNK A   1      -6.906  18.110  65.512  1.00  0.00    -0.486 NA 
HETATM   44  C   UNK A   1      -8.840  19.464  66.043  1.00  0.00    -0.158 C  
HETATM   45  O   UNK A   1      -9.998  19.840  66.038  1.00  0.00    -0.438 OA 
HETATM   46  O   UNK A   1      -7.800  20.321  66.159  1.00  0.00    -0.258 OA 
HETATM   47  H2  UNK A   1      -6.463  17.192  65.536  1.00  0.00     0.000 HD 
HETATM   48  H1  UNK A   1      -6.844  18.525  64.582  1.00  0.00     0.000 HD 
ENDBRANCH  41  42
ENDBRANCH  40  41
ENDBRANCH  39  40
ENDBRANCH  27  36
ENDBRANCH  26  27
ENDBRANCH  25  26
ENDBRANCH  24  25
ENDBRANCH  23  24
ENDBRANCH  14  23
ENDBRANCH  11  14
ENDBRANCH   9  10
ENDBRANCH   8   9
ENDBRANCH   4   8
TORSDOF 17
ENDMDL
MODEL      270
REMARK 921   NORMALIZED FREE ENERGY PREDICTED BY IDOCK:   -3.05 KCAL/MOL
REMARK 922        TOTAL FREE ENERGY PREDICTED BY IDOCK:   -9.05 KCAL/MOL
REMARK 923 INTER-LIGAND FREE ENERGY PREDICTED BY IDOCK:   -7.94 KCAL/MOL
REMARK 924 INTRA-LIGAND FREE ENERGY PREDICTED BY IDOCK:   -1.11 KCAL/MOL
REMARK 927      BINDING AFFINITY PREDICTED BY RF-SCORE:    0.00 PKD
ROOT
HETATM    1  N   UNK A   1     -12.195  13.191  70.621  1.00  0.00    -0.441 NA 
HETATM    2  H1  UNK A   1     -12.503  13.690  71.456  1.00  0.00     0.000 HD 
HETATM    3  H2  UNK A   1     -11.833  12.269  70.866  1.00  0.00     0.000 HD 
HETATM    4  C   UNK A   1     -11.206  13.947  69.807  1.00  0.00    -0.089 C  
HETATM    5  O   UNK A   1     -11.451  16.038  68.542  1.00  0.00    -0.370 OA 
HETATM    6  C   UNK A   1     -11.791  15.331  69.477  1.00  0.00    -0.345 C  
HETATM    7  O   UNK A   1     -12.750  15.678  70.373  1.00  0.00    -0.425 OA 
ENDROOT
BRANCH   4   8
HETATM    8  C   UNK A   1     -10.744  13.198  68.555  1.00  0.00    -0.277 C  
BRANCH   8   9
HETATM    9  C   UNK A   1      -9.339  13.555  68.069  1.00  0.00    -0.213 C  
BRANCH   9  10
HETATM   10  C   UNK A   1      -8.620  12.305  67.617  1.00  0.00    -0.169 C  
HETATM   11  N   UNK A   1      -7.449  12.044  68.297  1.00  0.00    -0.098 N  
HETATM   12  O   UNK A   1      -9.031  11.609  66.693  1.00  0.00    -0.179 OA 
HETATM   13  H   UNK A   1      -7.122  12.684  69.019  1.00  0.00     0.000 HD 
BRANCH  11  14
HETATM   14  C   UNK A   1      -6.677  10.837  67.974  1.00  0.00    -0.064 C  
BRANCH  14  15
HETATM   15  C   UNK A   1      -5.989  11.040  66.609  1.00  0.00    -0.114 C  
ATOM     16  H   GLY A   2      -6.909   9.327  65.903  1.00  0.00     0.000 HD 
ATOM     17  N   GLY A   2      -6.297  10.102  65.649  1.00  0.00    -0.094 N  
HETATM   18  O   UNK A   1      -5.210  11.956  66.394  1.00  0.00    -0.332 OA 
BRANCH  17  19
ATOM     19  CA  GLY A   2      -5.788  10.169  64.291  1.00  0.00    -0.139 C  
ATOM     20  C   GLY A   2      -5.467   8.820  63.667  1.00  0.00    -0.063 C  
ATOM     21  O   GLY A   2      -5.147   7.831  64.555  1.00  0.00    -0.028 OA 
ATOM     22  OXT GLY A   2      -5.424   8.623  62.462  1.00  0.00    -0.070 OA 
ENDBRANCH  17  19
ENDBRANCH  14  15
BRANCH  14  23
HETATM   23  C   UNK A   1      -7.586   9.595  67.966  1.00  0.00    -0.083 C  
BRANCH  23  24
HETATM   24  S   UNK A   1      -8.632   9.363  69.438  1.00  0.00    -0.160 SA 
BRANCH  24  25
HETATM   25  S   UNK A   1     -10.217   8.313  68.671  1.00  0.00    -0.200 SA 
BRANCH  25  26
HETATM   26  C   UNK A   1      -9.395   6.859  67.930  1.00  0.00    -0.118 C  
BRANCH  26  27
HETATM   27  C   UNK A   1      -9.941   5.491  68.383  1.00  0.00    -0.159 C  
BRANCH  27  28
HETATM   28  C   UNK A   1      -9.863   4.457  67.220  1.00  0.00    -0.162 C  
ATOM     29  H   GLY A   2     -10.849   5.752  65.910  1.00  0.00     0.000 HD 
ATOM     30  N   GLY A   2     -10.374   4.854  66.001  1.00  0.00    -0.272 N  
HETATM   31  O   UNK A   1      -9.268   3.386  67.327  1.00  0.00    -0.165 OA 
BRANCH  30  32
ATOM     32  CA  GLY A   2     -10.229   3.981  64.843  1.00  0.00    -0.200 C  
ATOM     33  OXT GLY A   2      -9.186   3.992  62.634  1.00  0.00    -0.101 OA 
ATOM     34  C   GLY A   2      -9.138   4.313  63.815  1.00  0.00    -0.142 C  
ATOM     35  O   GLY A   2      -8.003   4.806  64.347  1.00  0.00    -0.091 OA 
ENDBRANCH  30  32
ENDBRANCH  27  28
BRANCH  27  36
HETATM   36  N   UNK A   1      -9.507   5.067  69.732  1.00  0.00    -0.136 N  
HETATM   37  H   UNK A   1      -8.625   4.564  69.832  1.00  0.00     0.000 HD 
HETATM   38  O   UNK A   1     -11.252   6.040  70.853  1.00  0.00    -0.299 OA 
HETATM   39  C   UNK A   1     -10.254   5.327  70.857  1.00  0.00    -0.234 C  
BRANCH  39  40
HETATM   40  C   UNK A   1      -9.703   4.791  72.170  1.00  0.00    -0.218 C  
BRANCH  40  41
HETATM   41  C   UNK A   1      -8.648   5.658  72.885  1.00  0.00    -0.122 C  
BRANCH  41  42
HETATM   42  C   UNK A   1      -9.152   6.751  73.838  1.00  0.00    -0.170 C  
HETATM   43  N   UNK A   1     -10.618   6.662  74.076  1.00  0.00    -0.468 NA 
HETATM   44  C   UNK A   1      -8.875   8.119  73.242  1.00  0.00    -0.256 C  
HETATM   45  O   UNK A   1      -7.829   8.741  73.223  1.00  0.00    -0.400 OA 
HETATM   46  O   UNK A   1      -9.995   8.566  72.631  1.00  0.00    -0.278 OA 
HETATM   47  H2  UNK A   1     -10.881   5.734  74.407  1.00  0.00     0.000 HD 
HETATM   48  H1  UNK A   1     -10.953   7.388  74.709  1.00  0.00     0.000 HD 
ENDBRANCH  41  42
ENDBRANCH  40  41
ENDBRANCH  39  40
ENDBRANCH  27  36
ENDBRANCH  26  27
ENDBRANCH  25  26
ENDBRANCH  24  25
ENDBRANCH  23  24
ENDBRANCH  14  23
ENDBRANCH  11  14
ENDBRANCH   9  10
ENDBRANCH   8   9
ENDBRANCH   4   8
TORSDOF 17
ENDMDL
MODEL      271
REMARK 921   NORMALIZED FREE ENERGY PREDICTED BY IDOCK:   -3.05 KCAL/MOL
REMARK 922        TOTAL FREE ENERGY PREDICTED BY IDOCK:   -9.04 KCAL/MOL
REMARK 923 INTER-LIGAND FREE ENERGY PREDICTED BY IDOCK:   -7.89 KCAL/MOL
REMARK 924 INTRA-LIGAND FREE ENERGY PREDICTED BY IDOCK:   -1.15 KCAL/MOL
REMARK 927      BINDING AFFINITY PREDICTED BY RF-SCORE:    0.00 PKD
ROOT
HETATM    1  N   UNK A   1     -10.358  16.792  65.319  1.00  0.00    -0.643 NA 
HETATM    2  H1  UNK A   1     -10.209  17.061  64.346  1.00  0.00     0.000 HD 
HETATM    3  H2  UNK A   1      -9.529  16.991  65.879  1.00  0.00     0.000 HD 
HETATM    4  C   UNK A   1     -10.778  15.375  65.487  1.00  0.00    -0.384 C  
HETATM    5  O   UNK A   1     -12.839  14.233  64.791  1.00  0.00    -0.671 OA 
HETATM    6  C   UNK A   1     -12.020  15.121  64.614  1.00  0.00    -0.298 C  
HETATM    7  O   UNK A   1     -12.093  16.022  63.602  1.00  0.00    -0.768 OA 
ENDROOT
BRANCH   4   8
HETATM    8  C   UNK A   1     -11.001  14.972  66.946  1.00  0.00    -0.324 C  
BRANCH   8   9
HETATM    9  C   UNK A   1     -12.015  13.846  67.158  1.00  0.00    -0.455 C  
BRANCH   9  10
HETATM   10  C   UNK A   1     -11.605  13.004  68.344  1.00  0.00    -0.335 C  
HETATM   11  N   UNK A   1     -10.617  12.081  68.072  1.00  0.00    -0.201 N  
HETATM   12  O   UNK A   1     -12.141  13.111  69.443  1.00  0.00    -0.292 OA 
HETATM   13  H   UNK A   1     -10.244  11.993  67.127  1.00  0.00     0.000 HD 
BRANCH  11  14
HETATM   14  C   UNK A   1     -10.105  11.227  69.152  1.00  0.00    -0.069 C  
BRANCH  14  15
HETATM   15  C   UNK A   1      -8.647  10.842  68.829  1.00  0.00    -0.159 C  
ATOM     16  H   GLY A   2      -8.468   9.994  70.708  1.00  0.00     0.000 HD 
ATOM     17  N   GLY A   2      -7.984  10.161  69.826  1.00  0.00    -0.171 N  
HETATM   18  O   UNK A   1      -8.106  11.136  67.774  1.00  0.00    -0.113 OA 
BRANCH  17  19
ATOM     19  CA  GLY A   2      -6.626   9.671  69.675  1.00  0.00    -0.048 C  
ATOM     20  C   GLY A   2      -6.406   8.251  70.172  1.00  0.00    -0.035 C  
ATOM     21  O   GLY A   2      -7.261   7.841  71.156  1.00  0.00    -0.059 OA 
ATOM     22  OXT GLY A   2      -5.498   7.530  69.785  1.00  0.00    -0.022 OA 
ENDBRANCH  17  19
ENDBRANCH  14  15
BRANCH  14  23
HETATM   23  C   UNK A   1     -10.991   9.980  69.323  1.00  0.00    -0.228 C  
BRANCH  23  24
HETATM   24  S   UNK A   1     -10.391   8.459  68.523  1.00  0.00    -0.173 SA 
BRANCH  24  25
HETATM   25  S   UNK A   1     -11.037   7.011  69.822  1.00  0.00    -0.214 SA 
BRANCH  25  26
HETATM   26  C   UNK A   1     -10.680   5.475  68.898  1.00  0.00    -0.137 C  
BRANCH  26  27
HETATM   27  C   UNK A   1      -9.320   4.821  69.205  1.00  0.00    -0.135 C  
BRANCH  27  28
HETATM   28  C   UNK A   1      -8.349   4.981  67.997  1.00  0.00    -0.100 C  
ATOM     29  H   GLY A   2      -9.903   5.583  66.738  1.00  0.00     0.000 HD 
ATOM     30  N   GLY A   2      -8.896   5.442  66.816  1.00  0.00    -0.112 N  
HETATM   31  O   UNK A   1      -7.133   4.832  68.102  1.00  0.00    -0.059 OA 
BRANCH  30  32
ATOM     32  CA  GLY A   2      -8.025   5.723  65.682  1.00  0.00    -0.116 C  
ATOM     33  OXT GLY A   2      -7.350   7.614  64.292  1.00  0.00    -0.080 OA 
ATOM     34  C   GLY A   2      -7.654   7.186  65.398  1.00  0.00    -0.100 C  
ATOM     35  O   GLY A   2      -7.477   7.940  66.499  1.00  0.00    -0.085 OA 
ENDBRANCH  30  32
ENDBRANCH  27  28
BRANCH  27  36
HETATM   36  N   UNK A   1      -8.799   5.083  70.565  1.00  0.00    -0.118 N  
HETATM   37  H   UNK A   1      -8.898   6.018  70.960  1.00  0.00     0.000 HD 
HETATM   38  O   UNK A   1      -8.146   2.926  70.981  1.00  0.00    -0.052 OA 
HETATM   39  C   UNK A   1      -8.186   4.106  71.314  1.00  0.00    -0.077 C  
BRANCH  39  40
HETATM   40  C   UNK A   1      -7.663   4.533  72.677  1.00  0.00    -0.086 C  
BRANCH  40  41
HETATM   41  C   UNK A   1      -8.110   3.691  73.887  1.00  0.00    -0.082 C  
BRANCH  41  42
HETATM   42  C   UNK A   1      -9.452   4.044  74.544  1.00  0.00    -0.110 C  
HETATM   43  N   UNK A   1     -10.426   2.921  74.479  1.00  0.00    -0.163 NA 
HETATM   44  C   UNK A   1     -10.079   5.225  73.826  1.00  0.00    -0.198 C  
HETATM   45  O   UNK A   1      -9.814   6.408  73.937  1.00  0.00    -0.184 OA 
HETATM   46  O   UNK A   1     -10.986   4.766  72.935  1.00  0.00    -0.232 OA 
HETATM   47  H2  UNK A   1     -10.033   2.069  74.879  1.00  0.00     0.000 HD 
HETATM   48  H1  UNK A   1     -11.317   3.155  74.915  1.00  0.00     0.000 HD 
ENDBRANCH  41  42
ENDBRANCH  40  41
ENDBRANCH  39  40
ENDBRANCH  27  36
ENDBRANCH  26  27
ENDBRANCH  25  26
ENDBRANCH  24  25
ENDBRANCH  23  24
ENDBRANCH  14  23
ENDBRANCH  11  14
ENDBRANCH   9  10
ENDBRANCH   8   9
ENDBRANCH   4   8
TORSDOF 17
ENDMDL
MODEL      272
REMARK 921   NORMALIZED FREE ENERGY PREDICTED BY IDOCK:   -3.04 KCAL/MOL
REMARK 922        TOTAL FREE ENERGY PREDICTED BY IDOCK:   -9.03 KCAL/MOL
REMARK 923 INTER-LIGAND FREE ENERGY PREDICTED BY IDOCK:   -7.86 KCAL/MOL
REMARK 924 INTRA-LIGAND FREE ENERGY PREDICTED BY IDOCK:   -1.18 KCAL/MOL
REMARK 927      BINDING AFFINITY PREDICTED BY RF-SCORE:    0.00 PKD
ROOT
HETATM    1  N   UNK A   1     -10.119   5.747  66.614  1.00  0.00    -0.180 NA 
HETATM    2  H1  UNK A   1     -10.329   6.572  66.051  1.00  0.00     0.000 HD 
HETATM    3  H2  UNK A   1     -10.590   5.797  67.517  1.00  0.00     0.000 HD 
HETATM    4  C   UNK A   1      -8.662   5.505  66.793  1.00  0.00    -0.114 C  
HETATM    5  O   UNK A   1      -6.935   4.904  65.152  1.00  0.00    -0.059 OA 
HETATM    6  C   UNK A   1      -7.996   5.453  65.407  1.00  0.00    -0.107 C  
HETATM    7  O   UNK A   1      -8.746   6.106  64.483  1.00  0.00     0.071 OA 
ENDROOT
BRANCH   4   8
HETATM    8  C   UNK A   1      -8.347   4.268  67.636  1.00  0.00    -0.098 C  
BRANCH   8   9
HETATM    9  C   UNK A   1      -7.281   4.474  68.714  1.00  0.00    -0.053 C  
BRANCH   9  10
HETATM   10  C   UNK A   1      -7.694   5.599  69.634  1.00  0.00    -0.083 C  
HETATM   11  N   UNK A   1      -8.913   5.412  70.250  1.00  0.00    -0.133 N  
HETATM   12  O   UNK A   1      -7.013   6.609  69.783  1.00  0.00    -0.062 OA 
HETATM   13  H   UNK A   1      -9.467   4.580  70.049  1.00  0.00     0.000 HD 
BRANCH  11  14
HETATM   14  C   UNK A   1      -9.409   6.419  71.198  1.00  0.00    -0.160 C  
BRANCH  14  15
HETATM   15  C   UNK A   1      -9.831   5.708  72.499  1.00  0.00    -0.163 C  
ATOM     16  H   GLY A   2     -11.459   4.896  71.514  1.00  0.00     0.000 HD 
ATOM     17  N   GLY A   2     -10.960   4.924  72.402  1.00  0.00    -0.141 N  
HETATM   18  O   UNK A   1      -9.222   5.842  73.550  1.00  0.00    -0.132 OA 
BRANCH  17  19
ATOM     19  CA  GLY A   2     -11.468   4.137  73.512  1.00  0.00    -0.135 C  
ATOM     20  C   GLY A   2     -10.984   2.696  73.540  1.00  0.00    -0.212 C  
ATOM     21  O   GLY A   2     -10.646   2.173  72.323  1.00  0.00    -0.112 OA 
ATOM     22  OXT GLY A   2     -10.953   2.010  74.551  1.00  0.00    -0.101 OA 
ENDBRANCH  17  19
ENDBRANCH  14  15
BRANCH  14  23
HETATM   23  C   UNK A   1     -10.577   7.212  70.586  1.00  0.00    -0.225 C  
BRANCH  23  24
HETATM   24  S   UNK A   1     -11.028   8.755  71.440  1.00  0.00    -0.318 SA 
BRANCH  24  25
HETATM   25  S   UNK A   1     -10.536  10.173  70.043  1.00  0.00    -0.275 SA 
BRANCH  25  26
HETATM   26  C   UNK A   1     -11.900  11.378  70.219  1.00  0.00    -0.350 C  
BRANCH  26  27
HETATM   27  C   UNK A   1     -11.950  12.479  69.143  1.00  0.00    -0.236 C  
BRANCH  27  28
HETATM   28  C   UNK A   1     -11.983  13.889  69.803  1.00  0.00    -0.338 C  
ATOM     29  H   GLY A   2     -10.336  14.527  68.687  1.00  0.00     0.000 HD 
ATOM     30  N   GLY A   2     -11.054  14.807  69.355  1.00  0.00    -0.271 N  
HETATM   31  O   UNK A   1     -12.864  14.230  70.590  1.00  0.00    -0.345 OA 
BRANCH  30  32
ATOM     32  CA  GLY A   2     -11.105  16.179  69.846  1.00  0.00    -0.357 C  
ATOM     33  OXT GLY A   2     -10.173  18.372  69.311  1.00  0.00    -0.265 OA 
ATOM     34  C   GLY A   2     -10.617  17.300  68.918  1.00  0.00    -0.276 C  
ATOM     35  O   GLY A   2     -10.907  17.112  67.617  1.00  0.00    -0.332 OA 
ENDBRANCH  30  32
ENDBRANCH  27  28
BRANCH  27  36
HETATM   36  N   UNK A   1     -11.046  12.262  67.992  1.00  0.00    -0.224 N  
HETATM   37  H   UNK A   1     -10.316  11.554  68.064  1.00  0.00     0.000 HD 
HETATM   38  O   UNK A   1     -12.086  13.753  66.597  1.00  0.00    -0.411 OA 
HETATM   39  C   UNK A   1     -11.159  12.983  66.826  1.00  0.00    -0.286 C  
BRANCH  39  40
HETATM   40  C   UNK A   1     -10.133  12.680  65.745  1.00  0.00    -0.284 C  
BRANCH  40  41
HETATM   41  C   UNK A   1      -9.064  11.623  66.080  1.00  0.00    -0.188 C  
BRANCH  41  42
HETATM   42  C   UNK A   1      -8.030  11.972  67.161  1.00  0.00    -0.175 C  
HETATM   43  N   UNK A   1      -7.568  13.382  67.065  1.00  0.00    -0.357 NA 
HETATM   44  C   UNK A   1      -6.808  11.086  67.007  1.00  0.00    -0.109 C  
HETATM   45  O   UNK A   1      -6.658   9.931  67.361  1.00  0.00    -0.068 OA 
HETATM   46  O   UNK A   1      -5.860  11.761  66.318  1.00  0.00    -0.192 OA 
HETATM   47  H2  UNK A   1      -8.355  14.030  67.086  1.00  0.00     0.000 HD 
HETATM   48  H1  UNK A   1      -6.881  13.615  67.783  1.00  0.00     0.000 HD 
ENDBRANCH  41  42
ENDBRANCH  40  41
ENDBRANCH  39  40
ENDBRANCH  27  36
ENDBRANCH  26  27
ENDBRANCH  25  26
ENDBRANCH  24  25
ENDBRANCH  23  24
ENDBRANCH  14  23
ENDBRANCH  11  14
ENDBRANCH   9  10
ENDBRANCH   8   9
ENDBRANCH   4   8
TORSDOF 17
ENDMDL
MODEL      273
REMARK 921   NORMALIZED FREE ENERGY PREDICTED BY IDOCK:   -3.01 KCAL/MOL
REMARK 922        TOTAL FREE ENERGY PREDICTED BY IDOCK:   -8.97 KCAL/MOL
REMARK 923 INTER-LIGAND FREE ENERGY PREDICTED BY IDOCK:   -9.68 KCAL/MOL
REMARK 924 INTRA-LIGAND FREE ENERGY PREDICTED BY IDOCK:    0.71 KCAL/MOL
REMARK 927      BINDING AFFINITY PREDICTED BY RF-SCORE:    0.00 PKD
ROOT
HETATM    1  N   UNK A   1     -13.430   9.349  71.001  1.00  0.00    -0.577 NA 
HETATM    2  H1  UNK A   1     -14.305   9.021  70.593  1.00  0.00     0.000 HD 
HETATM    3  H2  UNK A   1     -13.062  10.142  70.475  1.00  0.00     0.000 HD 
HETATM    4  C   UNK A   1     -12.401   8.284  71.138  1.00  0.00    -0.206 C  
HETATM    5  O   UNK A   1     -12.373   6.269  72.542  1.00  0.00    -0.111 OA 
HETATM    6  C   UNK A   1     -13.008   7.108  71.923  1.00  0.00    -0.244 C  
HETATM    7  O   UNK A   1     -14.362   7.118  71.841  1.00  0.00    -0.390 OA 
ENDROOT
BRANCH   4   8
HETATM    8  C   UNK A   1     -11.089   8.777  71.751  1.00  0.00    -0.417 C  
BRANCH   8   9
HETATM    9  C   UNK A   1     -10.352   9.840  70.934  1.00  0.00    -0.245 C  
BRANCH   9  10
HETATM   10  C   UNK A   1      -9.029   9.291  70.454  1.00  0.00    -0.239 C  
HETATM   11  N   UNK A   1      -9.128   8.131  69.716  1.00  0.00    -0.148 N  
HETATM   12  O   UNK A   1      -7.957   9.819  70.737  1.00  0.00    -0.288 OA 
HETATM   13  H   UNK A   1     -10.039   7.700  69.557  1.00  0.00     0.000 HD 
BRANCH  11  14
HETATM   14  C   UNK A   1      -7.914   7.518  69.161  1.00  0.00    -0.121 C  
BRANCH  14  15
HETATM   15  C   UNK A   1      -6.920   7.262  70.312  1.00  0.00    -0.060 C  
ATOM     16  H   GLY A   2      -8.462   6.492  71.456  1.00  0.00     0.000 HD 
ATOM     17  N   GLY A   2      -7.459   6.676  71.436  1.00  0.00    -0.087 N  
HETATM   18  O   UNK A   1      -5.740   7.572  70.245  1.00  0.00    -0.024 OA 
BRANCH  17  19
ATOM     19  CA  GLY A   2      -6.661   6.310  72.592  1.00  0.00    -0.064 C  
ATOM     20  C   GLY A   2      -7.382   5.441  73.610  1.00  0.00    -0.087 C  
ATOM     21  O   GLY A   2      -8.741   5.580  73.633  1.00  0.00    -0.123 OA 
ATOM     22  OXT GLY A   2      -6.809   4.713  74.407  1.00  0.00    -0.064 OA 
ENDBRANCH  17  19
ENDBRANCH  14  15
BRANCH  14  23
HETATM   23  C   UNK A   1      -7.298   8.418  68.075  1.00  0.00    -0.096 C  
BRANCH  23  24
HETATM   24  S   UNK A   1      -5.863   9.415  68.585  1.00  0.00    -0.040 SA 
BRANCH  24  25
HETATM   25  S   UNK A   1      -6.326  11.255  67.809  1.00  0.00    -0.059 SA 
BRANCH  25  26
HETATM   26  C   UNK A   1      -8.145  11.162  67.653  1.00  0.00    -0.117 C  
BRANCH  26  27
HETATM   27  C   UNK A   1      -8.805  12.343  66.917  1.00  0.00    -0.205 C  
BRANCH  27  28
HETATM   28  C   UNK A   1      -9.820  11.828  65.854  1.00  0.00    -0.238 C  
ATOM     29  H   GLY A   2      -9.602  13.560  64.707  1.00  0.00     0.000 HD 
ATOM     30  N   GLY A   2     -10.034  12.637  64.756  1.00  0.00    -0.192 N  
HETATM   31  O   UNK A   1     -10.319  10.705  65.905  1.00  0.00    -0.255 OA 
BRANCH  30  32
ATOM     32  CA  GLY A   2     -10.881  12.164  63.669  1.00  0.00    -0.464 C  
ATOM     33  OXT GLY A   2     -13.238  11.701  63.225  1.00  0.00    -0.487 OA 
ATOM     34  C   GLY A   2     -12.395  12.401  63.772  1.00  0.00    -0.528 C  
ATOM     35  O   GLY A   2     -12.737  13.573  64.340  1.00  0.00    -0.643 OA 
ENDBRANCH  30  32
ENDBRANCH  27  28
BRANCH  27  36
HETATM   36  N   UNK A   1      -9.209  13.468  67.788  1.00  0.00    -0.203 N  
HETATM   37  H   UNK A   1      -9.962  13.327  68.461  1.00  0.00     0.000 HD 
HETATM   38  O   UNK A   1      -7.601  14.923  67.046  1.00  0.00    -0.166 OA 
HETATM   39  C   UNK A   1      -8.601  14.700  67.721  1.00  0.00    -0.173 C  
BRANCH  39  40
HETATM   40  C   UNK A   1      -9.151  15.773  68.648  1.00  0.00    -0.204 C  
BRANCH  40  41
HETATM   41  C   UNK A   1     -10.287  16.655  68.093  1.00  0.00    -0.303 C  
BRANCH  41  42
HETATM   42  C   UNK A   1      -9.979  18.138  67.841  1.00  0.00    -0.333 C  
HETATM   43  N   UNK A   1     -11.178  19.001  68.018  1.00  0.00    -0.087 NA 
HETATM   44  C   UNK A   1      -9.495  18.326  66.416  1.00  0.00    -0.286 C  
HETATM   45  O   UNK A   1      -8.389  18.109  65.955  1.00  0.00    -0.513 OA 
HETATM   46  O   UNK A   1     -10.534  18.728  65.649  1.00  0.00    -0.594 OA 
HETATM   47  H2  UNK A   1     -11.598  18.863  68.936  1.00  0.00     0.000 HD 
HETATM   48  H1  UNK A   1     -10.974  19.986  67.851  1.00  0.00     0.000 HD 
ENDBRANCH  41  42
ENDBRANCH  40  41
ENDBRANCH  39  40
ENDBRANCH  27  36
ENDBRANCH  26  27
ENDBRANCH  25  26
ENDBRANCH  24  25
ENDBRANCH  23  24
ENDBRANCH  14  23
ENDBRANCH  11  14
ENDBRANCH   9  10
ENDBRANCH   8   9
ENDBRANCH   4   8
TORSDOF 17
ENDMDL
MODEL      274
REMARK 921   NORMALIZED FREE ENERGY PREDICTED BY IDOCK:   -3.01 KCAL/MOL
REMARK 922        TOTAL FREE ENERGY PREDICTED BY IDOCK:   -8.96 KCAL/MOL
REMARK 923 INTER-LIGAND FREE ENERGY PREDICTED BY IDOCK:   -8.03 KCAL/MOL
REMARK 924 INTRA-LIGAND FREE ENERGY PREDICTED BY IDOCK:   -0.94 KCAL/MOL
REMARK 927      BINDING AFFINITY PREDICTED BY RF-SCORE:    0.00 PKD
ROOT
HETATM    1  N   UNK A   1      -7.919  14.222  66.990  1.00  0.00    -0.368 NA 
HETATM    2  H1  UNK A   1      -8.760  14.746  66.749  1.00  0.00     0.000 HD 
HETATM    3  H2  UNK A   1      -8.161  13.332  67.426  1.00  0.00     0.000 HD 
HETATM    4  C   UNK A   1      -6.967  14.985  67.841  1.00  0.00    -0.156 C  
HETATM    5  O   UNK A   1      -5.648  16.997  67.345  1.00  0.00    -0.124 OA 
HETATM    6  C   UNK A   1      -6.646  16.321  67.149  1.00  0.00    -0.195 C  
HETATM    7  O   UNK A   1      -7.628  16.664  66.277  1.00  0.00    -0.289 OA 
ENDROOT
BRANCH   4   8
HETATM    8  C   UNK A   1      -5.705  14.199  68.202  1.00  0.00    -0.128 C  
BRANCH   8   9
HETATM    9  C   UNK A   1      -5.768  13.449  69.534  1.00  0.00    -0.099 C  
BRANCH   9  10
HETATM   10  C   UNK A   1      -6.068  11.989  69.286  1.00  0.00    -0.088 C  
HETATM   11  N   UNK A   1      -7.326  11.591  69.685  1.00  0.00    -0.352 N  
HETATM   12  O   UNK A   1      -5.239  11.221  68.807  1.00  0.00    -0.041 OA 
HETATM   13  H   UNK A   1      -7.958  12.255  70.130  1.00  0.00     0.000 HD 
BRANCH  11  14
HETATM   14  C   UNK A   1      -7.751  10.202  69.464  1.00  0.00    -0.155 C  
BRANCH  14  15
HETATM   15  C   UNK A   1      -7.326   9.356  70.681  1.00  0.00    -0.131 C  
ATOM     16  H   GLY A   2      -5.354   9.488  70.069  1.00  0.00     0.000 HD 
ATOM     17  N   GLY A   2      -5.972   9.130  70.797  1.00  0.00    -0.040 N  
HETATM   18  O   UNK A   1      -8.131   8.899  71.479  1.00  0.00    -0.241 OA 
BRANCH  17  19
ATOM     19  CA  GLY A   2      -5.388   8.404  71.911  1.00  0.00    -0.037 C  
ATOM     20  C   GLY A   2      -5.244   9.213  73.189  1.00  0.00    -0.082 C  
ATOM     21  O   GLY A   2      -5.125  10.563  73.011  1.00  0.00    -0.322 OA 
ATOM     22  OXT GLY A   2      -5.169   8.716  74.303  1.00  0.00    -0.084 OA 
ENDBRANCH  17  19
ENDBRANCH  14  15
BRANCH  14  23
HETATM   23  C   UNK A   1      -7.151   9.651  68.159  1.00  0.00    -0.079 C  
BRANCH  23  24
HETATM   24  S   UNK A   1      -7.835  10.332  66.615  1.00  0.00    -0.120 SA 
BRANCH  24  25
HETATM   25  S   UNK A   1      -9.623   9.339  66.469  1.00  0.00    -0.246 SA 
BRANCH  25  26
HETATM   26  C   UNK A   1     -10.641  10.188  67.728  1.00  0.00    -0.256 C  
BRANCH  26  27
HETATM   27  C   UNK A   1     -10.533  11.724  67.737  1.00  0.00    -0.194 C  
BRANCH  27  28
HETATM   28  C   UNK A   1     -11.241  12.331  66.489  1.00  0.00    -0.324 C  
ATOM     29  H   GLY A   2      -9.454  13.156  65.790  1.00  0.00     0.000 HD 
ATOM     30  N   GLY A   2     -10.442  13.004  65.587  1.00  0.00    -0.275 N  
HETATM   31  O   UNK A   1     -12.427  12.124  66.236  1.00  0.00    -0.321 OA 
BRANCH  30  32
ATOM     32  CA  GLY A   2     -11.019  13.495  64.342  1.00  0.00    -0.384 C  
ATOM     33  OXT GLY A   2     -12.645  15.152  63.582  1.00  0.00    -0.614 OA 
ATOM     34  C   GLY A   2     -11.755  14.842  64.365  1.00  0.00    -0.336 C  
ATOM     35  O   GLY A   2     -11.208  15.762  65.182  1.00  0.00    -0.320 OA 
ENDBRANCH  30  32
ENDBRANCH  27  28
BRANCH  27  36
HETATM   36  N   UNK A   1     -10.768  12.354  69.055  1.00  0.00    -0.394 N  
HETATM   37  H   UNK A   1     -10.007  12.869  69.498  1.00  0.00     0.000 HD 
HETATM   38  O   UNK A   1     -12.985  11.792  69.189  1.00  0.00     0.584 OA 
HETATM   39  C   UNK A   1     -11.978  12.268  69.702  1.00  0.00    -0.279 C  
BRANCH  39  40
HETATM   40  C   UNK A   1     -12.058  12.930  71.070  1.00  0.00    -0.047 C  
BRANCH  40  41
HETATM   41  C   UNK A   1     -11.459  14.344  71.193  1.00  0.00     0.008 C  
BRANCH  41  42
HETATM   42  C   UNK A   1     -12.230  15.502  70.543  1.00  0.00    -0.404 C  
HETATM   43  N   UNK A   1     -13.697  15.257  70.511  1.00  0.00    -0.702 NA 
HETATM   44  C   UNK A   1     -11.772  15.681  69.107  1.00  0.00    -0.390 C  
HETATM   45  O   UNK A   1     -10.769  16.234  68.694  1.00  0.00    -0.273 OA 
HETATM   46  O   UNK A   1     -12.641  15.049  68.287  1.00  0.00     0.267 OA 
HETATM   47  H2  UNK A   1     -14.057  15.053  71.443  1.00  0.00     0.000 HD 
HETATM   48  H1  UNK A   1     -14.209  16.026  70.079  1.00  0.00     0.000 HD 
ENDBRANCH  41  42
ENDBRANCH  40  41
ENDBRANCH  39  40
ENDBRANCH  27  36
ENDBRANCH  26  27
ENDBRANCH  25  26
ENDBRANCH  24  25
ENDBRANCH  23  24
ENDBRANCH  14  23
ENDBRANCH  11  14
ENDBRANCH   9  10
ENDBRANCH   8   9
ENDBRANCH   4   8
TORSDOF 17
ENDMDL
MODEL      275
REMARK 921   NORMALIZED FREE ENERGY PREDICTED BY IDOCK:   -3.00 KCAL/MOL
REMARK 922        TOTAL FREE ENERGY PREDICTED BY IDOCK:   -8.95 KCAL/MOL
REMARK 923 INTER-LIGAND FREE ENERGY PREDICTED BY IDOCK:   -7.34 KCAL/MOL
REMARK 924 INTRA-LIGAND FREE ENERGY PREDICTED BY IDOCK:   -1.62 KCAL/MOL
REMARK 927      BINDING AFFINITY PREDICTED BY RF-SCORE:    0.00 PKD
ROOT
HETATM    1  N   UNK A   1     -11.620  13.931  70.699  1.00  0.00    -0.516 NA 
HETATM    2  H1  UNK A   1     -11.965  14.643  71.342  1.00  0.00     0.000 HD 
HETATM    3  H2  UNK A   1     -11.092  13.217  71.202  1.00  0.00     0.000 HD 
HETATM    4  C   UNK A   1     -10.818  14.484  69.575  1.00  0.00    -0.184 C  
HETATM    5  O   UNK A   1     -11.484  15.934  67.708  1.00  0.00    -0.260 OA 
HETATM    6  C   UNK A   1     -11.649  15.563  68.859  1.00  0.00    -0.373 C  
HETATM    7  O   UNK A   1     -12.606  16.063  69.682  1.00  0.00    -0.107 OA 
ENDROOT
BRANCH   4   8
HETATM    8  C   UNK A   1     -10.300  13.414  68.610  1.00  0.00    -0.213 C  
BRANCH   8   9
HETATM    9  C   UNK A   1      -8.802  13.488  68.308  1.00  0.00    -0.179 C  
BRANCH   9  10
HETATM   10  C   UNK A   1      -8.305  12.136  67.852  1.00  0.00    -0.161 C  
HETATM   11  N   UNK A   1      -6.949  11.944  68.013  1.00  0.00    -0.072 N  
HETATM   12  O   UNK A   1      -9.047  11.300  67.344  1.00  0.00    -0.149 OA 
HETATM   13  H   UNK A   1      -6.366  12.692  68.388  1.00  0.00     0.000 HD 
BRANCH  11  14
HETATM   14  C   UNK A   1      -6.349  10.656  67.641  1.00  0.00    -0.056 C  
BRANCH  14  15
HETATM   15  C   UNK A   1      -6.215  10.598  66.106  1.00  0.00    -0.125 C  
ATOM     16  H   GLY A   2      -7.649   9.108  66.050  1.00  0.00     0.000 HD 
ATOM     17  N   GLY A   2      -7.045   9.696  65.477  1.00  0.00    -0.094 N  
HETATM   18  O   UNK A   1      -5.418  11.286  65.488  1.00  0.00    -0.210 OA 
BRANCH  17  19
ATOM     19  CA  GLY A   2      -7.096   9.549  64.033  1.00  0.00    -0.109 C  
ATOM     20  C   GLY A   2      -7.990   8.421  63.543  1.00  0.00    -0.159 C  
ATOM     21  O   GLY A   2      -8.159   7.389  64.423  1.00  0.00    -0.134 OA 
ATOM     22  OXT GLY A   2      -8.481   8.382  62.424  1.00  0.00    -0.196 OA 
ENDBRANCH  17  19
ENDBRANCH  14  15
BRANCH  14  23
HETATM   23  C   UNK A   1      -7.195   9.488  68.177  1.00  0.00    -0.080 C  
BRANCH  23  24
HETATM   24  S   UNK A   1      -6.291   7.950  68.543  1.00  0.00    -0.050 SA 
BRANCH  24  25
HETATM   25  S   UNK A   1      -6.867   7.569  70.473  1.00  0.00    -0.048 SA 
BRANCH  25  26
HETATM   26  C   UNK A   1      -8.687   7.707  70.368  1.00  0.00    -0.143 C  
BRANCH  26  27
HETATM   27  C   UNK A   1      -9.475   6.686  71.209  1.00  0.00    -0.162 C  
BRANCH  27  28
HETATM   28  C   UNK A   1     -10.695   7.368  71.899  1.00  0.00    -0.216 C  
ATOM     29  H   GLY A   2     -10.428   9.120  70.794  1.00  0.00     0.000 HD 
ATOM     30  N   GLY A   2     -11.021   8.639  71.469  1.00  0.00    -0.267 N  
HETATM   31  O   UNK A   1     -11.421   6.775  72.695  1.00  0.00    -0.247 OA 
BRANCH  30  32
ATOM     32  CA  GLY A   2     -12.219   9.287  71.989  1.00  0.00    -0.348 C  
ATOM     33  OXT GLY A   2     -13.243  11.503  72.057  1.00  0.00    -0.509 OA 
ATOM     34  C   GLY A   2     -12.592  10.670  71.438  1.00  0.00    -0.421 C  
ATOM     35  O   GLY A   2     -12.336  10.835  70.127  1.00  0.00    -0.315 OA 
ENDBRANCH  30  32
ENDBRANCH  27  28
BRANCH  27  36
HETATM   36  N   UNK A   1      -9.678   5.373  70.560  1.00  0.00    -0.174 N  
HETATM   37  H   UNK A   1     -10.298   5.312  69.752  1.00  0.00     0.000 HD 
HETATM   38  O   UNK A   1      -8.196   4.229  71.881  1.00  0.00    -0.093 OA 
HETATM   39  C   UNK A   1      -9.059   4.230  71.010  1.00  0.00    -0.123 C  
BRANCH  39  40
HETATM   40  C   UNK A   1      -9.397   2.945  70.268  1.00  0.00    -0.219 C  
BRANCH  40  41
HETATM   41  C   UNK A   1      -9.467   3.028  68.732  1.00  0.00    -0.185 C  
BRANCH  41  42
HETATM   42  C   UNK A   1      -8.376   3.834  68.012  1.00  0.00    -0.092 C  
HETATM   43  N   UNK A   1      -8.829   5.206  67.656  1.00  0.00    -0.106 NA 
HETATM   44  C   UNK A   1      -7.993   3.137  66.719  1.00  0.00    -0.080 C  
HETATM   45  O   UNK A   1      -7.263   2.176  66.563  1.00  0.00    -0.054 OA 
HETATM   46  O   UNK A   1      -8.663   3.713  65.695  1.00  0.00    -0.111 OA 
HETATM   47  H2  UNK A   1      -9.173   5.704  68.476  1.00  0.00     0.000 HD 
HETATM   48  H1  UNK A   1      -8.104   5.741  67.178  1.00  0.00     0.000 HD 
ENDBRANCH  41  42
ENDBRANCH  40  41
ENDBRANCH  39  40
ENDBRANCH  27  36
ENDBRANCH  26  27
ENDBRANCH  25  26
ENDBRANCH  24  25
ENDBRANCH  23  24
ENDBRANCH  14  23
ENDBRANCH  11  14
ENDBRANCH   9  10
ENDBRANCH   8   9
ENDBRANCH   4   8
TORSDOF 17
ENDMDL
MODEL      276
REMARK 921   NORMALIZED FREE ENERGY PREDICTED BY IDOCK:   -3.00 KCAL/MOL
REMARK 922        TOTAL FREE ENERGY PREDICTED BY IDOCK:   -8.95 KCAL/MOL
REMARK 923 INTER-LIGAND FREE ENERGY PREDICTED BY IDOCK:   -6.53 KCAL/MOL
REMARK 924 INTRA-LIGAND FREE ENERGY PREDICTED BY IDOCK:   -2.42 KCAL/MOL
REMARK 927      BINDING AFFINITY PREDICTED BY RF-SCORE:    0.00 PKD
ROOT
HETATM    1  N   UNK A   1     -10.468  10.027  70.310  1.00  0.00    -0.326 NA 
HETATM    2  H1  UNK A   1     -10.080   9.241  70.832  1.00  0.00     0.000 HD 
HETATM    3  H2  UNK A   1      -9.748  10.725  70.122  1.00  0.00     0.000 HD 
HETATM    4  C   UNK A   1     -11.648  10.651  70.966  1.00  0.00    -0.129 C  
HETATM    5  O   UNK A   1     -13.892   9.748  71.396  1.00  0.00    -0.240 OA 
HETATM    6  C   UNK A   1     -12.696   9.558  71.241  1.00  0.00    -0.332 C  
HETATM    7  O   UNK A   1     -12.116   8.333  71.293  1.00  0.00    -0.288 OA 
ENDROOT
BRANCH   4   8
HETATM    8  C   UNK A   1     -12.230  11.830  70.183  1.00  0.00    -0.342 C  
BRANCH   8   9
HETATM    9  C   UNK A   1     -11.385  12.299  68.997  1.00  0.00    -0.333 C  
BRANCH   9  10
HETATM   10  C   UNK A   1     -10.941  13.726  69.217  1.00  0.00    -0.163 C  
HETATM   11  N   UNK A   1      -9.713  14.031  68.667  1.00  0.00    -0.315 N  
HETATM   12  O   UNK A   1     -11.604  14.528  69.868  1.00  0.00    -0.262 OA 
HETATM   13  H   UNK A   1      -9.174  13.313  68.185  1.00  0.00     0.000 HD 
BRANCH  11  14
HETATM   14  C   UNK A   1      -9.187  15.398  68.782  1.00  0.00    -0.206 C  
BRANCH  14  15
HETATM   15  C   UNK A   1      -9.332  16.099  67.416  1.00  0.00    -0.217 C  
ATOM     16  H   GLY A   2      -9.125  17.934  68.351  1.00  0.00     0.000 HD 
ATOM     17  N   GLY A   2      -9.238  17.473  67.448  1.00  0.00    -0.236 N  
HETATM   18  O   UNK A   1      -9.535  15.487  66.380  1.00  0.00    -0.245 OA 
BRANCH  17  19
ATOM     19  CA  GLY A   2      -9.293  18.293  66.251  1.00  0.00    -0.213 C  
ATOM     20  C   GLY A   2      -8.559  19.621  66.358  1.00  0.00    -0.361 C  
ATOM     21  O   GLY A   2      -8.450  20.124  67.624  1.00  0.00    -0.319 OA 
ATOM     22  OXT GLY A   2      -8.146  20.247  65.393  1.00  0.00    -0.054 OA 
ENDBRANCH  17  19
ENDBRANCH  14  15
BRANCH  14  23
HETATM   23  C   UNK A   1      -7.722  15.378  69.252  1.00  0.00    -0.221 C  
BRANCH  23  24
HETATM   24  S   UNK A   1      -7.114  13.790  69.903  1.00  0.00     0.507 SA 
BRANCH  24  25
HETATM   25  S   UNK A   1      -5.734  13.250  68.487  1.00  0.00    -0.091 SA 
BRANCH  25  26
HETATM   26  C   UNK A   1      -6.774  12.426  67.229  1.00  0.00    -0.133 C  
BRANCH  26  27
HETATM   27  C   UNK A   1      -7.895  11.528  67.786  1.00  0.00    -0.126 C  
BRANCH  27  28
HETATM   28  C   UNK A   1      -8.791  10.990  66.631  1.00  0.00    -0.164 C  
ATOM     29  H   GLY A   2      -7.287  11.315  65.218  1.00  0.00     0.000 HD 
ATOM     30  N   GLY A   2      -8.221  10.936  65.375  1.00  0.00    -0.078 N  
HETATM   31  O   UNK A   1      -9.907  10.512  66.828  1.00  0.00    -0.180 OA 
BRANCH  30  32
ATOM     32  CA  GLY A   2      -8.964  10.335  64.274  1.00  0.00    -0.234 C  
ATOM     33  OXT GLY A   2      -8.661   8.634  62.547  1.00  0.00    -0.182 OA 
ATOM     34  C   GLY A   2      -8.456   9.007  63.696  1.00  0.00    -0.167 C  
ATOM     35  O   GLY A   2      -7.940   8.163  64.610  1.00  0.00    -0.135 OA 
ENDBRANCH  30  32
ENDBRANCH  27  28
BRANCH  27  36
HETATM   36  N   UNK A   1      -7.467  10.586  68.842  1.00  0.00    -0.095 N  
HETATM   37  H   UNK A   1      -7.983  10.563  69.722  1.00  0.00     0.000 HD 
HETATM   38  O   UNK A   1      -5.805   9.598  67.613  1.00  0.00    -0.044 OA 
HETATM   39  C   UNK A   1      -6.396   9.739  68.679  1.00  0.00    -0.046 C  
BRANCH  39  40
HETATM   40  C   UNK A   1      -6.047   8.857  69.868  1.00  0.00    -0.034 C  
BRANCH  40  41
HETATM   41  C   UNK A   1      -7.207   8.459  70.800  1.00  0.00    -0.055 C  
BRANCH  41  42
HETATM   42  C   UNK A   1      -7.944   7.146  70.501  1.00  0.00    -0.105 C  
HETATM   43  N   UNK A   1      -9.372   7.192  70.914  1.00  0.00    -0.160 NA 
HETATM   44  C   UNK A   1      -7.292   6.007  71.262  1.00  0.00    -0.080 C  
HETATM   45  O   UNK A   1      -6.274   5.395  70.989  1.00  0.00    -0.027 OA 
HETATM   46  O   UNK A   1      -7.990   5.781  72.398  1.00  0.00    -0.102 OA 
HETATM   47  H2  UNK A   1      -9.851   7.987  70.493  1.00  0.00     0.000 HD 
HETATM   48  H1  UNK A   1      -9.861   6.319  70.715  1.00  0.00     0.000 HD 
ENDBRANCH  41  42
ENDBRANCH  40  41
ENDBRANCH  39  40
ENDBRANCH  27  36
ENDBRANCH  26  27
ENDBRANCH  25  26
ENDBRANCH  24  25
ENDBRANCH  23  24
ENDBRANCH  14  23
ENDBRANCH  11  14
ENDBRANCH   9  10
ENDBRANCH   8   9
ENDBRANCH   4   8
TORSDOF 17
ENDMDL
MODEL      277
REMARK 921   NORMALIZED FREE ENERGY PREDICTED BY IDOCK:   -2.94 KCAL/MOL
REMARK 922        TOTAL FREE ENERGY PREDICTED BY IDOCK:   -8.83 KCAL/MOL
REMARK 923 INTER-LIGAND FREE ENERGY PREDICTED BY IDOCK:   -9.02 KCAL/MOL
REMARK 924 INTRA-LIGAND FREE ENERGY PREDICTED BY IDOCK:    0.19 KCAL/MOL
REMARK 927      BINDING AFFINITY PREDICTED BY RF-SCORE:    0.00 PKD
ROOT
HETATM    1  N   UNK A   1      -7.402  13.786  68.712  1.00  0.00    -0.109 NA 
HETATM    2  H1  UNK A   1      -8.317  14.238  68.714  1.00  0.00     0.000 HD 
HETATM    3  H2  UNK A   1      -6.668  14.457  68.938  1.00  0.00     0.000 HD 
HETATM    4  C   UNK A   1      -7.092  13.074  67.443  1.00  0.00    -0.117 C  
HETATM    5  O   UNK A   1      -8.140  11.096  66.431  1.00  0.00    -0.163 OA 
HETATM    6  C   UNK A   1      -8.232  12.086  67.140  1.00  0.00    -0.181 C  
HETATM    7  O   UNK A   1      -9.377  12.459  67.767  1.00  0.00    -0.183 OA 
ENDROOT
BRANCH   4   8
HETATM    8  C   UNK A   1      -5.720  12.396  67.442  1.00  0.00    -0.134 C  
BRANCH   8   9
HETATM    9  C   UNK A   1      -5.127  12.134  68.828  1.00  0.00    -0.050 C  
BRANCH   9  10
HETATM   10  C   UNK A   1      -6.110  11.349  69.665  1.00  0.00    -0.110 C  
HETATM   11  N   UNK A   1      -6.467  10.129  69.130  1.00  0.00    -0.047 N  
HETATM   12  O   UNK A   1      -6.578  11.788  70.712  1.00  0.00     0.142 OA 
HETATM   13  H   UNK A   1      -6.093   9.836  68.228  1.00  0.00     0.000 HD 
BRANCH  11  14
HETATM   14  C   UNK A   1      -7.389   9.255  69.868  1.00  0.00    -0.074 C  
BRANCH  14  15
HETATM   15  C   UNK A   1      -7.692   8.014  69.004  1.00  0.00    -0.100 C  
ATOM     16  H   GLY A   2      -6.840   8.959  67.372  1.00  0.00     0.000 HD 
ATOM     17  N   GLY A   2      -7.273   8.094  67.694  1.00  0.00    -0.090 N  
HETATM   18  O   UNK A   1      -8.278   7.036  69.440  1.00  0.00    -0.128 OA 
BRANCH  17  19
ATOM     19  CA  GLY A   2      -7.423   6.998  66.753  1.00  0.00    -0.082 C  
ATOM     20  C   GLY A   2      -7.967   7.401  65.392  1.00  0.00    -0.125 C  
ATOM     21  O   GLY A   2      -8.746   8.524  65.388  1.00  0.00    -0.175 OA 
ATOM     22  OXT GLY A   2      -7.792   6.752  64.371  1.00  0.00    -0.108 OA 
ENDBRANCH  17  19
ENDBRANCH  14  15
BRANCH  14  23
HETATM   23  C   UNK A   1      -8.677  10.012  70.237  1.00  0.00     0.119 C  
BRANCH  23  24
HETATM   24  S   UNK A   1     -10.167   9.557  69.295  1.00  0.00    -0.214 SA 
BRANCH  24  25
HETATM   25  S   UNK A   1     -11.626  10.616  70.270  1.00  0.00    -0.355 SA 
BRANCH  25  26
HETATM   26  C   UNK A   1     -12.403  11.550  68.905  1.00  0.00     0.134 C  
BRANCH  26  27
HETATM   27  C   UNK A   1     -11.843  12.965  68.672  1.00  0.00    -0.312 C  
BRANCH  27  28
HETATM   28  C   UNK A   1     -11.902  13.337  67.160  1.00  0.00    -0.374 C  
ATOM     29  H   GLY A   2     -11.190  15.265  67.535  1.00  0.00     0.000 HD 
ATOM     30  N   GLY A   2     -11.459  14.598  66.812  1.00  0.00    -0.361 N  
HETATM   31  O   UNK A   1     -12.204  12.522  66.290  1.00  0.00    -0.600 OA 
BRANCH  30  32
ATOM     32  CA  GLY A   2     -11.379  14.968  65.405  1.00  0.00    -0.328 C  
ATOM     33  OXT GLY A   2     -11.452  16.972  64.010  1.00  0.00    -0.983 OA 
ATOM     34  C   GLY A   2     -11.102  16.437  65.055  1.00  0.00    -0.208 C  
ATOM     35  O   GLY A   2     -10.251  17.058  65.893  1.00  0.00    -0.439 OA 
ENDBRANCH  30  32
ENDBRANCH  27  28
BRANCH  27  36
HETATM   36  N   UNK A   1     -12.276  13.975  69.662  1.00  0.00    -0.346 N  
HETATM   37  H   UNK A   1     -13.232  13.940  70.016  1.00  0.00     0.000 HD 
HETATM   38  O   UNK A   1     -10.235  14.997  69.860  1.00  0.00    -0.183 OA 
HETATM   39  C   UNK A   1     -11.433  14.960  70.122  1.00  0.00    -0.279 C  
BRANCH  39  40
HETATM   40  C   UNK A   1     -12.031  15.953  71.106  1.00  0.00    -0.472 C  
BRANCH  40  41
HETATM   41  C   UNK A   1     -13.564  15.938  71.262  1.00  0.00     0.215 C  
BRANCH  41  42
HETATM   42  C   UNK A   1     -14.140  15.408  72.583  1.00  0.00    -0.427 C  
HETATM   43  N   UNK A   1     -13.725  16.230  73.751  1.00  0.00    -0.776 NA 
HETATM   44  C   UNK A   1     -13.644  13.995  72.829  1.00  0.00    -0.406 C  
HETATM   45  O   UNK A   1     -14.044  12.954  72.339  1.00  0.00    -0.476 OA 
HETATM   46  O   UNK A   1     -12.583  14.041  73.666  1.00  0.00    -0.114 OA 
HETATM   47  H2  UNK A   1     -13.963  17.212  73.613  1.00  0.00     0.000 HD 
HETATM   48  H1  UNK A   1     -14.107  15.879  74.628  1.00  0.00     0.000 HD 
ENDBRANCH  41  42
ENDBRANCH  40  41
ENDBRANCH  39  40
ENDBRANCH  27  36
ENDBRANCH  26  27
ENDBRANCH  25  26
ENDBRANCH  24  25
ENDBRANCH  23  24
ENDBRANCH  14  23
ENDBRANCH  11  14
ENDBRANCH   9  10
ENDBRANCH   8   9
ENDBRANCH   4   8
TORSDOF 17
ENDMDL
MODEL      278
REMARK 921   NORMALIZED FREE ENERGY PREDICTED BY IDOCK:   -2.92 KCAL/MOL
REMARK 922        TOTAL FREE ENERGY PREDICTED BY IDOCK:   -8.79 KCAL/MOL
REMARK 923 INTER-LIGAND FREE ENERGY PREDICTED BY IDOCK:   -8.21 KCAL/MOL
REMARK 924 INTRA-LIGAND FREE ENERGY PREDICTED BY IDOCK:   -0.58 KCAL/MOL
REMARK 927      BINDING AFFINITY PREDICTED BY RF-SCORE:    0.00 PKD
ROOT
HETATM    1  N   UNK A   1      -9.132  18.523  65.756  1.00  0.00    -0.318 NA 
HETATM    2  H1  UNK A   1      -8.981  18.465  64.749  1.00  0.00     0.000 HD 
HETATM    3  H2  UNK A   1     -10.110  18.726  65.963  1.00  0.00     0.000 HD 
HETATM    4  C   UNK A   1      -8.237  19.497  66.436  1.00  0.00    -0.333 C  
HETATM    5  O   UNK A   1      -5.799  19.476  66.739  1.00  0.00    -0.171 OA 
HETATM    6  C   UNK A   1      -6.778  19.159  66.082  1.00  0.00    -0.220 C  
HETATM    7  O   UNK A   1      -6.711  18.451  64.926  1.00  0.00    -0.402 OA 
ENDROOT
BRANCH   4   8
HETATM    8  C   UNK A   1      -8.463  19.584  67.947  1.00  0.00    -0.353 C  
BRANCH   8   9
HETATM    9  C   UNK A   1      -8.402  18.247  68.688  1.00  0.00    -0.305 C  
BRANCH   9  10
HETATM   10  C   UNK A   1      -9.772  17.609  68.706  1.00  0.00    -0.311 C  
HETATM   11  N   UNK A   1      -9.822  16.351  68.143  1.00  0.00    -0.234 N  
HETATM   12  O   UNK A   1     -10.760  18.187  69.149  1.00  0.00     0.113 OA 
HETATM   13  H   UNK A   1      -8.984  15.938  67.736  1.00  0.00     0.000 HD 
BRANCH  11  14
HETATM   14  C   UNK A   1     -11.091  15.611  68.133  1.00  0.00    -0.330 C  
BRANCH  14  15
HETATM   15  C   UNK A   1     -11.191  14.784  69.431  1.00  0.00    -0.284 C  
ATOM     16  H   GLY A   2     -13.178  14.388  69.010  1.00  0.00     0.000 HD 
ATOM     17  N   GLY A   2     -12.419  14.206  69.666  1.00  0.00    -0.253 N  
HETATM   18  O   UNK A   1     -10.258  14.664  70.209  1.00  0.00     0.224 OA 
BRANCH  17  19
ATOM     19  CA  GLY A   2     -12.679  13.347  70.808  1.00  0.00    -0.228 C  
ATOM     20  C   GLY A   2     -12.918  14.086  72.115  1.00  0.00    -0.369 C  
ATOM     21  O   GLY A   2     -12.331  15.317  72.202  1.00  0.00    -0.317 OA 
ATOM     22  OXT GLY A   2     -13.531  13.612  73.060  1.00  0.00    -0.573 OA 
ENDBRANCH  17  19
ENDBRANCH  14  15
BRANCH  14  23
HETATM   23  C   UNK A   1     -11.187  14.714  66.886  1.00  0.00    -0.343 C  
BRANCH  23  24
HETATM   24  S   UNK A   1     -10.376  13.088  67.008  1.00  0.00    -0.249 SA 
BRANCH  24  25
HETATM   25  S   UNK A   1      -8.404  13.610  67.212  1.00  0.00    -0.140 SA 
BRANCH  25  26
HETATM   26  C   UNK A   1      -7.864  12.547  68.597  1.00  0.00    -0.048 C  
BRANCH  26  27
HETATM   27  C   UNK A   1      -7.787  11.041  68.282  1.00  0.00    -0.121 C  
BRANCH  27  28
HETATM   28  C   UNK A   1      -7.723  10.208  69.597  1.00  0.00    -0.163 C  
ATOM     29  H   GLY A   2      -5.637  10.122  69.521  1.00  0.00     0.000 HD 
ATOM     30  N   GLY A   2      -6.465   9.887  70.068  1.00  0.00    -0.070 N  
HETATM   31  O   UNK A   1      -8.722   9.949  70.265  1.00  0.00    -0.183 OA 
BRANCH  30  32
ATOM     32  CA  GLY A   2      -6.331   9.211  71.352  1.00  0.00    -0.077 C  
ATOM     33  OXT GLY A   2      -6.529   6.964  72.290  1.00  0.00    -0.055 OA 
ATOM     34  C   GLY A   2      -6.194   7.682  71.355  1.00  0.00    -0.035 C  
ATOM     35  O   GLY A   2      -5.476   7.184  70.331  1.00  0.00    -0.023 OA 
ENDBRANCH  30  32
ENDBRANCH  27  28
BRANCH  27  36
HETATM   36  N   UNK A   1      -8.693  10.586  67.205  1.00  0.00    -0.130 N  
HETATM   37  H   UNK A   1      -9.583  11.067  67.072  1.00  0.00     0.000 HD 
HETATM   38  O   UNK A   1      -7.277   8.991  66.369  1.00  0.00    -0.085 OA 
HETATM   39  C   UNK A   1      -8.376   9.536  66.375  1.00  0.00    -0.119 C  
BRANCH  39  40
HETATM   40  C   UNK A   1      -9.424   9.154  65.342  1.00  0.00    -0.231 C  
BRANCH  40  41
HETATM   41  C   UNK A   1     -10.506  10.205  65.029  1.00  0.00     0.094 C  
BRANCH  41  42
HETATM   42  C   UNK A   1     -10.535  10.797  63.612  1.00  0.00    -0.111 C  
HETATM   43  N   UNK A   1      -9.180  10.872  63.003  1.00  0.00    -0.285 NA 
HETATM   44  C   UNK A   1     -11.087  12.210  63.658  1.00  0.00    -0.457 C  
HETATM   45  O   UNK A   1     -12.248  12.569  63.738  1.00  0.00    -0.453 OA 
HETATM   46  O   UNK A   1     -10.055  13.084  63.670  1.00  0.00    -0.264 OA 
HETATM   47  H2  UNK A   1      -8.721   9.962  63.012  1.00  0.00     0.000 HD 
HETATM   48  H1  UNK A   1      -9.200  11.266  62.062  1.00  0.00     0.000 HD 
ENDBRANCH  41  42
ENDBRANCH  40  41
ENDBRANCH  39  40
ENDBRANCH  27  36
ENDBRANCH  26  27
ENDBRANCH  25  26
ENDBRANCH  24  25
ENDBRANCH  23  24
ENDBRANCH  14  23
ENDBRANCH  11  14
ENDBRANCH   9  10
ENDBRANCH   8   9
ENDBRANCH   4   8
TORSDOF 17
ENDMDL
MODEL      279
REMARK 921   NORMALIZED FREE ENERGY PREDICTED BY IDOCK:   -2.90 KCAL/MOL
REMARK 922        TOTAL FREE ENERGY PREDICTED BY IDOCK:   -8.75 KCAL/MOL
REMARK 923 INTER-LIGAND FREE ENERGY PREDICTED BY IDOCK:   -7.11 KCAL/MOL
REMARK 924 INTRA-LIGAND FREE ENERGY PREDICTED BY IDOCK:   -1.64 KCAL/MOL
REMARK 927      BINDING AFFINITY PREDICTED BY RF-SCORE:    0.00 PKD
ROOT
HETATM    1  N   UNK A   1     -10.664  14.768  67.453  1.00  0.00    -0.275 NA 
HETATM    2  H1  UNK A   1     -10.226  15.324  66.719  1.00  0.00     0.000 HD 
HETATM    3  H2  UNK A   1     -10.059  14.712  68.273  1.00  0.00     0.000 HD 
HETATM    4  C   UNK A   1     -11.072  13.409  67.006  1.00  0.00    -0.292 C  
HETATM    5  O   UNK A   1     -12.774  12.714  65.377  1.00  0.00    -0.635 OA 
HETATM    6  C   UNK A   1     -11.969  13.546  65.763  1.00  0.00    -0.403 C  
HETATM    7  O   UNK A   1     -11.749  14.729  65.135  1.00  0.00    -0.358 OA 
ENDROOT
BRANCH   4   8
HETATM    8  C   UNK A   1     -11.730  12.575  68.107  1.00  0.00    -0.400 C  
BRANCH   8   9
HETATM    9  C   UNK A   1     -11.393  11.083  68.077  1.00  0.00    -0.374 C  
BRANCH   9  10
HETATM   10  C   UNK A   1     -11.365  10.535  69.484  1.00  0.00    -0.278 C  
HETATM   11  N   UNK A   1     -10.600   9.398  69.638  1.00  0.00    -0.218 N  
HETATM   12  O   UNK A   1     -12.007  11.043  70.399  1.00  0.00    -0.310 OA 
HETATM   13  H   UNK A   1     -10.132   8.982  68.833  1.00  0.00     0.000 HD 
BRANCH  11  14
HETATM   14  C   UNK A   1     -10.464   8.790  70.968  1.00  0.00    -0.230 C  
BRANCH  14  15
HETATM   15  C   UNK A   1      -8.995   8.916  71.421  1.00  0.00    -0.229 C  
ATOM     16  H   GLY A   2      -9.309   7.417  72.813  1.00  0.00     0.000 HD 
ATOM     17  N   GLY A   2      -8.610   8.045  72.417  1.00  0.00    -0.147 N  
HETATM   18  O   UNK A   1      -8.229   9.742  70.949  1.00  0.00    -0.234 OA 
BRANCH  17  19
ATOM     19  CA  GLY A   2      -7.251   7.984  72.926  1.00  0.00    -0.103 C  
ATOM     20  C   GLY A   2      -6.810   6.605  73.391  1.00  0.00    -0.076 C  
ATOM     21  O   GLY A   2      -7.820   5.783  73.806  1.00  0.00    -0.103 OA 
ATOM     22  OXT GLY A   2      -5.642   6.255  73.462  1.00  0.00    -0.040 OA 
ENDBRANCH  17  19
ENDBRANCH  14  15
BRANCH  14  23
HETATM   23  C   UNK A   1     -10.920   7.321  70.943  1.00  0.00    -0.253 C  
BRANCH  23  24
HETATM   24  S   UNK A   1      -9.761   6.138  70.187  1.00  0.00    -0.165 SA 
BRANCH  24  25
HETATM   25  S   UNK A   1     -10.715   5.667  68.435  1.00  0.00    -0.081 SA 
BRANCH  25  26
HETATM   26  C   UNK A   1     -10.499   7.195  67.455  1.00  0.00    -0.284 C  
BRANCH  26  27
HETATM   27  C   UNK A   1      -9.342   7.169  66.439  1.00  0.00    -0.143 C  
BRANCH  27  28
HETATM   28  C   UNK A   1      -8.534   8.499  66.493  1.00  0.00    -0.115 C  
ATOM     29  H   GLY A   2      -8.193   8.458  64.433  1.00  0.00     0.000 HD 
ATOM     30  N   GLY A   2      -8.072   8.996  65.291  1.00  0.00    -0.120 N  
HETATM   31  O   UNK A   1      -8.411   9.156  67.525  1.00  0.00    -0.115 OA 
BRANCH  30  32
ATOM     32  CA  GLY A   2      -7.409  10.293  65.256  1.00  0.00    -0.139 C  
ATOM     33  OXT GLY A   2      -5.181  11.243  65.571  1.00  0.00    -0.268 OA 
ATOM     34  C   GLY A   2      -5.877  10.324  65.159  1.00  0.00    -0.129 C  
ATOM     35  O   GLY A   2      -5.349   9.354  64.389  1.00  0.00    -0.056 OA 
ENDBRANCH  30  32
ENDBRANCH  27  28
BRANCH  27  36
HETATM   36  N   UNK A   1      -8.595   5.893  66.382  1.00  0.00    -0.123 N  
HETATM   37  H   UNK A   1      -7.987   5.643  67.161  1.00  0.00     0.000 HD 
HETATM   38  O   UNK A   1      -9.500   5.182  64.401  1.00  0.00     0.139 OA 
HETATM   39  C   UNK A   1      -8.694   5.033  65.313  1.00  0.00    -0.149 C  
BRANCH  39  40
HETATM   40  C   UNK A   1      -7.834   3.780  65.376  1.00  0.00    -0.089 C  
BRANCH  40  41
HETATM   41  C   UNK A   1      -8.224   2.723  66.426  1.00  0.00    -0.086 C  
BRANCH  41  42
HETATM   42  C   UNK A   1      -7.285   2.530  67.626  1.00  0.00    -0.052 C  
HETATM   43  N   UNK A   1      -7.919   1.747  68.720  1.00  0.00    -0.049 NA 
HETATM   44  C   UNK A   1      -6.907   3.882  68.202  1.00  0.00    -0.047 C  
HETATM   45  O   UNK A   1      -6.079   4.677  67.794  1.00  0.00    -0.029 OA 
HETATM   46  O   UNK A   1      -7.704   4.147  69.261  1.00  0.00    -0.054 OA 
HETATM   47  H2  UNK A   1      -8.267   0.851  68.377  1.00  0.00     0.000 HD 
HETATM   48  H1  UNK A   1      -7.296   1.619  69.517  1.00  0.00     0.000 HD 
ENDBRANCH  41  42
ENDBRANCH  40  41
ENDBRANCH  39  40
ENDBRANCH  27  36
ENDBRANCH  26  27
ENDBRANCH  25  26
ENDBRANCH  24  25
ENDBRANCH  23  24
ENDBRANCH  14  23
ENDBRANCH  11  14
ENDBRANCH   9  10
ENDBRANCH   8   9
ENDBRANCH   4   8
TORSDOF 17
ENDMDL
MODEL      280
REMARK 921   NORMALIZED FREE ENERGY PREDICTED BY IDOCK:   -2.86 KCAL/MOL
REMARK 922        TOTAL FREE ENERGY PREDICTED BY IDOCK:   -8.67 KCAL/MOL
REMARK 923 INTER-LIGAND FREE ENERGY PREDICTED BY IDOCK:   -8.08 KCAL/MOL
REMARK 924 INTRA-LIGAND FREE ENERGY PREDICTED BY IDOCK:   -0.59 KCAL/MOL
REMARK 927      BINDING AFFINITY PREDICTED BY RF-SCORE:    0.00 PKD
ROOT
HETATM    1  N   UNK A   1      -8.867  18.281  66.182  1.00  0.00    -0.494 NA 
HETATM    2  H1  UNK A   1      -8.751  19.098  65.582  1.00  0.00     0.000 HD 
HETATM    3  H2  UNK A   1      -8.970  17.434  65.622  1.00  0.00     0.000 HD 
HETATM    4  C   UNK A   1      -9.988  18.409  67.151  1.00  0.00    -0.337 C  
HETATM    5  O   UNK A   1     -10.276  19.928  69.060  1.00  0.00    -0.432 OA 
HETATM    6  C   UNK A   1      -9.797  19.704  67.960  1.00  0.00    -0.415 C  
HETATM    7  O   UNK A   1      -9.017  20.586  67.285  1.00  0.00    -0.356 OA 
ENDROOT
BRANCH   4   8
HETATM    8  C   UNK A   1     -10.162  17.183  68.051  1.00  0.00    -0.332 C  
BRANCH   8   9
HETATM    9  C   UNK A   1     -10.899  16.008  67.406  1.00  0.00    -0.277 C  
BRANCH   9  10
HETATM   10  C   UNK A   1      -9.901  15.039  66.815  1.00  0.00    -0.243 C  
HETATM   11  N   UNK A   1      -9.923  13.782  67.382  1.00  0.00    -0.234 N  
HETATM   12  O   UNK A   1      -9.112  15.366  65.933  1.00  0.00    -0.311 OA 
HETATM   13  H   UNK A   1     -10.558  13.578  68.152  1.00  0.00     0.000 HD 
BRANCH  11  14
HETATM   14  C   UNK A   1      -9.024  12.740  66.869  1.00  0.00    -0.213 C  
BRANCH  14  15
HETATM   15  C   UNK A   1      -9.830  11.801  65.949  1.00  0.00    -0.238 C  
ATOM     16  H   GLY A   2      -8.143  11.512  64.786  1.00  0.00     0.000 HD 
ATOM     17  N   GLY A   2      -9.120  11.245  64.909  1.00  0.00    -0.110 N  
HETATM   18  O   UNK A   1     -11.019  11.578  66.115  1.00  0.00    -0.287 OA 
BRANCH  17  19
ATOM     19  CA  GLY A   2      -9.702  10.293  63.979  1.00  0.00    -0.278 C  
ATOM     20  C   GLY A   2      -8.737   9.758  62.932  1.00  0.00    -0.229 C  
ATOM     21  O   GLY A   2      -7.696  10.589  62.624  1.00  0.00    -0.150 OA 
ATOM     22  OXT GLY A   2      -8.893   8.698  62.345  1.00  0.00    -0.169 OA 
ENDBRANCH  17  19
ENDBRANCH  14  15
BRANCH  14  23
HETATM   23  C   UNK A   1      -8.370  11.967  68.028  1.00  0.00    -0.162 C  
BRANCH  23  24
HETATM   24  S   UNK A   1      -8.751  10.189  68.117  1.00  0.00    -0.124 SA 
BRANCH  24  25
HETATM   25  S   UNK A   1      -6.939   9.393  68.654  1.00  0.00    -0.065 SA 
BRANCH  25  26
HETATM   26  C   UNK A   1      -7.312   8.646  70.280  1.00  0.00    -0.054 C  
BRANCH  26  27
HETATM   27  C   UNK A   1      -7.766   7.175  70.242  1.00  0.00    -0.095 C  
BRANCH  27  28
HETATM   28  C   UNK A   1      -9.044   6.972  71.109  1.00  0.00    -0.153 C  
ATOM     29  H   GLY A   2      -8.904   4.894  70.952  1.00  0.00     0.000 HD 
ATOM     30  N   GLY A   2      -9.411   5.669  71.380  1.00  0.00    -0.146 N  
HETATM   31  O   UNK A   1      -9.637   7.909  71.641  1.00  0.00    -0.154 OA 
BRANCH  30  32
ATOM     32  CA  GLY A   2     -10.528   5.410  72.280  1.00  0.00    -0.219 C  
ATOM     33  OXT GLY A   2     -11.377   3.619  73.707  1.00  0.00    -0.194 OA 
ATOM     34  C   GLY A   2     -10.416   4.227  73.252  1.00  0.00    -0.186 C  
ATOM     35  O   GLY A   2      -9.180   4.028  73.748  1.00  0.00    -0.094 OA 
ENDBRANCH  30  32
ENDBRANCH  27  28
BRANCH  27  36
HETATM   36  N   UNK A   1      -7.716   6.546  68.904  1.00  0.00    -0.107 N  
HETATM   37  H   UNK A   1      -8.059   7.069  68.099  1.00  0.00     0.000 HD 
HETATM   38  O   UNK A   1      -6.665   4.629  69.589  1.00  0.00    -0.041 OA 
HETATM   39  C   UNK A   1      -7.223   5.277  68.709  1.00  0.00    -0.065 C  
BRANCH  39  40
HETATM   40  C   UNK A   1      -7.275   4.745  67.285  1.00  0.00    -0.073 C  
BRANCH  40  41
HETATM   41  C   UNK A   1      -8.439   5.237  66.403  1.00  0.00    -0.113 C  
BRANCH  41  42
HETATM   42  C   UNK A   1      -9.841   4.690  66.706  1.00  0.00    -0.218 C  
HETATM   43  N   UNK A   1     -10.820   5.774  66.991  1.00  0.00    -0.455 NA 
HETATM   44  C   UNK A   1      -9.790   3.796  67.931  1.00  0.00     0.041 C  
HETATM   45  O   UNK A   1      -9.418   2.639  68.011  1.00  0.00    -0.211 OA 
HETATM   46  O   UNK A   1     -10.171   4.512  69.013  1.00  0.00    -0.079 OA 
HETATM   47  H2  UNK A   1     -10.846   6.455  66.233  1.00  0.00     0.000 HD 
HETATM   48  H1  UNK A   1     -11.752   5.411  67.192  1.00  0.00     0.000 HD 
ENDBRANCH  41  42
ENDBRANCH  40  41
ENDBRANCH  39  40
ENDBRANCH  27  36
ENDBRANCH  26  27
ENDBRANCH  25  26
ENDBRANCH  24  25
ENDBRANCH  23  24
ENDBRANCH  14  23
ENDBRANCH  11  14
ENDBRANCH   9  10
ENDBRANCH   8   9
ENDBRANCH   4   8
TORSDOF 17
ENDMDL
MODEL      281
REMARK 921   NORMALIZED FREE ENERGY PREDICTED BY IDOCK:   -2.80 KCAL/MOL
REMARK 922        TOTAL FREE ENERGY PREDICTED BY IDOCK:   -8.56 KCAL/MOL
REMARK 923 INTER-LIGAND FREE ENERGY PREDICTED BY IDOCK:   -7.11 KCAL/MOL
REMARK 924 INTRA-LIGAND FREE ENERGY PREDICTED BY IDOCK:   -1.45 KCAL/MOL
REMARK 927      BINDING AFFINITY PREDICTED BY RF-SCORE:    0.00 PKD
ROOT
HETATM    1  N   UNK A   1     -12.170  14.532  67.668  1.00  0.00    -0.614 NA 
HETATM    2  H1  UNK A   1     -12.470  15.270  67.032  1.00  0.00     0.000 HD 
HETATM    3  H2  UNK A   1     -12.727  13.688  67.529  1.00  0.00     0.000 HD 
HETATM    4  C   UNK A   1     -12.181  14.940  69.099  1.00  0.00    -0.159 C  
HETATM    5  O   UNK A   1     -10.822  16.603  70.290  1.00  0.00    -0.269 OA 
HETATM    6  C   UNK A   1     -11.343  16.220  69.254  1.00  0.00    -0.288 C  
HETATM    7  O   UNK A   1     -11.253  16.887  68.075  1.00  0.00    -0.271 OA 
ENDROOT
BRANCH   4   8
HETATM    8  C   UNK A   1     -11.731  13.831  70.054  1.00  0.00    -0.327 C  
BRANCH   8   9
HETATM    9  C   UNK A   1     -12.149  12.417  69.645  1.00  0.00    -0.271 C  
BRANCH   9  10
HETATM   10  C   UNK A   1     -10.950  11.659  69.126  1.00  0.00    -0.219 C  
HETATM   11  N   UNK A   1     -10.646  10.517  69.837  1.00  0.00    -0.400 N  
HETATM   12  O   UNK A   1     -10.283  12.057  68.175  1.00  0.00    -0.189 OA 
HETATM   13  H   UNK A   1     -11.197  10.261  70.655  1.00  0.00     0.000 HD 
BRANCH  11  14
HETATM   14  C   UNK A   1      -9.523   9.673  69.408  1.00  0.00    -0.192 C  
BRANCH  14  15
HETATM   15  C   UNK A   1     -10.063   8.271  69.061  1.00  0.00    -0.202 C  
ATOM     16  H   GLY A   2     -10.036   7.777  71.070  1.00  0.00     0.000 HD 
ATOM     17  N   GLY A   2     -10.279   7.441  70.138  1.00  0.00    -0.202 N  
HETATM   18  O   UNK A   1     -10.267   7.910  67.912  1.00  0.00    -0.189 OA 
BRANCH  17  19
ATOM     19  CA  GLY A   2     -10.838   6.107  70.004  1.00  0.00    -0.341 C  
ATOM     20  C   GLY A   2      -9.840   4.978  70.204  1.00  0.00    -0.233 C  
ATOM     21  O   GLY A   2      -8.541   5.294  69.919  1.00  0.00    -0.099 OA 
ATOM     22  OXT GLY A   2     -10.155   3.844  70.530  1.00  0.00    -0.093 OA 
ENDBRANCH  17  19
ENDBRANCH  14  15
BRANCH  14  23
HETATM   23  C   UNK A   1      -8.445   9.605  70.504  1.00  0.00    -0.080 C  
BRANCH  23  24
HETATM   24  S   UNK A   1      -7.087   8.427  70.216  1.00  0.00    -0.041 SA 
BRANCH  24  25
HETATM   25  S   UNK A   1      -5.515   9.680  69.815  1.00  0.00    -0.033 SA 
BRANCH  25  26
HETATM   26  C   UNK A   1      -6.248  10.850  68.617  1.00  0.00    -0.043 C  
BRANCH  26  27
HETATM   27  C   UNK A   1      -5.259  11.472  67.614  1.00  0.00    -0.053 C  
BRANCH  27  28
HETATM   28  C   UNK A   1      -5.322  10.728  66.247  1.00  0.00    -0.094 C  
ATOM     29  H   GLY A   2      -5.813   8.922  67.175  1.00  0.00     0.000 HD 
ATOM     30  N   GLY A   2      -5.682   9.395  66.281  1.00  0.00    -0.052 N  
HETATM   31  O   UNK A   1      -5.187  11.308  65.172  1.00  0.00    -0.242 OA 
BRANCH  30  32
ATOM     32  CA  GLY A   2      -5.873   8.671  65.031  1.00  0.00    -0.048 C  
ATOM     33  OXT GLY A   2      -6.216   6.382  64.252  1.00  0.00    -0.029 OA 
ATOM     34  C   GLY A   2      -6.428   7.241  65.099  1.00  0.00    -0.040 C  
ATOM     35  O   GLY A   2      -7.353   7.047  66.057  1.00  0.00    -0.072 OA 
ENDBRANCH  30  32
ENDBRANCH  27  28
BRANCH  27  36
HETATM   36  N   UNK A   1      -5.230  12.952  67.609  1.00  0.00    -0.109 N  
HETATM   37  H   UNK A   1      -4.810  13.434  66.814  1.00  0.00     0.000 HD 
HETATM   38  O   UNK A   1      -6.394  13.213  69.564  1.00  0.00    -0.110 OA 
HETATM   39  C   UNK A   1      -5.751  13.698  68.640  1.00  0.00    -0.087 C  
BRANCH  39  40
HETATM   40  C   UNK A   1      -5.610  15.208  68.516  1.00  0.00    -0.098 C  
BRANCH  40  41
HETATM   41  C   UNK A   1      -6.334  15.877  67.331  1.00  0.00    -0.196 C  
BRANCH  41  42
HETATM   42  C   UNK A   1      -7.668  16.581  67.617  1.00  0.00    -0.149 C  
HETATM   43  N   UNK A   1      -8.680  16.327  66.558  1.00  0.00    -0.261 NA 
HETATM   44  C   UNK A   1      -7.451  18.082  67.682  1.00  0.00    -0.213 C  
HETATM   45  O   UNK A   1      -7.004  18.746  68.600  1.00  0.00    -0.263 OA 
HETATM   46  O   UNK A   1      -7.774  18.624  66.486  1.00  0.00    -0.239 OA 
HETATM   47  H2  UNK A   1      -8.816  15.327  66.411  1.00  0.00     0.000 HD 
HETATM   48  H1  UNK A   1      -9.566  16.795  66.748  1.00  0.00     0.000 HD 
ENDBRANCH  41  42
ENDBRANCH  40  41
ENDBRANCH  39  40
ENDBRANCH  27  36
ENDBRANCH  26  27
ENDBRANCH  25  26
ENDBRANCH  24  25
ENDBRANCH  23  24
ENDBRANCH  14  23
ENDBRANCH  11  14
ENDBRANCH   9  10
ENDBRANCH   8   9
ENDBRANCH   4   8
TORSDOF 17
ENDMDL
MODEL      282
REMARK 921   NORMALIZED FREE ENERGY PREDICTED BY IDOCK:   -2.78 KCAL/MOL
REMARK 922        TOTAL FREE ENERGY PREDICTED BY IDOCK:   -8.52 KCAL/MOL
REMARK 923 INTER-LIGAND FREE ENERGY PREDICTED BY IDOCK:   -7.46 KCAL/MOL
REMARK 924 INTRA-LIGAND FREE ENERGY PREDICTED BY IDOCK:   -1.06 KCAL/MOL
REMARK 927      BINDING AFFINITY PREDICTED BY RF-SCORE:    0.00 PKD
ROOT
HETATM    1  N   UNK A   1      -9.376  20.058  65.125  1.00  0.00     0.114 NA 
HETATM    2  H1  UNK A   1      -8.948  20.098  64.199  1.00  0.00     0.000 HD 
HETATM    3  H2  UNK A   1     -10.319  20.446  65.103  1.00  0.00     0.000 HD 
HETATM    4  C   UNK A   1      -8.562  20.711  66.185  1.00  0.00     0.354 C  
HETATM    5  O   UNK A   1      -6.366  20.107  67.104  1.00  0.00    -0.192 OA 
HETATM    6  C   UNK A   1      -7.148  20.104  66.167  1.00  0.00    -0.276 C  
HETATM    7  O   UNK A   1      -6.871  19.554  64.957  1.00  0.00    -0.408 OA 
ENDROOT
BRANCH   4   8
HETATM    8  C   UNK A   1      -9.203  20.651  67.572  1.00  0.00    -0.394 C  
BRANCH   8   9
HETATM    9  C   UNK A   1      -9.943  19.349  67.887  1.00  0.00    -0.483 C  
BRANCH   9  10
HETATM   10  C   UNK A   1      -9.022  18.402  68.621  1.00  0.00    -0.286 C  
HETATM   11  N   UNK A   1      -9.342  17.069  68.472  1.00  0.00    -0.258 N  
HETATM   12  O   UNK A   1      -8.096  18.798  69.322  1.00  0.00    -0.089 OA 
HETATM   13  H   UNK A   1     -10.158  16.795  67.926  1.00  0.00     0.000 HD 
BRANCH  11  14
HETATM   14  C   UNK A   1      -8.501  16.046  69.108  1.00  0.00    -0.247 C  
BRANCH  14  15
HETATM   15  C   UNK A   1      -7.420  15.599  68.102  1.00  0.00    -0.124 C  
ATOM     16  H   GLY A   2      -6.663  14.292  69.515  1.00  0.00     0.000 HD 
ATOM     17  N   GLY A   2      -6.563  14.621  68.556  1.00  0.00    -0.089 N  
HETATM   18  O   UNK A   1      -7.315  16.089  66.988  1.00  0.00    -0.202 OA 
BRANCH  17  19
ATOM     19  CA  GLY A   2      -5.523  14.040  67.725  1.00  0.00    -0.023 C  
ATOM     20  C   GLY A   2      -5.624  12.534  67.544  1.00  0.00    -0.131 C  
ATOM     21  O   GLY A   2      -6.253  11.868  68.559  1.00  0.00    -0.050 OA 
ATOM     22  OXT GLY A   2      -5.131  11.929  66.604  1.00  0.00    -0.266 OA 
ENDBRANCH  17  19
ENDBRANCH  14  15
BRANCH  14  23
HETATM   23  C   UNK A   1      -9.354  14.857  69.582  1.00  0.00     0.098 C  
BRANCH  23  24
HETATM   24  S   UNK A   1      -9.698  13.575  68.336  1.00  0.00    -0.173 SA 
BRANCH  24  25
HETATM   25  S   UNK A   1     -11.564  14.110  67.677  1.00  0.00    -0.385 SA 
BRANCH  25  26
HETATM   26  C   UNK A   1     -12.207  12.532  67.015  1.00  0.00     0.144 C  
BRANCH  26  27
HETATM   27  C   UNK A   1     -11.654  12.120  65.639  1.00  0.00    -0.351 C  
BRANCH  27  28
HETATM   28  C   UNK A   1     -11.380  13.375  64.758  1.00  0.00    -0.337 C  
ATOM     29  H   GLY A   2     -13.121  14.313  65.431  1.00  0.00     0.000 HD 
ATOM     30  N   GLY A   2     -12.281  14.416  64.864  1.00  0.00    -0.429 N  
HETATM   31  O   UNK A   1     -10.353  13.506  64.095  1.00  0.00    -0.340 OA 
BRANCH  30  32
ATOM     32  CA  GLY A   2     -12.021  15.665  64.157  1.00  0.00    -0.039 C  
ATOM     33  OXT GLY A   2     -11.131  17.895  64.604  1.00  0.00    -0.713 OA 
ATOM     34  C   GLY A   2     -11.084  16.688  64.813  1.00  0.00    -0.110 C  
ATOM     35  O   GLY A   2     -10.050  16.147  65.484  1.00  0.00    -0.435 OA 
ENDBRANCH  30  32
ENDBRANCH  27  28
BRANCH  27  36
HETATM   36  N   UNK A   1     -10.632  11.050  65.676  1.00  0.00    -0.231 N  
HETATM   37  H   UNK A   1      -9.949  10.994  64.921  1.00  0.00     0.000 HD 
HETATM   38  O   UNK A   1     -11.259  10.202  67.709  1.00  0.00    -0.289 OA 
HETATM   39  C   UNK A   1     -10.573  10.129  66.696  1.00  0.00    -0.144 C  
BRANCH  39  40
HETATM   40  C   UNK A   1      -9.495   9.062  66.577  1.00  0.00    -0.266 C  
BRANCH  40  41
HETATM   41  C   UNK A   1      -8.235   9.435  65.772  1.00  0.00    -0.116 C  
BRANCH  41  42
HETATM   42  C   UNK A   1      -7.361   8.288  65.247  1.00  0.00    -0.081 C  
HETATM   43  N   UNK A   1      -7.267   7.160  66.213  1.00  0.00    -0.073 NA 
HETATM   44  C   UNK A   1      -5.949   8.789  65.003  1.00  0.00    -0.059 C  
HETATM   45  O   UNK A   1      -5.523   9.429  64.059  1.00  0.00    -0.060 OA 
HETATM   46  O   UNK A   1      -5.181   8.476  66.072  1.00  0.00    -0.027 OA 
HETATM   47  H2  UNK A   1      -8.193   6.825  66.478  1.00  0.00     0.000 HD 
HETATM   48  H1  UNK A   1      -6.686   6.398  65.864  1.00  0.00     0.000 HD 
ENDBRANCH  41  42
ENDBRANCH  40  41
ENDBRANCH  39  40
ENDBRANCH  27  36
ENDBRANCH  26  27
ENDBRANCH  25  26
ENDBRANCH  24  25
ENDBRANCH  23  24
ENDBRANCH  14  23
ENDBRANCH  11  14
ENDBRANCH   9  10
ENDBRANCH   8   9
ENDBRANCH   4   8
TORSDOF 17
ENDMDL
MODEL      283
REMARK 921   NORMALIZED FREE ENERGY PREDICTED BY IDOCK:   -2.77 KCAL/MOL
REMARK 922        TOTAL FREE ENERGY PREDICTED BY IDOCK:   -8.49 KCAL/MOL
REMARK 923 INTER-LIGAND FREE ENERGY PREDICTED BY IDOCK:   -7.53 KCAL/MOL
REMARK 924 INTRA-LIGAND FREE ENERGY PREDICTED BY IDOCK:   -0.96 KCAL/MOL
REMARK 927      BINDING AFFINITY PREDICTED BY RF-SCORE:    0.00 PKD
ROOT
HETATM    1  N   UNK A   1     -10.854  10.921  64.821  1.00  0.00    -0.182 NA 
HETATM    2  H1  UNK A   1     -10.870  11.813  64.326  1.00  0.00     0.000 HD 
HETATM    3  H2  UNK A   1     -11.363  10.989  65.702  1.00  0.00     0.000 HD 
HETATM    4  C   UNK A   1      -9.483  10.389  65.044  1.00  0.00    -0.253 C  
HETATM    5  O   UNK A   1      -7.801   9.599  63.437  1.00  0.00    -0.125 OA 
HETATM    6  C   UNK A   1      -8.753  10.320  63.691  1.00  0.00    -0.206 C  
HETATM    7  O   UNK A   1      -9.308  11.177  62.796  1.00  0.00    -0.327 OA 
ENDROOT
BRANCH   4   8
HETATM    8  C   UNK A   1      -9.460   9.052  65.786  1.00  0.00    -0.305 C  
BRANCH   8   9
HETATM    9  C   UNK A   1      -8.985   9.126  67.239  1.00  0.00    -0.136 C  
BRANCH   9  10
HETATM   10  C   UNK A   1      -7.535   9.552  67.282  1.00  0.00    -0.091 C  
HETATM   11  N   UNK A   1      -7.268  10.570  68.173  1.00  0.00    -0.085 N  
HETATM   12  O   UNK A   1      -6.683   9.054  66.552  1.00  0.00    -0.073 OA 
HETATM   13  H   UNK A   1      -8.022  10.989  68.715  1.00  0.00     0.000 HD 
BRANCH  11  14
HETATM   14  C   UNK A   1      -5.888  11.048  68.334  1.00  0.00    -0.042 C  
BRANCH  14  15
HETATM   15  C   UNK A   1      -5.554  11.095  69.839  1.00  0.00    -0.073 C  
ATOM     16  H   GLY A   2      -6.138   9.118  70.018  1.00  0.00     0.000 HD 
ATOM     17  N   GLY A   2      -5.753   9.916  70.523  1.00  0.00    -0.054 N  
HETATM   18  O   UNK A   1      -5.160  12.109  70.395  1.00  0.00    -0.084 OA 
BRANCH  17  19
ATOM     19  CA  GLY A   2      -5.437   9.761  71.932  1.00  0.00    -0.018 C  
ATOM     20  C   GLY A   2      -6.483   9.007  72.736  1.00  0.00     0.179 C  
ATOM     21  O   GLY A   2      -7.756   9.074  72.242  1.00  0.00    -0.346 OA 
ATOM     22  OXT GLY A   2      -6.246   8.431  73.788  1.00  0.00    -0.107 OA 
ENDBRANCH  17  19
ENDBRANCH  14  15
BRANCH  14  23
HETATM   23  C   UNK A   1      -5.710  12.427  67.675  1.00  0.00    -0.124 C  
BRANCH  23  24
HETATM   24  S   UNK A   1      -6.458  13.835  68.554  1.00  0.00    -0.105 SA 
BRANCH  24  25
HETATM   25  S   UNK A   1      -8.183  14.135  67.488  1.00  0.00    -0.197 SA 
BRANCH  25  26
HETATM   26  C   UNK A   1      -9.427  14.330  68.812  1.00  0.00    -0.131 C  
BRANCH  26  27
HETATM   27  C   UNK A   1     -10.805  14.843  68.352  1.00  0.00    -0.251 C  
BRANCH  27  28
HETATM   28  C   UNK A   1     -11.864  14.655  69.478  1.00  0.00    -0.330 C  
ATOM     29  H   GLY A   2     -10.514  15.271  70.948  1.00  0.00     0.000 HD 
ATOM     30  N   GLY A   2     -11.477  14.994  70.759  1.00  0.00    -0.290 N  
HETATM   31  O   UNK A   1     -13.031  14.344  69.243  1.00  0.00     0.364 OA 
BRANCH  30  32
ATOM     32  CA  GLY A   2     -12.454  14.953  71.840  1.00  0.00    -0.333 C  
ATOM     33  OXT GLY A   2     -12.605  15.478  74.220  1.00  0.00    -0.589 OA 
ATOM     34  C   GLY A   2     -12.162  15.759  73.113  1.00  0.00    -0.500 C  
ATOM     35  O   GLY A   2     -11.547  16.937  72.898  1.00  0.00    -0.215 OA 
ENDBRANCH  30  32
ENDBRANCH  27  28
BRANCH  27  36
HETATM   36  N   UNK A   1     -10.775  16.129  67.621  1.00  0.00    -0.319 N  
HETATM   37  H   UNK A   1     -11.259  16.198  66.726  1.00  0.00     0.000 HD 
HETATM   38  O   UNK A   1      -9.628  17.285  69.231  1.00  0.00    -0.134 OA 
HETATM   39  C   UNK A   1     -10.117  17.233  68.108  1.00  0.00    -0.325 C  
BRANCH  39  40
HETATM   40  C   UNK A   1     -10.137  18.472  67.225  1.00  0.00    -0.376 C  
BRANCH  40  41
HETATM   41  C   UNK A   1      -8.805  18.874  66.563  1.00  0.00    -0.324 C  
BRANCH  41  42
HETATM   42  C   UNK A   1      -7.646  19.282  67.483  1.00  0.00    -0.237 C  
HETATM   43  N   UNK A   1      -7.070  20.602  67.115  1.00  0.00    -0.311 NA 
HETATM   44  C   UNK A   1      -6.529  18.259  67.384  1.00  0.00    -0.185 C  
HETATM   45  O   UNK A   1      -6.450  17.166  67.915  1.00  0.00    -0.142 OA 
HETATM   46  O   UNK A   1      -5.594  18.713  66.518  1.00  0.00    -0.144 OA 
HETATM   47  H2  UNK A   1      -7.790  21.324  67.089  1.00  0.00     0.000 HD 
HETATM   48  H1  UNK A   1      -6.299  20.873  67.727  1.00  0.00     0.000 HD 
ENDBRANCH  41  42
ENDBRANCH  40  41
ENDBRANCH  39  40
ENDBRANCH  27  36
ENDBRANCH  26  27
ENDBRANCH  25  26
ENDBRANCH  24  25
ENDBRANCH  23  24
ENDBRANCH  14  23
ENDBRANCH  11  14
ENDBRANCH   9  10
ENDBRANCH   8   9
ENDBRANCH   4   8
TORSDOF 17
ENDMDL
MODEL      284
REMARK 921   NORMALIZED FREE ENERGY PREDICTED BY IDOCK:   -2.75 KCAL/MOL
REMARK 922        TOTAL FREE ENERGY PREDICTED BY IDOCK:   -8.46 KCAL/MOL
REMARK 923 INTER-LIGAND FREE ENERGY PREDICTED BY IDOCK:   -6.95 KCAL/MOL
REMARK 924 INTRA-LIGAND FREE ENERGY PREDICTED BY IDOCK:   -1.51 KCAL/MOL
REMARK 927      BINDING AFFINITY PREDICTED BY RF-SCORE:    0.00 PKD
ROOT
HETATM    1  N   UNK A   1     -10.026   3.816  64.684  1.00  0.00    -0.194 NA 
HETATM    2  H1  UNK A   1      -9.511   3.337  63.946  1.00  0.00     0.000 HD 
HETATM    3  H2  UNK A   1     -10.934   4.132  64.343  1.00  0.00     0.000 HD 
HETATM    4  C   UNK A   1      -9.273   4.941  65.301  1.00  0.00    -0.139 C  
HETATM    5  O   UNK A   1      -7.221   4.932  66.651  1.00  0.00    -0.077 OA 
HETATM    6  C   UNK A   1      -7.910   4.417  65.785  1.00  0.00    -0.094 C  
HETATM    7  O   UNK A   1      -7.558   3.290  65.115  1.00  0.00    -0.078 OA 
ENDROOT
BRANCH   4   8
HETATM    8  C   UNK A   1     -10.046   5.659  66.409  1.00  0.00    -0.199 C  
BRANCH   8   9
HETATM    9  C   UNK A   1     -10.585   4.750  67.515  1.00  0.00     0.157 C  
BRANCH   9  10
HETATM   10  C   UNK A   1      -9.935   5.105  68.832  1.00  0.00    -0.175 C  
HETATM   11  N   UNK A   1      -9.440   6.390  68.894  1.00  0.00    -0.129 N  
HETATM   12  O   UNK A   1      -9.825   4.297  69.749  1.00  0.00    -0.214 OA 
HETATM   13  H   UNK A   1      -9.505   7.005  68.083  1.00  0.00     0.000 HD 
BRANCH  11  14
HETATM   14  C   UNK A   1      -8.816   6.868  70.135  1.00  0.00    -0.145 C  
BRANCH  14  15
HETATM   15  C   UNK A   1      -9.905   7.510  71.020  1.00  0.00    -0.179 C  
ATOM     16  H   GLY A   2     -11.345   6.914  69.658  1.00  0.00     0.000 HD 
ATOM     17  N   GLY A   2     -11.194   7.377  70.555  1.00  0.00    -0.272 N  
HETATM   18  O   UNK A   1      -9.646   8.112  72.051  1.00  0.00    -0.178 OA 
BRANCH  17  19
ATOM     19  CA  GLY A   2     -12.349   7.867  71.286  1.00  0.00    -0.281 C  
ATOM     20  C   GLY A   2     -12.814   9.256  70.879  1.00  0.00    -0.043 C  
ATOM     21  O   GLY A   2     -11.843  10.063  70.354  1.00  0.00    -0.266 OA 
ATOM     22  OXT GLY A   2     -13.949   9.672  71.058  1.00  0.00    -0.161 OA 
ENDBRANCH  17  19
ENDBRANCH  14  15
BRANCH  14  23
HETATM   23  C   UNK A   1      -7.684   7.863  69.827  1.00  0.00    -0.099 C  
BRANCH  23  24
HETATM   24  S   UNK A   1      -7.857   8.816  68.285  1.00  0.00    -0.102 SA 
BRANCH  24  25
HETATM   25  S   UNK A   1      -8.827  10.502  68.933  1.00  0.00    -0.165 SA 
BRANCH  25  26
HETATM   26  C   UNK A   1      -8.044  11.810  67.925  1.00  0.00    -0.144 C  
BRANCH  26  27
HETATM   27  C   UNK A   1      -9.012  12.843  67.319  1.00  0.00    -0.208 C  
BRANCH  27  28
HETATM   28  C   UNK A   1      -9.848  12.204  66.171  1.00  0.00    -0.237 C  
ATOM     29  H   GLY A   2      -8.266  12.392  64.819  1.00  0.00     0.000 HD 
ATOM     30  N   GLY A   2      -9.211  12.033  64.958  1.00  0.00     0.160 N  
HETATM   31  O   UNK A   1     -10.978  11.751  66.349  1.00  0.00    -0.271 OA 
BRANCH  30  32
ATOM     32  CA  GLY A   2      -9.898  11.337  63.878  1.00  0.00    -0.300 C  
ATOM     33  OXT GLY A   2      -9.583   9.392  62.434  1.00  0.00     0.091 OA 
ATOM     34  C   GLY A   2      -9.453   9.907  63.538  1.00  0.00    -0.083 C  
ATOM     35  O   GLY A   2      -9.096   9.167  64.604  1.00  0.00    -0.179 OA 
ENDBRANCH  30  32
ENDBRANCH  27  28
BRANCH  27  36
HETATM   36  N   UNK A   1      -9.709  13.695  68.308  1.00  0.00    -0.229 N  
HETATM   37  H   UNK A   1      -9.607  13.483  69.300  1.00  0.00     0.000 HD 
HETATM   38  O   UNK A   1     -10.562  15.174  66.780  1.00  0.00    -0.286 OA 
HETATM   39  C   UNK A   1     -10.491  14.762  67.933  1.00  0.00    -0.246 C  
BRANCH  39  40
HETATM   40  C   UNK A   1     -11.180  15.519  69.058  1.00  0.00    -0.304 C  
BRANCH  40  41
HETATM   41  C   UNK A   1     -10.639  16.924  69.383  1.00  0.00    -0.292 C  
BRANCH  41  42
HETATM   42  C   UNK A   1      -9.687  17.573  68.367  1.00  0.00    -0.316 C  
HETATM   43  N   UNK A   1      -8.375  17.930  68.970  1.00  0.00    -0.105 NA 
HETATM   44  C   UNK A   1     -10.302  18.854  67.835  1.00  0.00    -0.404 C  
HETATM   45  O   UNK A   1     -11.161  18.987  66.982  1.00  0.00    -0.179 OA 
HETATM   46  O   UNK A   1      -9.792  19.903  68.519  1.00  0.00    -0.382 OA 
HETATM   47  H2  UNK A   1      -7.942  17.121  69.415  1.00  0.00     0.000 HD 
HETATM   48  H1  UNK A   1      -7.743  18.361  68.295  1.00  0.00     0.000 HD 
ENDBRANCH  41  42
ENDBRANCH  40  41
ENDBRANCH  39  40
ENDBRANCH  27  36
ENDBRANCH  26  27
ENDBRANCH  25  26
ENDBRANCH  24  25
ENDBRANCH  23  24
ENDBRANCH  14  23
ENDBRANCH  11  14
ENDBRANCH   9  10
ENDBRANCH   8   9
ENDBRANCH   4   8
TORSDOF 17
ENDMDL
MODEL      285
REMARK 921   NORMALIZED FREE ENERGY PREDICTED BY IDOCK:   -2.71 KCAL/MOL
REMARK 922        TOTAL FREE ENERGY PREDICTED BY IDOCK:   -8.37 KCAL/MOL
REMARK 923 INTER-LIGAND FREE ENERGY PREDICTED BY IDOCK:   -6.72 KCAL/MOL
REMARK 924 INTRA-LIGAND FREE ENERGY PREDICTED BY IDOCK:   -1.65 KCAL/MOL
REMARK 927      BINDING AFFINITY PREDICTED BY RF-SCORE:    0.00 PKD
ROOT
HETATM    1  N   UNK A   1      -9.122   5.657  71.178  1.00  0.00    -0.144 NA 
HETATM    2  H1  UNK A   1      -9.627   4.942  71.701  1.00  0.00     0.000 HD 
HETATM    3  H2  UNK A   1      -8.175   5.346  70.962  1.00  0.00     0.000 HD 
HETATM    4  C   UNK A   1      -9.099   6.983  71.853  1.00  0.00    -0.139 C  
HETATM    5  O   UNK A   1     -10.926   8.547  72.351  1.00  0.00    -0.357 OA 
HETATM    6  C   UNK A   1     -10.545   7.402  72.170  1.00  0.00    -0.220 C  
HETATM    7  O   UNK A   1     -11.362   6.319  72.225  1.00  0.00    -0.265 OA 
ENDROOT
BRANCH   4   8
HETATM    8  C   UNK A   1      -8.342   8.056  71.067  1.00  0.00    -0.120 C  
BRANCH   8   9
HETATM    9  C   UNK A   1      -6.976   8.435  71.642  1.00  0.00    -0.088 C  
BRANCH   9  10
HETATM   10  C   UNK A   1      -6.474   9.696  70.978  1.00  0.00    -0.050 C  
HETATM   11  N   UNK A   1      -6.571   9.694  69.603  1.00  0.00    -0.045 N  
HETATM   12  O   UNK A   1      -5.983  10.623  71.617  1.00  0.00    -0.293 OA 
HETATM   13  H   UNK A   1      -6.934   8.875  69.116  1.00  0.00     0.000 HD 
BRANCH  11  14
HETATM   14  C   UNK A   1      -6.149  10.878  68.844  1.00  0.00    -0.040 C  
BRANCH  14  15
HETATM   15  C   UNK A   1      -7.402  11.686  68.450  1.00  0.00    -0.096 C  
ATOM     16  H   GLY A   2      -6.263  13.413  68.413  1.00  0.00     0.000 HD 
ATOM     17  N   GLY A   2      -7.195  13.033  68.251  1.00  0.00    -0.102 N  
HETATM   18  O   UNK A   1      -8.506  11.176  68.340  1.00  0.00    -0.137 OA 
BRANCH  17  19
ATOM     19  CA  GLY A   2      -8.248  13.936  67.820  1.00  0.00    -0.173 C  
ATOM     20  C   GLY A   2      -7.768  15.126  67.005  1.00  0.00    -0.123 C  
ATOM     21  O   GLY A   2      -6.481  15.515  67.249  1.00  0.00    -0.274 OA 
ATOM     22  OXT GLY A   2      -8.480  15.751  66.232  1.00  0.00    -0.298 OA 
ENDBRANCH  17  19
ENDBRANCH  14  15
BRANCH  14  23
HETATM   23  C   UNK A   1      -5.332  10.468  67.606  1.00  0.00    -0.043 C  
BRANCH  23  24
HETATM   24  S   UNK A   1      -6.270  10.283  66.056  1.00  0.00    -0.107 SA 
BRANCH  24  25
HETATM   25  S   UNK A   1      -6.452   8.247  65.910  1.00  0.00    -0.053 SA 
BRANCH  25  26
HETATM   26  C   UNK A   1      -7.632   7.867  67.253  1.00  0.00    -0.101 C  
BRANCH  26  27
HETATM   27  C   UNK A   1      -9.062   7.521  66.797  1.00  0.00    -0.148 C  
BRANCH  27  28
HETATM   28  C   UNK A   1      -9.869   8.818  66.493  1.00  0.00    -0.279 C  
ATOM     29  H   GLY A   2      -8.885   9.086  64.670  1.00  0.00     0.000 HD 
ATOM     30  N   GLY A   2      -9.623   9.434  65.282  1.00  0.00    -0.244 N  
HETATM   31  O   UNK A   1     -10.775   9.219  67.222  1.00  0.00    -0.268 OA 
BRANCH  30  32
ATOM     32  CA  GLY A   2     -10.426  10.584  64.885  1.00  0.00    -0.144 C  
ATOM     33  OXT GLY A   2     -10.323  12.467  63.332  1.00  0.00    -0.413 OA 
ATOM     34  C   GLY A   2     -10.082  11.288  63.565  1.00  0.00    -0.396 C  
ATOM     35  O   GLY A   2      -9.680  10.462  62.581  1.00  0.00    -0.298 OA 
ENDBRANCH  30  32
ENDBRANCH  27  28
BRANCH  27  36
HETATM   36  N   UNK A   1      -9.153   6.395  65.842  1.00  0.00    -0.311 N  
HETATM   37  H   UNK A   1      -8.564   6.406  65.010  1.00  0.00     0.000 HD 
HETATM   38  O   UNK A   1     -10.648   5.169  67.071  1.00  0.00    -0.223 OA 
HETATM   39  C   UNK A   1     -10.007   5.335  66.039  1.00  0.00    -0.124 C  
BRANCH  39  40
HETATM   40  C   UNK A   1     -10.023   4.273  64.950  1.00  0.00    -0.180 C  
BRANCH  40  41
HETATM   41  C   UNK A   1      -9.246   4.592  63.658  1.00  0.00    -0.086 C  
BRANCH  41  42
HETATM   42  C   UNK A   1      -8.521   3.433  62.959  1.00  0.00    -0.089 C  
HETATM   43  N   UNK A   1      -9.461   2.388  62.475  1.00  0.00    -0.090 NA 
HETATM   44  C   UNK A   1      -7.566   2.765  63.931  1.00  0.00    -0.067 C  
HETATM   45  O   UNK A   1      -6.458   3.132  64.280  1.00  0.00    -0.029 OA 
HETATM   46  O   UNK A   1      -8.164   1.670  64.451  1.00  0.00    -0.069 OA 
HETATM   47  H2  UNK A   1     -10.180   2.789  61.873  1.00  0.00     0.000 HD 
HETATM   48  H1  UNK A   1      -8.980   1.618  62.011  1.00  0.00     0.000 HD 
ENDBRANCH  41  42
ENDBRANCH  40  41
ENDBRANCH  39  40
ENDBRANCH  27  36
ENDBRANCH  26  27
ENDBRANCH  25  26
ENDBRANCH  24  25
ENDBRANCH  23  24
ENDBRANCH  14  23
ENDBRANCH  11  14
ENDBRANCH   9  10
ENDBRANCH   8   9
ENDBRANCH   4   8
TORSDOF 17
ENDMDL
MODEL      286
REMARK 921   NORMALIZED FREE ENERGY PREDICTED BY IDOCK:   -2.70 KCAL/MOL
REMARK 922        TOTAL FREE ENERGY PREDICTED BY IDOCK:   -8.36 KCAL/MOL
REMARK 923 INTER-LIGAND FREE ENERGY PREDICTED BY IDOCK:   -6.33 KCAL/MOL
REMARK 924 INTRA-LIGAND FREE ENERGY PREDICTED BY IDOCK:   -2.03 KCAL/MOL
REMARK 927      BINDING AFFINITY PREDICTED BY RF-SCORE:    0.00 PKD
ROOT
HETATM    1  N   UNK A   1      -8.314  13.808  68.824  1.00  0.00    -0.333 NA 
HETATM    2  H1  UNK A   1      -8.596  14.638  68.302  1.00  0.00     0.000 HD 
HETATM    3  H2  UNK A   1      -7.308  13.812  68.993  1.00  0.00     0.000 HD 
HETATM    4  C   UNK A   1      -8.736  12.532  68.185  1.00  0.00    -0.190 C  
HETATM    5  O   UNK A   1     -10.980  11.608  67.804  1.00  0.00    -0.207 OA 
HETATM    6  C   UNK A   1     -10.254  12.580  67.939  1.00  0.00    -0.219 C  
HETATM    7  O   UNK A   1     -10.696  13.863  67.886  1.00  0.00    -0.236 OA 
ENDROOT
BRANCH   4   8
HETATM    8  C   UNK A   1      -8.314  11.288  68.969  1.00  0.00    -0.014 C  
BRANCH   8   9
HETATM    9  C   UNK A   1      -6.944  10.720  68.592  1.00  0.00    -0.070 C  
BRANCH   9  10
HETATM   10  C   UNK A   1      -7.078   9.813  67.391  1.00  0.00    -0.085 C  
HETATM   11  N   UNK A   1      -5.878   9.439  66.824  1.00  0.00    -0.054 N  
HETATM   12  O   UNK A   1      -8.169   9.478  66.940  1.00  0.00    -0.112 OA 
HETATM   13  H   UNK A   1      -4.999   9.792  67.203  1.00  0.00     0.000 HD 
BRANCH  11  14
HETATM   14  C   UNK A   1      -5.873   8.529  65.671  1.00  0.00    -0.044 C  
BRANCH  14  15
HETATM   15  C   UNK A   1      -6.402   9.290  64.439  1.00  0.00    -0.077 C  
ATOM     16  H   GLY A   2      -7.930   7.906  64.256  1.00  0.00     0.000 HD 
ATOM     17  N   GLY A   2      -7.541   8.765  63.868  1.00  0.00    -0.118 N  
HETATM   18  O   UNK A   1      -5.844  10.276  63.984  1.00  0.00    -0.131 OA 
BRANCH  17  19
ATOM     19  CA  GLY A   2      -8.210   9.383  62.737  1.00  0.00    -0.162 C  
ATOM     20  C   GLY A   2      -9.274  10.403  63.111  1.00  0.00    -0.294 C  
ATOM     21  O   GLY A   2      -9.855  10.215  64.333  1.00  0.00    -0.322 OA 
ATOM     22  OXT GLY A   2      -9.649  11.297  62.366  1.00  0.00    -0.178 OA 
ENDBRANCH  17  19
ENDBRANCH  14  15
BRANCH  14  23
HETATM   23  C   UNK A   1      -6.717   7.276  65.964  1.00  0.00    -0.053 C  
BRANCH  23  24
HETATM   24  S   UNK A   1      -5.791   5.725  66.193  1.00  0.00    -0.018 SA 
BRANCH  24  25
HETATM   25  S   UNK A   1      -6.321   5.192  68.101  1.00  0.00    -0.037 SA 
BRANCH  25  26
HETATM   26  C   UNK A   1      -7.785   6.244  68.404  1.00  0.00    -0.104 C  
BRANCH  26  27
HETATM   27  C   UNK A   1      -9.093   5.485  68.695  1.00  0.00    -0.117 C  
BRANCH  27  28
HETATM   28  C   UNK A   1     -10.203   6.468  69.173  1.00  0.00    -0.180 C  
ATOM     29  H   GLY A   2      -8.812   7.992  69.496  1.00  0.00     0.000 HD 
ATOM     30  N   GLY A   2      -9.802   7.749  69.496  1.00  0.00    -0.176 N  
HETATM   31  O   UNK A   1     -11.398   6.177  69.148  1.00  0.00    -0.399 OA 
BRANCH  30  32
ATOM     32  CA  GLY A   2     -10.805   8.750  69.838  1.00  0.00    -0.206 C  
ATOM     33  OXT GLY A   2     -12.155   9.439  71.753  1.00  0.00    -0.354 OA 
ATOM     34  C   GLY A   2     -11.089   9.014  71.323  1.00  0.00    -0.312 C  
ATOM     35  O   GLY A   2     -10.005   8.947  72.119  1.00  0.00    -0.322 OA 
ENDBRANCH  30  32
ENDBRANCH  27  28
BRANCH  27  36
HETATM   36  N   UNK A   1      -9.448   4.455  67.695  1.00  0.00    -0.154 N  
HETATM   37  H   UNK A   1      -9.536   3.484  67.995  1.00  0.00     0.000 HD 
HETATM   38  O   UNK A   1      -9.717   5.912  65.947  1.00  0.00    -0.049 OA 
HETATM   39  C   UNK A   1      -9.664   4.762  66.372  1.00  0.00    -0.195 C  
BRANCH  39  40
HETATM   40  C   UNK A   1      -9.979   3.593  65.451  1.00  0.00    -0.028 C  
BRANCH  40  41
HETATM   41  C   UNK A   1     -10.764   3.914  64.165  1.00  0.00    -0.229 C  
BRANCH  41  42
HETATM   42  C   UNK A   1     -10.040   3.728  62.824  1.00  0.00    -0.171 C  
HETATM   43  N   UNK A   1      -9.775   2.296  62.519  1.00  0.00    -0.089 NA 
HETATM   44  C   UNK A   1      -8.699   4.436  62.863  1.00  0.00    -0.114 C  
HETATM   45  O   UNK A   1      -8.463   5.623  62.725  1.00  0.00    -0.106 OA 
HETATM   46  O   UNK A   1      -7.735   3.535  63.157  1.00  0.00    -0.064 OA 
HETATM   47  H2  UNK A   1     -10.633   1.747  62.553  1.00  0.00     0.000 HD 
HETATM   48  H1  UNK A   1      -9.294   2.172  61.628  1.00  0.00     0.000 HD 
ENDBRANCH  41  42
ENDBRANCH  40  41
ENDBRANCH  39  40
ENDBRANCH  27  36
ENDBRANCH  26  27
ENDBRANCH  25  26
ENDBRANCH  24  25
ENDBRANCH  23  24
ENDBRANCH  14  23
ENDBRANCH  11  14
ENDBRANCH   9  10
ENDBRANCH   8   9
ENDBRANCH   4   8
TORSDOF 17
ENDMDL
MODEL      287
REMARK 921   NORMALIZED FREE ENERGY PREDICTED BY IDOCK:   -2.68 KCAL/MOL
REMARK 922        TOTAL FREE ENERGY PREDICTED BY IDOCK:   -8.32 KCAL/MOL
REMARK 923 INTER-LIGAND FREE ENERGY PREDICTED BY IDOCK:   -6.39 KCAL/MOL
REMARK 924 INTRA-LIGAND FREE ENERGY PREDICTED BY IDOCK:   -1.93 KCAL/MOL
REMARK 927      BINDING AFFINITY PREDICTED BY RF-SCORE:    0.00 PKD
ROOT
HETATM    1  N   UNK A   1     -11.023  15.050  70.431  1.00  0.00    -0.439 NA 
HETATM    2  H1  UNK A   1     -10.475  15.864  70.708  1.00  0.00     0.000 HD 
HETATM    3  H2  UNK A   1     -10.970  14.321  71.144  1.00  0.00     0.000 HD 
HETATM    4  C   UNK A   1     -10.653  14.509  69.096  1.00  0.00    -0.234 C  
HETATM    5  O   UNK A   1     -10.880  15.499  66.859  1.00  0.00    -0.314 OA 
HETATM    6  C   UNK A   1     -10.734  15.646  68.062  1.00  0.00    -0.287 C  
HETATM    7  O   UNK A   1     -10.619  16.857  68.664  1.00  0.00    -0.322 OA 
ENDROOT
BRANCH   4   8
HETATM    8  C   UNK A   1     -11.475  13.287  68.682  1.00  0.00    -0.339 C  
BRANCH   8   9
HETATM    9  C   UNK A   1     -10.729  11.953  68.746  1.00  0.00    -0.257 C  
BRANCH   9  10
HETATM   10  C   UNK A   1      -9.913  11.762  67.489  1.00  0.00    -0.192 C  
HETATM   11  N   UNK A   1      -8.744  11.054  67.671  1.00  0.00    -0.127 N  
HETATM   12  O   UNK A   1     -10.250  12.238  66.408  1.00  0.00    -0.219 OA 
HETATM   13  H   UNK A   1      -8.481  10.730  68.601  1.00  0.00     0.000 HD 
BRANCH  11  14
HETATM   14  C   UNK A   1      -7.880  10.771  66.517  1.00  0.00    -0.145 C  
BRANCH  14  15
HETATM   15  C   UNK A   1      -7.843   9.246  66.291  1.00  0.00    -0.103 C  
ATOM     16  H   GLY A   2      -9.907   9.188  66.422  1.00  0.00     0.000 HD 
ATOM     17  N   GLY A   2      -9.072   8.626  66.257  1.00  0.00    -0.173 N  
HETATM   18  O   UNK A   1      -6.799   8.623  66.169  1.00  0.00    -0.071 OA 
BRANCH  17  19
ATOM     19  CA  GLY A   2      -9.230   7.206  65.997  1.00  0.00    -0.022 C  
ATOM     20  C   GLY A   2      -9.169   6.324  67.234  1.00  0.00    -0.118 C  
ATOM     21  O   GLY A   2      -8.445   6.834  68.275  1.00  0.00    -0.124 OA 
ATOM     22  OXT GLY A   2      -9.664   5.209  67.297  1.00  0.00    -0.137 OA 
ENDBRANCH  17  19
ENDBRANCH  14  15
BRANCH  14  23
HETATM   23  C   UNK A   1      -6.469  11.341  66.741  1.00  0.00    -0.136 C  
BRANCH  23  24
HETATM   24  S   UNK A   1      -6.001  11.654  68.473  1.00  0.00    -0.049 SA 
BRANCH  24  25
HETATM   25  S   UNK A   1      -5.948   9.758  69.249  1.00  0.00    -0.033 SA 
BRANCH  25  26
HETATM   26  C   UNK A   1      -6.622  10.009  70.929  1.00  0.00     0.032 C  
BRANCH  26  27
HETATM   27  C   UNK A   1      -7.315   8.783  71.552  1.00  0.00    -0.085 C  
BRANCH  27  28
HETATM   28  C   UNK A   1      -8.851   8.830  71.294  1.00  0.00    -0.226 C  
ATOM     29  H   GLY A   2      -9.265   8.110  73.210  1.00  0.00     0.000 HD 
ATOM     30  N   GLY A   2      -9.669   8.468  72.345  1.00  0.00    -0.298 N  
HETATM   31  O   UNK A   1      -9.333   9.286  70.258  1.00  0.00    -0.201 OA 
BRANCH  30  32
ATOM     32  CA  GLY A   2     -11.114   8.602  72.209  1.00  0.00    -0.325 C  
ATOM     33  OXT GLY A   2     -12.978   7.493  71.086  1.00  0.00    -0.292 OA 
ATOM     34  C   GLY A   2     -11.906   7.402  71.671  1.00  0.00    -0.291 C  
ATOM     35  O   GLY A   2     -11.445   6.203  72.076  1.00  0.00    -0.290 OA 
ENDBRANCH  30  32
ENDBRANCH  27  28
BRANCH  27  36
HETATM   36  N   UNK A   1      -6.607   7.500  71.347  1.00  0.00    -0.042 N  
HETATM   37  H   UNK A   1      -6.587   7.091  70.413  1.00  0.00     0.000 HD 
HETATM   38  O   UNK A   1      -5.830   7.319  73.494  1.00  0.00    -0.053 OA 
HETATM   39  C   UNK A   1      -5.976   6.840  72.375  1.00  0.00    -0.038 C  
BRANCH  39  40
HETATM   40  C   UNK A   1      -5.327   5.510  72.023  1.00  0.00    -0.017 C  
BRANCH  40  41
HETATM   41  C   UNK A   1      -6.130   4.237  72.352  1.00  0.00    -0.016 C  
BRANCH  41  42
HETATM   42  C   UNK A   1      -7.012   4.257  73.608  1.00  0.00    -0.061 C  
HETATM   43  N   UNK A   1      -6.867   3.019  74.420  1.00  0.00    -0.038 NA 
HETATM   44  C   UNK A   1      -8.472   4.364  73.207  1.00  0.00    -0.098 C  
HETATM   45  O   UNK A   1      -9.094   5.352  72.862  1.00  0.00    -0.126 OA 
HETATM   46  O   UNK A   1      -9.021   3.128  73.215  1.00  0.00    -0.085 OA 
HETATM   47  H2  UNK A   1      -5.891   2.848  74.659  1.00  0.00     0.000 HD 
HETATM   48  H1  UNK A   1      -7.454   3.032  75.254  1.00  0.00     0.000 HD 
ENDBRANCH  41  42
ENDBRANCH  40  41
ENDBRANCH  39  40
ENDBRANCH  27  36
ENDBRANCH  26  27
ENDBRANCH  25  26
ENDBRANCH  24  25
ENDBRANCH  23  24
ENDBRANCH  14  23
ENDBRANCH  11  14
ENDBRANCH   9  10
ENDBRANCH   8   9
ENDBRANCH   4   8
TORSDOF 17
ENDMDL
MODEL      288
REMARK 921   NORMALIZED FREE ENERGY PREDICTED BY IDOCK:   -2.67 KCAL/MOL
REMARK 922        TOTAL FREE ENERGY PREDICTED BY IDOCK:   -8.29 KCAL/MOL
REMARK 923 INTER-LIGAND FREE ENERGY PREDICTED BY IDOCK:   -7.26 KCAL/MOL
REMARK 924 INTRA-LIGAND FREE ENERGY PREDICTED BY IDOCK:   -1.03 KCAL/MOL
REMARK 927      BINDING AFFINITY PREDICTED BY RF-SCORE:    0.00 PKD
ROOT
HETATM    1  N   UNK A   1     -12.458  14.298  68.284  1.00  0.00    -0.502 NA 
HETATM    2  H1  UNK A   1     -12.757  15.059  67.674  1.00  0.00     0.000 HD 
HETATM    3  H2  UNK A   1     -13.025  13.465  68.124  1.00  0.00     0.000 HD 
HETATM    4  C   UNK A   1     -12.451  14.661  69.727  1.00  0.00    -0.205 C  
HETATM    5  O   UNK A   1     -11.064  16.273  70.956  1.00  0.00    -0.264 OA 
HETATM    6  C   UNK A   1     -11.599  15.928  69.914  1.00  0.00    -0.336 C  
HETATM    7  O   UNK A   1     -11.513  16.630  68.756  1.00  0.00    -0.238 OA 
ENDROOT
BRANCH   4   8
HETATM    8  C   UNK A   1     -12.004  13.519  70.642  1.00  0.00    -0.308 C  
BRANCH   8   9
HETATM    9  C   UNK A   1     -12.777  12.210  70.469  1.00  0.00    -0.071 C  
BRANCH   9  10
HETATM   10  C   UNK A   1     -11.845  11.126  69.978  1.00  0.00    -0.361 C  
HETATM   11  N   UNK A   1     -11.524  10.180  70.928  1.00  0.00    -0.351 N  
HETATM   12  O   UNK A   1     -11.386  11.120  68.840  1.00  0.00    -0.227 OA 
HETATM   13  H   UNK A   1     -11.887  10.262  71.877  1.00  0.00     0.000 HD 
BRANCH  11  14
HETATM   14  C   UNK A   1     -10.654   9.053  70.564  1.00  0.00    -0.227 C  
BRANCH  14  15
HETATM   15  C   UNK A   1     -11.297   7.747  71.074  1.00  0.00    -0.271 C  
ATOM     16  H   GLY A   2     -10.054   7.795  72.727  1.00  0.00     0.000 HD 
ATOM     17  N   GLY A   2     -10.815   7.285  72.278  1.00  0.00    -0.227 N  
HETATM   18  O   UNK A   1     -12.159   7.150  70.448  1.00  0.00    -0.213 OA 
BRANCH  17  19
ATOM     19  CA  GLY A   2     -11.344   6.104  72.936  1.00  0.00    -0.169 C  
ATOM     20  C   GLY A   2     -10.293   5.214  73.581  1.00  0.00    -0.223 C  
ATOM     21  O   GLY A   2      -9.049   5.283  73.018  1.00  0.00    -0.125 OA 
ATOM     22  OXT GLY A   2     -10.530   4.434  74.492  1.00  0.00    -0.245 OA 
ENDBRANCH  17  19
ENDBRANCH  14  15
BRANCH  14  23
HETATM   23  C   UNK A   1      -9.242   9.248  71.143  1.00  0.00    -0.155 C  
BRANCH  23  24
HETATM   24  S   UNK A   1      -7.954   8.135  70.496  1.00  0.00    -0.099 SA 
BRANCH  24  25
HETATM   25  S   UNK A   1      -7.041   9.313  69.089  1.00  0.00    -0.063 SA 
BRANCH  25  26
HETATM   26  C   UNK A   1      -8.465   9.952  68.137  1.00  0.00    -0.114 C  
BRANCH  26  27
HETATM   27  C   UNK A   1      -8.231  10.106  66.623  1.00  0.00    -0.123 C  
BRANCH  27  28
HETATM   28  C   UNK A   1      -8.519   8.766  65.883  1.00  0.00    -0.143 C  
ATOM     29  H   GLY A   2      -9.226   7.872  67.633  1.00  0.00     0.000 HD 
ATOM     30  N   GLY A   2      -9.088   7.754  66.630  1.00  0.00    -0.152 N  
HETATM   31  O   UNK A   1      -8.374   8.637  64.669  1.00  0.00    -0.159 OA 
BRANCH  30  32
ATOM     32  CA  GLY A   2      -9.490   6.516  65.973  1.00  0.00     0.055 C  
ATOM     33  OXT GLY A   2     -10.222   4.261  66.562  1.00  0.00    -0.202 OA 
ATOM     34  C   GLY A   2     -10.234   5.462  66.805  1.00  0.00    -0.241 C  
ATOM     35  O   GLY A   2     -11.088   5.970  67.713  1.00  0.00    -0.300 OA 
ENDBRANCH  30  32
ENDBRANCH  27  28
BRANCH  27  36
HETATM   36  N   UNK A   1      -8.756  11.360  66.039  1.00  0.00    -0.291 N  
HETATM   37  H   UNK A   1      -9.020  11.372  65.053  1.00  0.00     0.000 HD 
HETATM   38  O   UNK A   1      -8.742  12.551  67.995  1.00  0.00    -0.171 OA 
HETATM   39  C   UNK A   1      -8.901  12.509  66.780  1.00  0.00    -0.177 C  
BRANCH  39  40
HETATM   40  C   UNK A   1      -9.414  13.731  66.033  1.00  0.00    -0.125 C  
BRANCH  40  41
HETATM   41  C   UNK A   1      -9.490  15.048  66.829  1.00  0.00    -0.263 C  
BRANCH  41  42
HETATM   42  C   UNK A   1      -8.418  16.112  66.550  1.00  0.00    -0.311 C  
HETATM   43  N   UNK A   1      -7.591  16.409  67.749  1.00  0.00    -0.141 NA 
HETATM   44  C   UNK A   1      -9.082  17.410  66.128  1.00  0.00    -0.145 C  
HETATM   45  O   UNK A   1      -9.539  17.711  65.039  1.00  0.00     0.879 OA 
HETATM   46  O   UNK A   1      -9.173  18.226  67.202  1.00  0.00    -0.257 OA 
HETATM   47  H2  UNK A   1      -7.176  15.559  68.130  1.00  0.00     0.000 HD 
HETATM   48  H1  UNK A   1      -6.879  17.116  67.564  1.00  0.00     0.000 HD 
ENDBRANCH  41  42
ENDBRANCH  40  41
ENDBRANCH  39  40
ENDBRANCH  27  36
ENDBRANCH  26  27
ENDBRANCH  25  26
ENDBRANCH  24  25
ENDBRANCH  23  24
ENDBRANCH  14  23
ENDBRANCH  11  14
ENDBRANCH   9  10
ENDBRANCH   8   9
ENDBRANCH   4   8
TORSDOF 17
ENDMDL
MODEL      289
REMARK 921   NORMALIZED FREE ENERGY PREDICTED BY IDOCK:   -2.67 KCAL/MOL
REMARK 922        TOTAL FREE ENERGY PREDICTED BY IDOCK:   -8.28 KCAL/MOL
REMARK 923 INTER-LIGAND FREE ENERGY PREDICTED BY IDOCK:   -5.61 KCAL/MOL
REMARK 924 INTRA-LIGAND FREE ENERGY PREDICTED BY IDOCK:   -2.67 KCAL/MOL
REMARK 927      BINDING AFFINITY PREDICTED BY RF-SCORE:    0.00 PKD
ROOT
HETATM    1  N   UNK A   1     -10.658   7.989  66.637  1.00  0.00    -0.402 NA 
HETATM    2  H1  UNK A   1     -10.388   7.033  66.405  1.00  0.00     0.000 HD 
HETATM    3  H2  UNK A   1     -11.674   8.080  66.667  1.00  0.00     0.000 HD 
HETATM    4  C   UNK A   1     -10.064   9.011  65.735  1.00  0.00     0.171 C  
HETATM    5  O   UNK A   1      -7.723   9.683  65.413  1.00  0.00    -0.110 OA 
HETATM    6  C   UNK A   1      -8.537   8.824  65.713  1.00  0.00    -0.164 C  
HETATM    7  O   UNK A   1      -8.198   7.559  66.072  1.00  0.00    -0.115 OA 
ENDROOT
BRANCH   4   8
HETATM    8  C   UNK A   1     -10.468  10.445  66.084  1.00  0.00    -0.224 C  
BRANCH   8   9
HETATM    9  C   UNK A   1     -10.820  10.677  67.555  1.00  0.00    -0.351 C  
BRANCH   9  10
HETATM   10  C   UNK A   1      -9.862  11.676  68.160  1.00  0.00    -0.191 C  
HETATM   11  N   UNK A   1      -8.679  11.822  67.466  1.00  0.00    -0.153 N  
HETATM   12  O   UNK A   1     -10.108  12.272  69.204  1.00  0.00     0.056 OA 
HETATM   13  H   UNK A   1      -8.500  11.261  66.635  1.00  0.00     0.000 HD 
BRANCH  11  14
HETATM   14  C   UNK A   1      -7.680  12.792  67.934  1.00  0.00    -0.143 C  
BRANCH  14  15
HETATM   15  C   UNK A   1      -8.125  14.206  67.507  1.00  0.00    -0.187 C  
ATOM     16  H   GLY A   2      -8.096  14.799  69.489  1.00  0.00     0.000 HD 
ATOM     17  N   GLY A   2      -8.255  15.116  68.533  1.00  0.00    -0.141 N  
HETATM   18  O   UNK A   1      -8.366  14.498  66.346  1.00  0.00     0.129 OA 
BRANCH  17  19
ATOM     19  CA  GLY A   2      -8.609  16.506  68.311  1.00  0.00    -0.200 C  
ATOM     20  C   GLY A   2      -9.984  16.900  68.824  1.00  0.00    -0.276 C  
ATOM     21  O   GLY A   2     -10.893  15.881  68.888  1.00  0.00    -0.241 OA 
ATOM     22  OXT GLY A   2     -10.302  18.047  69.102  1.00  0.00    -0.322 OA 
ENDBRANCH  17  19
ENDBRANCH  14  15
BRANCH  14  23
HETATM   23  C   UNK A   1      -6.287  12.449  67.376  1.00  0.00    -0.157 C  
BRANCH  23  24
HETATM   24  S   UNK A   1      -5.418  11.072  68.192  1.00  0.00    -0.042 SA 
BRANCH  24  25
HETATM   25  S   UNK A   1      -6.156  11.175  70.102  1.00  0.00    -0.147 SA 
BRANCH  25  26
HETATM   26  C   UNK A   1      -5.835   9.489  70.731  1.00  0.00    -0.066 C  
BRANCH  26  27
HETATM   27  C   UNK A   1      -6.861   8.421  70.308  1.00  0.00    -0.036 C  
BRANCH  27  28
HETATM   28  C   UNK A   1      -6.143   7.093  69.924  1.00  0.00    -0.027 C  
ATOM     29  H   GLY A   2      -6.980   7.113  68.010  1.00  0.00     0.000 HD 
ATOM     30  N   GLY A   2      -6.331   6.634  68.636  1.00  0.00    -0.030 N  
HETATM   31  O   UNK A   1      -5.344   6.533  70.673  1.00  0.00    -0.018 OA 
BRANCH  30  32
ATOM     32  CA  GLY A   2      -5.597   5.462  68.176  1.00  0.00    -0.012 C  
ATOM     33  OXT GLY A   2      -5.155   3.164  68.875  1.00  0.00    -0.010 OA 
ATOM     34  C   GLY A   2      -5.940   4.101  68.800  1.00  0.00    -0.026 C  
ATOM     35  O   GLY A   2      -7.246   3.927  69.076  1.00  0.00    -0.052 OA 
ENDBRANCH  30  32
ENDBRANCH  27  28
BRANCH  27  36
HETATM   36  N   UNK A   1      -8.068   8.348  71.160  1.00  0.00    -0.113 N  
HETATM   37  H   UNK A   1      -7.956   8.342  72.174  1.00  0.00     0.000 HD 
HETATM   38  O   UNK A   1      -9.574   8.428  69.436  1.00  0.00    -0.168 OA 
HETATM   39  C   UNK A   1      -9.335   8.288  70.631  1.00  0.00    -0.156 C  
BRANCH  39  40
HETATM   40  C   UNK A   1     -10.477   8.173  71.629  1.00  0.00    -0.288 C  
BRANCH  40  41
HETATM   41  C   UNK A   1     -10.163   7.469  72.964  1.00  0.00    -0.360 C  
BRANCH  41  42
HETATM   42  C   UNK A   1     -10.694   6.042  73.158  1.00  0.00    -0.260 C  
HETATM   43  N   UNK A   1     -10.405   5.512  74.517  1.00  0.00    -0.265 NA 
HETATM   44  C   UNK A   1     -10.033   5.109  72.161  1.00  0.00    -0.187 C  
HETATM   45  O   UNK A   1     -10.293   4.950  70.982  1.00  0.00    -0.208 OA 
HETATM   46  O   UNK A   1      -9.001   4.478  72.767  1.00  0.00    -0.117 OA 
HETATM   47  H2  UNK A   1     -10.760   6.138  75.240  1.00  0.00     0.000 HD 
HETATM   48  H1  UNK A   1     -10.757   4.563  74.647  1.00  0.00     0.000 HD 
ENDBRANCH  41  42
ENDBRANCH  40  41
ENDBRANCH  39  40
ENDBRANCH  27  36
ENDBRANCH  26  27
ENDBRANCH  25  26
ENDBRANCH  24  25
ENDBRANCH  23  24
ENDBRANCH  14  23
ENDBRANCH  11  14
ENDBRANCH   9  10
ENDBRANCH   8   9
ENDBRANCH   4   8
TORSDOF 17
ENDMDL
MODEL      290
REMARK 921   NORMALIZED FREE ENERGY PREDICTED BY IDOCK:   -2.65 KCAL/MOL
REMARK 922        TOTAL FREE ENERGY PREDICTED BY IDOCK:   -8.26 KCAL/MOL
REMARK 923 INTER-LIGAND FREE ENERGY PREDICTED BY IDOCK:   -7.32 KCAL/MOL
REMARK 924 INTRA-LIGAND FREE ENERGY PREDICTED BY IDOCK:   -0.94 KCAL/MOL
REMARK 927      BINDING AFFINITY PREDICTED BY RF-SCORE:    0.00 PKD
ROOT
HETATM    1  N   UNK A   1     -13.762   9.668  71.114  1.00  0.00    -0.434 NA 
HETATM    2  H1  UNK A   1     -14.687   9.241  71.074  1.00  0.00     0.000 HD 
HETATM    3  H2  UNK A   1     -13.739  10.529  70.566  1.00  0.00     0.000 HD 
HETATM    4  C   UNK A   1     -12.665   8.752  70.703  1.00  0.00     0.360 C  
HETATM    5  O   UNK A   1     -11.828   6.697  71.757  1.00  0.00    -0.304 OA 
HETATM    6  C   UNK A   1     -12.751   7.468  71.546  1.00  0.00    -0.359 C  
HETATM    7  O   UNK A   1     -14.005   7.292  72.034  1.00  0.00    -0.253 OA 
ENDROOT
BRANCH   4   8
HETATM    8  C   UNK A   1     -11.277   9.395  70.763  1.00  0.00    -0.367 C  
BRANCH   8   9
HETATM    9  C   UNK A   1     -11.245  10.892  70.455  1.00  0.00    -0.191 C  
BRANCH   9  10
HETATM   10  C   UNK A   1     -11.595  11.125  69.003  1.00  0.00    -0.324 C  
HETATM   11  N   UNK A   1     -10.532  11.513  68.216  1.00  0.00    -0.190 N  
HETATM   12  O   UNK A   1     -12.742  11.015  68.579  1.00  0.00     0.124 OA 
HETATM   13  H   UNK A   1      -9.609  11.645  68.629  1.00  0.00     0.000 HD 
BRANCH  11  14
HETATM   14  C   UNK A   1     -10.737  11.734  66.778  1.00  0.00    -0.253 C  
BRANCH  14  15
HETATM   15  C   UNK A   1      -9.583  11.065  66.005  1.00  0.00    -0.215 C  
ATOM     16  H   GLY A   2     -10.964  10.011  64.881  1.00  0.00     0.000 HD 
ATOM     17  N   GLY A   2      -9.969  10.191  65.013  1.00  0.00    -0.332 N  
HETATM   18  O   UNK A   1      -8.408  11.275  66.263  1.00  0.00    -0.170 OA 
BRANCH  17  19
ATOM     19  CA  GLY A   2      -9.019   9.516  64.146  1.00  0.00    -0.198 C  
ATOM     20  C   GLY A   2      -8.309  10.423  63.155  1.00  0.00    -0.167 C  
ATOM     21  O   GLY A   2      -8.999  11.548  62.801  1.00  0.00    -0.267 OA 
ATOM     22  OXT GLY A   2      -7.231  10.158  62.643  1.00  0.00    -0.127 OA 
ENDBRANCH  17  19
ENDBRANCH  14  15
BRANCH  14  23
HETATM   23  C   UNK A   1     -10.825  13.239  66.467  1.00  0.00    -0.281 C  
BRANCH  23  24
HETATM   24  S   UNK A   1     -11.270  14.318  67.864  1.00  0.00    -0.300 SA 
BRANCH  24  25
HETATM   25  S   UNK A   1      -9.562  15.425  68.108  1.00  0.00    -0.205 SA 
BRANCH  25  26
HETATM   26  C   UNK A   1      -8.348  14.157  68.616  1.00  0.00    -0.123 C  
BRANCH  26  27
HETATM   27  C   UNK A   1      -7.250  14.644  69.579  1.00  0.00    -0.131 C  
BRANCH  27  28
HETATM   28  C   UNK A   1      -6.137  13.565  69.734  1.00  0.00    -0.127 C  
ATOM     29  H   GLY A   2      -6.805  13.050  71.645  1.00  0.00     0.000 HD 
ATOM     30  N   GLY A   2      -6.146  12.826  70.900  1.00  0.00     0.188 N  
HETATM   31  O   UNK A   1      -5.360  13.282  68.824  1.00  0.00    -0.071 OA 
BRANCH  30  32
ATOM     32  CA  GLY A   2      -5.206  11.724  71.058  1.00  0.00    -0.124 C  
ATOM     33  OXT GLY A   2      -5.229   9.309  71.423  1.00  0.00    -0.037 OA 
ATOM     34  C   GLY A   2      -5.732  10.291  70.892  1.00  0.00    -0.086 C  
ATOM     35  O   GLY A   2      -6.674  10.151  69.941  1.00  0.00    -0.077 OA 
ENDBRANCH  30  32
ENDBRANCH  27  28
BRANCH  27  36
HETATM   36  N   UNK A   1      -6.842  16.054  69.392  1.00  0.00    -0.207 N  
HETATM   37  H   UNK A   1      -6.997  16.718  70.151  1.00  0.00     0.000 HD 
HETATM   38  O   UNK A   1      -5.909  15.752  67.322  1.00  0.00    -0.308 OA 
HETATM   39  C   UNK A   1      -6.260  16.500  68.229  1.00  0.00    -0.124 C  
BRANCH  39  40
HETATM   40  C   UNK A   1      -5.933  17.984  68.165  1.00  0.00    -0.171 C  
BRANCH  40  41
HETATM   41  C   UNK A   1      -5.406  18.521  66.821  1.00  0.00    -0.156 C  
BRANCH  41  42
HETATM   42  C   UNK A   1      -5.745  19.973  66.452  1.00  0.00    -0.170 C  
HETATM   43  N   UNK A   1      -6.320  20.728  67.597  1.00  0.00    -0.282 NA 
HETATM   44  C   UNK A   1      -6.776  19.990  65.339  1.00  0.00    -0.296 C  
HETATM   45  O   UNK A   1      -6.608  19.819  64.145  1.00  0.00    -0.266 OA 
HETATM   46  O   UNK A   1      -8.003  20.165  65.879  1.00  0.00    -0.297 OA 
HETATM   47  H2  UNK A   1      -5.704  20.689  68.409  1.00  0.00     0.000 HD 
HETATM   48  H1  UNK A   1      -6.545  21.692  67.352  1.00  0.00     0.000 HD 
ENDBRANCH  41  42
ENDBRANCH  40  41
ENDBRANCH  39  40
ENDBRANCH  27  36
ENDBRANCH  26  27
ENDBRANCH  25  26
ENDBRANCH  24  25
ENDBRANCH  23  24
ENDBRANCH  14  23
ENDBRANCH  11  14
ENDBRANCH   9  10
ENDBRANCH   8   9
ENDBRANCH   4   8
TORSDOF 17
ENDMDL
MODEL      291
REMARK 921   NORMALIZED FREE ENERGY PREDICTED BY IDOCK:   -2.60 KCAL/MOL
REMARK 922        TOTAL FREE ENERGY PREDICTED BY IDOCK:   -8.15 KCAL/MOL
REMARK 923 INTER-LIGAND FREE ENERGY PREDICTED BY IDOCK:   -7.92 KCAL/MOL
REMARK 924 INTRA-LIGAND FREE ENERGY PREDICTED BY IDOCK:   -0.23 KCAL/MOL
REMARK 927      BINDING AFFINITY PREDICTED BY RF-SCORE:    0.00 PKD
ROOT
HETATM    1  N   UNK A   1     -10.431  16.851  65.294  1.00  0.00    -0.662 NA 
HETATM    2  H1  UNK A   1     -10.346  17.120  64.314  1.00  0.00     0.000 HD 
HETATM    3  H2  UNK A   1      -9.558  17.023  65.792  1.00  0.00     0.000 HD 
HETATM    4  C   UNK A   1     -10.881  15.446  65.487  1.00  0.00    -0.374 C  
HETATM    5  O   UNK A   1     -13.019  14.370  64.940  1.00  0.00    -0.641 OA 
HETATM    6  C   UNK A   1     -12.189  15.234  64.707  1.00  0.00    -0.047 C  
HETATM    7  O   UNK A   1     -12.309  16.142  63.705  1.00  0.00    -0.864 OA 
ENDROOT
BRANCH   4   8
HETATM    8  C   UNK A   1     -11.009  15.043  66.958  1.00  0.00    -0.318 C  
BRANCH   8   9
HETATM    9  C   UNK A   1     -11.978  13.891  67.230  1.00  0.00    -0.446 C  
BRANCH   9  10
HETATM   10  C   UNK A   1     -11.412  12.988  68.301  1.00  0.00    -0.312 C  
HETATM   11  N   UNK A   1     -10.456  12.101  67.852  1.00  0.00    -0.203 N  
HETATM   12  O   UNK A   1     -11.807  13.020  69.463  1.00  0.00    -0.305 OA 
HETATM   13  H   UNK A   1     -10.205  12.075  66.864  1.00  0.00     0.000 HD 
BRANCH  11  14
HETATM   14  C   UNK A   1      -9.804  11.193  68.805  1.00  0.00    -0.192 C  
BRANCH  14  15
HETATM   15  C   UNK A   1      -8.370  10.909  68.314  1.00  0.00    -0.129 C  
ATOM     16  H   GLY A   2      -8.995  11.196  66.362  1.00  0.00     0.000 HD 
ATOM     17  N   GLY A   2      -8.187  10.997  66.951  1.00  0.00    -0.135 N  
HETATM   18  O   UNK A   1      -7.462  10.607  69.072  1.00  0.00    -0.096 OA 
BRANCH  17  19
ATOM     19  CA  GLY A   2      -6.892  10.818  66.319  1.00  0.00    -0.135 C  
ATOM     20  C   GLY A   2      -6.614   9.404  65.832  1.00  0.00    -0.076 C  
ATOM     21  O   GLY A   2      -7.279   8.418  66.504  1.00  0.00    -0.075 OA 
ATOM     22  OXT GLY A   2      -5.811   9.136  64.951  1.00  0.00    -0.061 OA 
ENDBRANCH  17  19
ENDBRANCH  14  15
BRANCH  14  23
HETATM   23  C   UNK A   1     -10.613   9.894  68.959  1.00  0.00    -0.220 C  
BRANCH  23  24
HETATM   24  S   UNK A   1      -9.905   8.414  68.171  1.00  0.00    -0.176 SA 
BRANCH  24  25
HETATM   25  S   UNK A   1     -10.725   6.903  69.288  1.00  0.00    -0.235 SA 
BRANCH  25  26
HETATM   26  C   UNK A   1     -10.259   5.418  68.331  1.00  0.00    -0.163 C  
BRANCH  26  27
HETATM   27  C   UNK A   1      -8.993   4.689  68.819  1.00  0.00    -0.108 C  
BRANCH  27  28
HETATM   28  C   UNK A   1      -7.906   4.671  67.703  1.00  0.00    -0.089 C  
ATOM     29  H   GLY A   2      -9.349   4.497  66.203  1.00  0.00     0.000 HD 
ATOM     30  N   GLY A   2      -8.354   4.610  66.399  1.00  0.00    -0.107 N  
HETATM   31  O   UNK A   1      -6.710   4.831  67.943  1.00  0.00    -0.051 OA 
BRANCH  30  32
ATOM     32  CA  GLY A   2      -7.396   4.706  65.305  1.00  0.00    -0.076 C  
ATOM     33  OXT GLY A   2      -6.502   3.325  63.500  1.00  0.00    -0.025 OA 
ATOM     34  C   GLY A   2      -7.459   3.652  64.190  1.00  0.00    -0.074 C  
ATOM     35  O   GLY A   2      -8.705   3.254  63.870  1.00  0.00    -0.090 OA 
ENDBRANCH  30  32
ENDBRANCH  27  28
BRANCH  27  36
HETATM   36  N   UNK A   1      -8.579   5.023  70.199  1.00  0.00    -0.097 N  
HETATM   37  H   UNK A   1      -8.356   5.992  70.427  1.00  0.00     0.000 HD 
HETATM   38  O   UNK A   1      -8.860   2.911  71.043  1.00  0.00    -0.071 OA 
HETATM   39  C   UNK A   1      -8.483   4.069  71.186  1.00  0.00    -0.076 C  
BRANCH  39  40
HETATM   40  C   UNK A   1      -8.003   4.554  72.546  1.00  0.00    -0.091 C  
BRANCH  40  41
HETATM   41  C   UNK A   1      -8.811   4.091  73.773  1.00  0.00    -0.093 C  
BRANCH  41  42
HETATM   42  C   UNK A   1      -9.882   5.045  74.322  1.00  0.00    -0.180 C  
HETATM   43  N   UNK A   1     -11.261   4.591  74.003  1.00  0.00    -0.247 NA 
HETATM   44  C   UNK A   1      -9.706   6.421  73.706  1.00  0.00    -0.193 C  
HETATM   45  O   UNK A   1      -8.906   7.289  74.002  1.00  0.00    -0.182 OA 
HETATM   46  O   UNK A   1     -10.564   6.549  72.668  1.00  0.00    -0.204 OA 
HETATM   47  H2  UNK A   1     -11.419   3.636  74.325  1.00  0.00     0.000 HD 
HETATM   48  H1  UNK A   1     -11.972   5.225  74.367  1.00  0.00     0.000 HD 
ENDBRANCH  41  42
ENDBRANCH  40  41
ENDBRANCH  39  40
ENDBRANCH  27  36
ENDBRANCH  26  27
ENDBRANCH  25  26
ENDBRANCH  24  25
ENDBRANCH  23  24
ENDBRANCH  14  23
ENDBRANCH  11  14
ENDBRANCH   9  10
ENDBRANCH   8   9
ENDBRANCH   4   8
TORSDOF 17
ENDMDL
MODEL      292
REMARK 921   NORMALIZED FREE ENERGY PREDICTED BY IDOCK:   -2.59 KCAL/MOL
REMARK 922        TOTAL FREE ENERGY PREDICTED BY IDOCK:   -8.13 KCAL/MOL
REMARK 923 INTER-LIGAND FREE ENERGY PREDICTED BY IDOCK:   -6.34 KCAL/MOL
REMARK 924 INTRA-LIGAND FREE ENERGY PREDICTED BY IDOCK:   -1.79 KCAL/MOL
REMARK 927      BINDING AFFINITY PREDICTED BY RF-SCORE:    0.00 PKD
ROOT
HETATM    1  N   UNK A   1     -11.114  15.265  70.486  1.00  0.00    -0.345 NA 
HETATM    2  H1  UNK A   1     -10.627  16.063  70.893  1.00  0.00     0.000 HD 
HETATM    3  H2  UNK A   1     -11.089  14.465  71.119  1.00  0.00     0.000 HD 
HETATM    4  C   UNK A   1     -10.610  14.886  69.138  1.00  0.00    -0.246 C  
HETATM    5  O   UNK A   1     -10.692  16.105  67.007  1.00  0.00    -0.313 OA 
HETATM    6  C   UNK A   1     -10.654  16.125  68.227  1.00  0.00    -0.288 C  
HETATM    7  O   UNK A   1     -10.643  17.267  68.961  1.00  0.00    -0.323 OA 
ENDROOT
BRANCH   4   8
HETATM    8  C   UNK A   1     -11.341  13.689  68.527  1.00  0.00    -0.325 C  
BRANCH   8   9
HETATM    9  C   UNK A   1     -10.545  12.382  68.515  1.00  0.00    -0.251 C  
BRANCH   9  10
HETATM   10  C   UNK A   1      -9.531  12.410  67.396  1.00  0.00    -0.186 C  
HETATM   11  N   UNK A   1      -8.388  11.681  67.645  1.00  0.00    -0.136 N  
HETATM   12  O   UNK A   1      -9.702  13.063  66.371  1.00  0.00    -0.260 OA 
HETATM   13  H   UNK A   1      -8.269  11.202  68.537  1.00  0.00     0.000 HD 
BRANCH  11  14
HETATM   14  C   UNK A   1      -7.341  11.600  66.618  1.00  0.00    -0.028 C  
BRANCH  14  15
HETATM   15  C   UNK A   1      -7.322  10.168  66.043  1.00  0.00    -0.118 C  
ATOM     16  H   GLY A   2      -6.418  10.883  64.325  1.00  0.00     0.000 HD 
ATOM     17  N   GLY A   2      -6.747  10.042  64.798  1.00  0.00    -0.123 N  
HETATM   18  O   UNK A   1      -7.799   9.214  66.637  1.00  0.00    -0.099 OA 
BRANCH  17  19
ATOM     19  CA  GLY A   2      -6.591   8.762  64.130  1.00  0.00    -0.075 C  
ATOM     20  C   GLY A   2      -7.797   8.322  63.314  1.00  0.00    -0.149 C  
ATOM     21  O   GLY A   2      -8.997   8.823  63.736  1.00  0.00     0.053 OA 
ATOM     22  OXT GLY A   2      -7.736   7.527  62.388  1.00  0.00    -0.104 OA 
ENDBRANCH  17  19
ENDBRANCH  14  15
BRANCH  14  23
HETATM   23  C   UNK A   1      -5.973  11.988  67.204  1.00  0.00    -0.153 C  
BRANCH  23  24
HETATM   24  S   UNK A   1      -5.799  11.814  69.008  1.00  0.00    -0.058 SA 
BRANCH  24  25
HETATM   25  S   UNK A   1      -6.198   9.822  69.283  1.00  0.00    -0.037 SA 
BRANCH  25  26
HETATM   26  C   UNK A   1      -6.901   9.798  70.970  1.00  0.00     0.068 C  
BRANCH  26  27
HETATM   27  C   UNK A   1      -7.664   8.515  71.348  1.00  0.00    -0.109 C  
BRANCH  27  28
HETATM   28  C   UNK A   1      -9.196   8.705  71.137  1.00  0.00    -0.213 C  
ATOM     29  H   GLY A   2      -9.617   8.017  73.064  1.00  0.00     0.000 HD 
ATOM     30  N   GLY A   2     -10.012   8.415  72.212  1.00  0.00    -0.291 N  
HETATM   31  O   UNK A   1      -9.665   9.208  70.118  1.00  0.00    -0.179 OA 
BRANCH  30  32
ATOM     32  CA  GLY A   2     -11.442   8.682  72.120  1.00  0.00    -0.373 C  
ATOM     33  OXT GLY A   2     -13.459   7.666  71.188  1.00  0.00    -0.239 OA 
ATOM     34  C   GLY A   2     -12.373   7.522  71.738  1.00  0.00    -0.326 C  
ATOM     35  O   GLY A   2     -12.012   6.328  72.243  1.00  0.00    -0.312 OA 
ENDBRANCH  30  32
ENDBRANCH  27  28
BRANCH  27  36
HETATM   36  N   UNK A   1      -7.040   7.260  70.876  1.00  0.00    -0.067 N  
HETATM   37  H   UNK A   1      -6.821   7.160  69.885  1.00  0.00     0.000 HD 
HETATM   38  O   UNK A   1      -6.842   6.305  72.949  1.00  0.00    -0.075 OA 
HETATM   39  C   UNK A   1      -6.744   6.223  71.730  1.00  0.00    -0.063 C  
BRANCH  39  40
HETATM   40  C   UNK A   1      -6.143   4.978  71.094  1.00  0.00    -0.022 C  
BRANCH  40  41
HETATM   41  C   UNK A   1      -7.110   4.055  70.328  1.00  0.00    -0.041 C  
BRANCH  41  42
HETATM   42  C   UNK A   1      -8.612   4.212  70.602  1.00  0.00    -0.075 C  
HETATM   43  N   UNK A   1      -9.278   2.908  70.866  1.00  0.00    -0.123 NA 
HETATM   44  C   UNK A   1      -9.292   4.828  69.393  1.00  0.00    -0.134 C  
HETATM   45  O   UNK A   1      -9.322   5.997  69.052  1.00  0.00    -0.124 OA 
HETATM   46  O   UNK A   1      -9.844   3.842  68.650  1.00  0.00    -0.082 OA 
HETATM   47  H2  UNK A   1      -8.816   2.406  71.623  1.00  0.00     0.000 HD 
HETATM   48  H1  UNK A   1     -10.276   3.012  71.048  1.00  0.00     0.000 HD 
ENDBRANCH  41  42
ENDBRANCH  40  41
ENDBRANCH  39  40
ENDBRANCH  27  36
ENDBRANCH  26  27
ENDBRANCH  25  26
ENDBRANCH  24  25
ENDBRANCH  23  24
ENDBRANCH  14  23
ENDBRANCH  11  14
ENDBRANCH   9  10
ENDBRANCH   8   9
ENDBRANCH   4   8
TORSDOF 17
ENDMDL
MODEL      293
REMARK 921   NORMALIZED FREE ENERGY PREDICTED BY IDOCK:   -2.59 KCAL/MOL
REMARK 922        TOTAL FREE ENERGY PREDICTED BY IDOCK:   -8.13 KCAL/MOL
REMARK 923 INTER-LIGAND FREE ENERGY PREDICTED BY IDOCK:   -8.16 KCAL/MOL
REMARK 924 INTRA-LIGAND FREE ENERGY PREDICTED BY IDOCK:    0.02 KCAL/MOL
REMARK 927      BINDING AFFINITY PREDICTED BY RF-SCORE:    0.00 PKD
ROOT
HETATM    1  N   UNK A   1     -12.652   9.608  70.686  1.00  0.00    -0.507 NA 
HETATM    2  H1  UNK A   1     -13.620   9.604  70.364  1.00  0.00     0.000 HD 
HETATM    3  H2  UNK A   1     -12.090  10.254  70.131  1.00  0.00     0.000 HD 
HETATM    4  C   UNK A   1     -12.028   8.258  70.712  1.00  0.00    -0.109 C  
HETATM    5  O   UNK A   1     -12.545   6.293  72.093  1.00  0.00    -0.257 OA 
HETATM    6  C   UNK A   1     -12.917   7.319  71.546  1.00  0.00    -0.389 C  
HETATM    7  O   UNK A   1     -14.193   7.780  71.599  1.00  0.00    -0.412 OA 
ENDROOT
BRANCH   4   8
HETATM    8  C   UNK A   1     -10.576   8.264  71.195  1.00  0.00    -0.258 C  
BRANCH   8   9
HETATM    9  C   UNK A   1      -9.729   9.430  70.682  1.00  0.00    -0.336 C  
BRANCH   9  10
HETATM   10  C   UNK A   1      -8.740   8.931  69.655  1.00  0.00    -0.140 C  
HETATM   11  N   UNK A   1      -9.243   7.977  68.796  1.00  0.00    -0.144 N  
HETATM   12  O   UNK A   1      -7.575   9.319  69.622  1.00  0.00    -0.073 OA 
HETATM   13  H   UNK A   1     -10.202   7.646  68.901  1.00  0.00     0.000 HD 
BRANCH  11  14
HETATM   14  C   UNK A   1      -8.389   7.439  67.729  1.00  0.00    -0.118 C  
BRANCH  14  15
HETATM   15  C   UNK A   1      -7.483   6.342  68.326  1.00  0.00    -0.091 C  
ATOM     16  H   GLY A   2      -7.523   7.320  70.149  1.00  0.00     0.000 HD 
ATOM     17  N   GLY A   2      -7.178   6.494  69.661  1.00  0.00    -0.076 N  
HETATM   18  O   UNK A   1      -7.048   5.414  67.663  1.00  0.00    -0.064 OA 
BRANCH  17  19
ATOM     19  CA  GLY A   2      -6.387   5.528  70.401  1.00  0.00    -0.027 C  
ATOM     20  C   GLY A   2      -6.193   5.862  71.872  1.00  0.00    -0.044 C  
ATOM     21  O   GLY A   2      -6.257   7.192  72.179  1.00  0.00    -0.041 OA 
ATOM     22  OXT GLY A   2      -5.930   5.030  72.728  1.00  0.00    -0.023 OA 
ENDBRANCH  17  19
ENDBRANCH  14  15
BRANCH  14  23
HETATM   23  C   UNK A   1      -7.560   8.560  67.079  1.00  0.00    -0.092 C  
BRANCH  23  24
HETATM   24  S   UNK A   1      -5.753   8.418  67.249  1.00  0.00    -0.039 SA 
BRANCH  24  25
HETATM   25  S   UNK A   1      -5.143  10.349  66.927  1.00  0.00    -0.042 SA 
BRANCH  25  26
HETATM   26  C   UNK A   1      -6.725  11.206  66.608  1.00  0.00    -0.137 C  
BRANCH  26  27
HETATM   27  C   UNK A   1      -7.187  12.170  67.716  1.00  0.00    -0.113 C  
BRANCH  27  28
HETATM   28  C   UNK A   1      -6.686  13.617  67.429  1.00  0.00    -0.004 C  
ATOM     29  H   GLY A   2      -8.556  14.430  67.886  1.00  0.00     0.000 HD 
ATOM     30  N   GLY A   2      -7.589  14.640  67.638  1.00  0.00    -0.164 N  
HETATM   31  O   UNK A   1      -5.514  13.868  67.154  1.00  0.00    -0.172 OA 
BRANCH  30  32
ATOM     32  CA  GLY A   2      -7.152  16.024  67.500  1.00  0.00    -0.171 C  
ATOM     33  OXT GLY A   2      -7.088  17.786  65.810  1.00  0.00    -0.422 OA 
ATOM     34  C   GLY A   2      -7.680  16.837  66.310  1.00  0.00    -0.275 C  
ATOM     35  O   GLY A   2      -8.957  16.571  65.976  1.00  0.00    -0.392 OA 
ENDBRANCH  30  32
ENDBRANCH  27  28
BRANCH  27  36
HETATM   36  N   UNK A   1      -8.588  11.985  68.155  1.00  0.00    -0.167 N  
HETATM   37  H   UNK A   1      -8.831  12.183  69.126  1.00  0.00     0.000 HD 
HETATM   38  O   UNK A   1      -9.406  11.425  66.090  1.00  0.00    -0.203 OA 
HETATM   39  C   UNK A   1      -9.573  11.554  67.298  1.00  0.00    -0.172 C  
BRANCH  39  40
HETATM   40  C   UNK A   1     -10.957  11.368  67.902  1.00  0.00    -0.295 C  
BRANCH  40  41
HETATM   41  C   UNK A   1     -12.058  12.333  67.422  1.00  0.00    -0.021 C  
BRANCH  41  42
HETATM   42  C   UNK A   1     -11.626  13.726  66.941  1.00  0.00    -0.370 C  
HETATM   43  N   UNK A   1     -12.285  14.818  67.705  1.00  0.00    -0.562 NA 
HETATM   44  C   UNK A   1     -12.005  13.904  65.482  1.00  0.00    -0.383 C  
HETATM   45  O   UNK A   1     -11.435  13.481  64.493  1.00  0.00    -0.353 OA 
HETATM   46  O   UNK A   1     -13.174  14.581  65.412  1.00  0.00    -0.494 OA 
HETATM   47  H2  UNK A   1     -12.131  14.711  68.707  1.00  0.00     0.000 HD 
HETATM   48  H1  UNK A   1     -11.998  15.743  67.385  1.00  0.00     0.000 HD 
ENDBRANCH  41  42
ENDBRANCH  40  41
ENDBRANCH  39  40
ENDBRANCH  27  36
ENDBRANCH  26  27
ENDBRANCH  25  26
ENDBRANCH  24  25
ENDBRANCH  23  24
ENDBRANCH  14  23
ENDBRANCH  11  14
ENDBRANCH   9  10
ENDBRANCH   8   9
ENDBRANCH   4   8
TORSDOF 17
ENDMDL
MODEL      294
REMARK 921   NORMALIZED FREE ENERGY PREDICTED BY IDOCK:   -2.56 KCAL/MOL
REMARK 922        TOTAL FREE ENERGY PREDICTED BY IDOCK:   -8.06 KCAL/MOL
REMARK 923 INTER-LIGAND FREE ENERGY PREDICTED BY IDOCK:   -7.59 KCAL/MOL
REMARK 924 INTRA-LIGAND FREE ENERGY PREDICTED BY IDOCK:   -0.47 KCAL/MOL
REMARK 927      BINDING AFFINITY PREDICTED BY RF-SCORE:    0.00 PKD
ROOT
HETATM    1  N   UNK A   1     -11.634  14.508  65.700  1.00  0.00    -0.344 NA 
HETATM    2  H1  UNK A   1     -12.152  14.928  64.928  1.00  0.00     0.000 HD 
HETATM    3  H2  UNK A   1     -12.157  13.731  66.105  1.00  0.00     0.000 HD 
HETATM    4  C   UNK A   1     -11.242  15.484  66.753  1.00  0.00    -0.139 C  
HETATM    5  O   UNK A   1      -9.688  17.384  66.661  1.00  0.00    -0.266 OA 
HETATM    6  C   UNK A   1     -10.471  16.640  66.092  1.00  0.00    -0.285 C  
HETATM    7  O   UNK A   1     -10.775  16.734  64.773  1.00  0.00    -0.726 OA 
ENDROOT
BRANCH   4   8
HETATM    8  C   UNK A   1     -10.465  14.854  67.911  1.00  0.00    -0.250 C  
BRANCH   8   9
HETATM    9  C   UNK A   1     -11.049  13.544  68.445  1.00  0.00    -0.298 C  
BRANCH   9  10
HETATM   10  C   UNK A   1     -10.113  12.401  68.130  1.00  0.00    -0.224 C  
HETATM   11  N   UNK A   1     -10.238  11.315  68.971  1.00  0.00    -0.337 N  
HETATM   12  O   UNK A   1      -9.286  12.459  67.225  1.00  0.00    -0.176 OA 
HETATM   13  H   UNK A   1     -10.902  11.339  69.744  1.00  0.00     0.000 HD 
BRANCH  11  14
HETATM   14  C   UNK A   1      -9.408  10.124  68.746  1.00  0.00    -0.168 C  
BRANCH  14  15
HETATM   15  C   UNK A   1     -10.243   9.077  67.980  1.00  0.00    -0.212 C  
ATOM     16  H   GLY A   2      -9.642   7.629  69.329  1.00  0.00     0.000 HD 
ATOM     17  N   GLY A   2     -10.224   7.807  68.511  1.00  0.00    -0.200 N  
HETATM   18  O   UNK A   1     -10.863   9.346  66.962  1.00  0.00    -0.187 OA 
BRANCH  17  19
ATOM     19  CA  GLY A   2     -10.997   6.710  67.955  1.00  0.00    -0.249 C  
ATOM     20  C   GLY A   2     -10.293   5.932  66.855  1.00  0.00    -0.247 C  
ATOM     21  O   GLY A   2      -9.355   6.637  66.155  1.00  0.00    -0.146 OA 
ATOM     22  OXT GLY A   2     -10.572   4.782  66.553  1.00  0.00    -0.259 OA 
ENDBRANCH  17  19
ENDBRANCH  14  15
BRANCH  14  23
HETATM   23  C   UNK A   1      -8.890   9.562  70.081  1.00  0.00    -0.235 C  
BRANCH  23  24
HETATM   24  S   UNK A   1      -7.912   8.030  69.977  1.00  0.00    -0.108 SA 
BRANCH  24  25
HETATM   25  S   UNK A   1      -6.108   8.723  69.294  1.00  0.00    -0.042 SA 
BRANCH  25  26
HETATM   26  C   UNK A   1      -6.603  10.174  68.299  1.00  0.00    -0.054 C  
BRANCH  26  27
HETATM   27  C   UNK A   1      -5.474  10.829  67.481  1.00  0.00    -0.043 C  
BRANCH  27  28
HETATM   28  C   UNK A   1      -5.656  10.536  65.962  1.00  0.00    -0.097 C  
ATOM     29  H   GLY A   2      -6.959   8.950  66.352  1.00  0.00     0.000 HD 
ATOM     30  N   GLY A   2      -6.530   9.522  65.624  1.00  0.00    -0.069 N  
HETATM   31  O   UNK A   1      -5.157  11.243  65.088  1.00  0.00    -0.280 OA 
BRANCH  30  32
ATOM     32  CA  GLY A   2      -6.835   9.274  64.221  1.00  0.00    -0.090 C  
ATOM     33  OXT GLY A   2      -8.780   9.014  62.767  1.00  0.00    -0.216 OA 
ATOM     34  C   GLY A   2      -8.256   9.572  63.724  1.00  0.00    -0.161 C  
ATOM     35  O   GLY A   2      -8.828  10.654  64.284  1.00  0.00    -0.184 OA 
ENDBRANCH  30  32
ENDBRANCH  27  28
BRANCH  27  36
HETATM   36  N   UNK A   1      -5.126  12.205  67.896  1.00  0.00    -0.057 N  
HETATM   37  H   UNK A   1      -4.395  12.704  67.389  1.00  0.00     0.000 HD 
HETATM   38  O   UNK A   1      -6.734  12.372  69.519  1.00  0.00    -0.080 OA 
HETATM   39  C   UNK A   1      -5.756  12.836  68.943  1.00  0.00    -0.072 C  
BRANCH  39  40
HETATM   40  C   UNK A   1      -5.262  14.234  69.282  1.00  0.00    -0.078 C  
BRANCH  40  41
HETATM   41  C   UNK A   1      -5.310  15.280  68.151  1.00  0.00    -0.130 C  
BRANCH  41  42
HETATM   42  C   UNK A   1      -6.637  16.018  67.920  1.00  0.00    -0.144 C  
HETATM   43  N   UNK A   1      -7.110  15.904  66.515  1.00  0.00    -0.154 NA 
HETATM   44  C   UNK A   1      -6.459  17.496  68.216  1.00  0.00    -0.182 C  
HETATM   45  O   UNK A   1      -6.436  18.057  69.297  1.00  0.00    -0.243 OA 
HETATM   46  O   UNK A   1      -6.245  18.154  67.054  1.00  0.00    -0.159 OA 
HETATM   47  H2  UNK A   1      -7.177  14.928  66.228  1.00  0.00     0.000 HD 
HETATM   48  H1  UNK A   1      -7.990  16.394  66.361  1.00  0.00     0.000 HD 
ENDBRANCH  41  42
ENDBRANCH  40  41
ENDBRANCH  39  40
ENDBRANCH  27  36
ENDBRANCH  26  27
ENDBRANCH  25  26
ENDBRANCH  24  25
ENDBRANCH  23  24
ENDBRANCH  14  23
ENDBRANCH  11  14
ENDBRANCH   9  10
ENDBRANCH   8   9
ENDBRANCH   4   8
TORSDOF 17
ENDMDL
MODEL      295
REMARK 921   NORMALIZED FREE ENERGY PREDICTED BY IDOCK:   -2.49 KCAL/MOL
REMARK 922        TOTAL FREE ENERGY PREDICTED BY IDOCK:   -7.94 KCAL/MOL
REMARK 923 INTER-LIGAND FREE ENERGY PREDICTED BY IDOCK:   -8.04 KCAL/MOL
REMARK 924 INTRA-LIGAND FREE ENERGY PREDICTED BY IDOCK:    0.10 KCAL/MOL
REMARK 927      BINDING AFFINITY PREDICTED BY RF-SCORE:    0.00 PKD
ROOT
HETATM    1  N   UNK A   1     -10.041  19.314  65.492  1.00  0.00    -0.315 NA 
HETATM    2  H1  UNK A   1      -9.812  19.292  64.499  1.00  0.00     0.000 HD 
HETATM    3  H2  UNK A   1     -11.052  19.335  65.629  1.00  0.00     0.000 HD 
HETATM    4  C   UNK A   1      -9.387  20.428  66.229  1.00  0.00    -0.143 C  
HETATM    5  O   UNK A   1      -7.013  20.845  66.704  1.00  0.00    -0.270 OA 
HETATM    6  C   UNK A   1      -7.870  20.361  65.981  1.00  0.00    -0.038 C  
HETATM    7  O   UNK A   1      -7.595  19.687  64.836  1.00  0.00    -0.030 OA 
ENDROOT
BRANCH   4   8
HETATM    8  C   UNK A   1      -9.731  20.460  67.720  1.00  0.00    -0.487 C  
BRANCH   8   9
HETATM    9  C   UNK A   1      -9.720  19.098  68.416  1.00  0.00    -0.451 C  
BRANCH   9  10
HETATM   10  C   UNK A   1      -8.304  18.722  68.783  1.00  0.00    -0.287 C  
HETATM   11  N   UNK A   1      -7.872  17.530  68.240  1.00  0.00    -0.244 N  
HETATM   12  O   UNK A   1      -7.617  19.405  69.537  1.00  0.00    -0.206 OA 
HETATM   13  H   UNK A   1      -8.501  16.970  67.667  1.00  0.00     0.000 HD 
BRANCH  11  14
HETATM   14  C   UNK A   1      -6.499  17.072  68.495  1.00  0.00    -0.164 C  
BRANCH  14  15
HETATM   15  C   UNK A   1      -6.178  15.913  67.530  1.00  0.00    -0.158 C  
ATOM     16  H   GLY A   2      -7.686  14.791  68.395  1.00  0.00     0.000 HD 
ATOM     17  N   GLY A   2      -6.978  14.799  67.661  1.00  0.00    -0.173 N  
HETATM   18  O   UNK A   1      -5.267  15.965  66.718  1.00  0.00    -0.186 OA 
BRANCH  17  19
ATOM     19  CA  GLY A   2      -6.857  13.637  66.799  1.00  0.00     1.493 C  
ATOM     20  C   GLY A   2      -6.186  12.436  67.445  1.00  0.00    -0.158 C  
ATOM     21  O   GLY A   2      -5.315  12.731  68.456  1.00  0.00    -0.056 OA 
ATOM     22  OXT GLY A   2      -6.344  11.285  67.066  1.00  0.00    -0.086 OA 
ENDBRANCH  17  19
ENDBRANCH  14  15
BRANCH  14  23
HETATM   23  C   UNK A   1      -6.333  16.644  69.963  1.00  0.00     0.002 C  
BRANCH  23  24
HETATM   24  S   UNK A   1      -7.067  15.041  70.416  1.00  0.00     0.488 SA 
BRANCH  24  25
HETATM   25  S   UNK A   1      -9.061  15.377  70.080  1.00  0.00     0.522 SA 
BRANCH  25  26
HETATM   26  C   UNK A   1      -9.566  13.858  69.197  1.00  0.00     0.261 C  
BRANCH  26  27
HETATM   27  C   UNK A   1     -11.010  13.855  68.662  1.00  0.00    -0.261 C  
BRANCH  27  28
HETATM   28  C   UNK A   1     -11.869  14.929  69.393  1.00  0.00    -0.324 C  
ATOM     29  H   GLY A   2     -12.658  13.507  70.703  1.00  0.00     0.000 HD 
ATOM     30  N   GLY A   2     -12.618  14.499  70.469  1.00  0.00    -0.341 N  
HETATM   31  O   UNK A   1     -11.799  16.127  69.123  1.00  0.00    -0.309 OA 
BRANCH  30  32
ATOM     32  CA  GLY A   2     -13.353  15.472  71.268  1.00  0.00    -0.511 C  
ATOM     33  OXT GLY A   2     -13.630  16.115  73.608  1.00  0.00    -0.584 OA 
ATOM     34  C   GLY A   2     -12.894  15.720  72.712  1.00  0.00    -0.472 C  
ATOM     35  O   GLY A   2     -11.560  15.676  72.888  1.00  0.00    -0.437 OA 
ENDBRANCH  30  32
ENDBRANCH  27  28
BRANCH  27  36
HETATM   36  N   UNK A   1     -11.125  13.743  67.191  1.00  0.00    -0.296 N  
HETATM   37  H   UNK A   1     -11.709  13.006  66.796  1.00  0.00     0.000 HD 
HETATM   38  O   UNK A   1      -9.862  15.595  66.718  1.00  0.00    -0.233 OA 
HETATM   39  C   UNK A   1     -10.471  14.601  66.338  1.00  0.00    -0.295 C  
BRANCH  39  40
HETATM   40  C   UNK A   1     -10.650  14.337  64.850  1.00  0.00    -0.452 C  
BRANCH  40  41
HETATM   41  C   UNK A   1     -10.088  13.009  64.308  1.00  0.00    -0.216 C  
BRANCH  41  42
HETATM   42  C   UNK A   1     -11.028  11.795  64.281  1.00  0.00    -0.359 C  
HETATM   43  N   UNK A   1     -10.764  10.902  63.121  1.00  0.00    -0.731 NA 
HETATM   44  C   UNK A   1     -12.467  12.264  64.171  1.00  0.00    -0.434 C  
HETATM   45  O   UNK A   1     -13.194  12.697  65.047  1.00  0.00    -0.753 OA 
HETATM   46  O   UNK A   1     -12.850  12.202  62.875  1.00  0.00    -0.345 OA 
HETATM   47  H2  UNK A   1      -9.787  10.612  63.095  1.00  0.00     0.000 HD 
HETATM   48  H1  UNK A   1     -11.388  10.096  63.103  1.00  0.00     0.000 HD 
ENDBRANCH  41  42
ENDBRANCH  40  41
ENDBRANCH  39  40
ENDBRANCH  27  36
ENDBRANCH  26  27
ENDBRANCH  25  26
ENDBRANCH  24  25
ENDBRANCH  23  24
ENDBRANCH  14  23
ENDBRANCH  11  14
ENDBRANCH   9  10
ENDBRANCH   8   9
ENDBRANCH   4   8
TORSDOF 17
ENDMDL
MODEL      296
REMARK 921   NORMALIZED FREE ENERGY PREDICTED BY IDOCK:   -2.40 KCAL/MOL
REMARK 922        TOTAL FREE ENERGY PREDICTED BY IDOCK:   -7.76 KCAL/MOL
REMARK 923 INTER-LIGAND FREE ENERGY PREDICTED BY IDOCK:   -6.27 KCAL/MOL
REMARK 924 INTRA-LIGAND FREE ENERGY PREDICTED BY IDOCK:   -1.49 KCAL/MOL
REMARK 927      BINDING AFFINITY PREDICTED BY RF-SCORE:    0.00 PKD
ROOT
HETATM    1  N   UNK A   1      -7.971   5.332  70.037  1.00  0.00    -0.079 NA 
HETATM    2  H1  UNK A   1      -8.024   4.349  70.302  1.00  0.00     0.000 HD 
HETATM    3  H2  UNK A   1      -7.385   5.452  69.210  1.00  0.00     0.000 HD 
HETATM    4  C   UNK A   1      -7.514   6.221  71.138  1.00  0.00    -0.085 C  
HETATM    5  O   UNK A   1      -8.587   6.791  73.273  1.00  0.00    -0.121 OA 
HETATM    6  C   UNK A   1      -8.416   5.995  72.363  1.00  0.00    -0.116 C  
HETATM    7  O   UNK A   1      -9.011   4.776  72.309  1.00  0.00    -0.125 OA 
ENDROOT
BRANCH   4   8
HETATM    8  C   UNK A   1      -7.434   7.697  70.740  1.00  0.00    -0.071 C  
BRANCH   8   9
HETATM    9  C   UNK A   1      -6.188   8.434  71.235  1.00  0.00    -0.040 C  
BRANCH   9  10
HETATM   10  C   UNK A   1      -6.253   9.885  70.819  1.00  0.00    -0.093 C  
HETATM   11  N   UNK A   1      -6.632  10.085  69.509  1.00  0.00    -0.049 N  
HETATM   12  O   UNK A   1      -5.950  10.800  71.580  1.00  0.00    -0.320 OA 
HETATM   13  H   UNK A   1      -6.817   9.288  68.901  1.00  0.00     0.000 HD 
BRANCH  11  14
HETATM   14  C   UNK A   1      -6.767  11.455  68.994  1.00  0.00    -0.092 C  
BRANCH  14  15
HETATM   15  C   UNK A   1      -8.266  11.776  68.831  1.00  0.00     0.057 C  
ATOM     16  H   GLY A   2      -7.801  13.781  68.621  1.00  0.00     0.000 HD 
ATOM     17  N   GLY A   2      -8.563  13.104  68.617  1.00  0.00    -0.038 N  
HETATM   18  O   UNK A   1      -9.135  10.921  68.907  1.00  0.00    -0.171 OA 
BRANCH  17  19
ATOM     19  CA  GLY A   2      -9.916  13.580  68.384  1.00  0.00    -0.232 C  
ATOM     20  C   GLY A   2     -10.205  13.990  66.950  1.00  0.00    -0.260 C  
ATOM     21  O   GLY A   2      -9.117  14.402  66.232  1.00  0.00    -0.213 OA 
ATOM     22  OXT GLY A   2     -11.327  14.024  66.467  1.00  0.00    -0.317 OA 
ENDBRANCH  17  19
ENDBRANCH  14  15
BRANCH  14  23
HETATM   23  C   UNK A   1      -6.010  11.612  67.664  1.00  0.00    -0.064 C  
BRANCH  23  24
HETATM   24  S   UNK A   1      -7.011  11.443  66.152  1.00  0.00     0.264 SA 
BRANCH  24  25
HETATM   25  S   UNK A   1      -6.537   9.544  65.540  1.00  0.00    -0.076 SA 
BRANCH  25  26
HETATM   26  C   UNK A   1      -7.344   8.514  66.816  1.00  0.00    -0.082 C  
BRANCH  26  27
HETATM   27  C   UNK A   1      -8.693   7.894  66.407  1.00  0.00    -0.153 C  
BRANCH  27  28
HETATM   28  C   UNK A   1      -9.759   9.005  66.171  1.00  0.00    -0.283 C  
ATOM     29  H   GLY A   2      -8.813   9.637  64.419  1.00  0.00     0.000 HD 
ATOM     30  N   GLY A   2      -9.625   9.761  65.024  1.00  0.00    -0.287 N  
HETATM   31  O   UNK A   1     -10.749   9.135  66.889  1.00  0.00    -0.203 OA 
BRANCH  30  32
ATOM     32  CA  GLY A   2     -10.652  10.739  64.683  1.00  0.00    -0.199 C  
ATOM     33  OXT GLY A   2     -10.848  12.912  63.586  1.00  0.00    -0.379 OA 
ATOM     34  C   GLY A   2     -10.315  11.810  63.637  1.00  0.00    -0.434 C  
ATOM     35  O   GLY A   2      -9.533  11.379  62.629  1.00  0.00    -0.344 OA 
ENDBRANCH  30  32
ENDBRANCH  27  28
BRANCH  27  36
HETATM   36  N   UNK A   1      -8.596   6.792  65.425  1.00  0.00    -0.307 N  
HETATM   37  H   UNK A   1      -9.197   6.811  64.601  1.00  0.00     0.000 HD 
HETATM   38  O   UNK A   1      -6.871   5.703  66.467  1.00  0.00    -0.056 OA 
HETATM   39  C   UNK A   1      -7.723   5.741  65.586  1.00  0.00    -0.093 C  
BRANCH  39  40
HETATM   40  C   UNK A   1      -7.766   4.660  64.517  1.00  0.00    -0.081 C  
BRANCH  40  41
HETATM   41  C   UNK A   1      -8.192   3.251  64.972  1.00  0.00    -0.094 C  
BRANCH  41  42
HETATM   42  C   UNK A   1      -9.591   3.093  65.584  1.00  0.00     0.005 C  
HETATM   43  N   UNK A   1     -10.555   4.095  65.057  1.00  0.00    -0.564 NA 
HETATM   44  C   UNK A   1      -9.517   3.286  67.088  1.00  0.00    -0.140 C  
HETATM   45  O   UNK A   1      -9.152   2.495  67.938  1.00  0.00    -0.149 OA 
HETATM   46  O   UNK A   1      -9.868   4.558  67.384  1.00  0.00    -0.182 OA 
HETATM   47  H2  UNK A   1     -10.594   4.068  64.039  1.00  0.00     0.000 HD 
HETATM   48  H1  UNK A   1     -11.485   3.990  65.464  1.00  0.00     0.000 HD 
ENDBRANCH  41  42
ENDBRANCH  40  41
ENDBRANCH  39  40
ENDBRANCH  27  36
ENDBRANCH  26  27
ENDBRANCH  25  26
ENDBRANCH  24  25
ENDBRANCH  23  24
ENDBRANCH  14  23
ENDBRANCH  11  14
ENDBRANCH   9  10
ENDBRANCH   8   9
ENDBRANCH   4   8
TORSDOF 17
ENDMDL
MODEL      297
REMARK 921   NORMALIZED FREE ENERGY PREDICTED BY IDOCK:   -2.37 KCAL/MOL
REMARK 922        TOTAL FREE ENERGY PREDICTED BY IDOCK:   -7.69 KCAL/MOL
REMARK 923 INTER-LIGAND FREE ENERGY PREDICTED BY IDOCK:   -6.46 KCAL/MOL
REMARK 924 INTRA-LIGAND FREE ENERGY PREDICTED BY IDOCK:   -1.23 KCAL/MOL
REMARK 927      BINDING AFFINITY PREDICTED BY RF-SCORE:    0.00 PKD
ROOT
HETATM    1  N   UNK A   1      -7.794   4.946  70.424  1.00  0.00    -0.065 NA 
HETATM    2  H1  UNK A   1      -7.891   3.982  70.743  1.00  0.00     0.000 HD 
HETATM    3  H2  UNK A   1      -7.216   4.992  69.585  1.00  0.00     0.000 HD 
HETATM    4  C   UNK A   1      -7.278   5.869  71.471  1.00  0.00    -0.083 C  
HETATM    5  O   UNK A   1      -8.291   6.603  73.585  1.00  0.00    -0.113 OA 
HETATM    6  C   UNK A   1      -8.173   5.752  72.717  1.00  0.00    -0.112 C  
HETATM    7  O   UNK A   1      -8.827   4.563  72.735  1.00  0.00    -0.112 OA 
ENDROOT
BRANCH   4   8
HETATM    8  C   UNK A   1      -7.133   7.315  70.993  1.00  0.00    -0.064 C  
BRANCH   8   9
HETATM    9  C   UNK A   1      -6.049   8.126  71.706  1.00  0.00    -0.040 C  
BRANCH   9  10
HETATM   10  C   UNK A   1      -6.016   9.532  71.155  1.00  0.00    -0.078 C  
HETATM   11  N   UNK A   1      -6.251   9.618  69.799  1.00  0.00    -0.043 N  
HETATM   12  O   UNK A   1      -5.758  10.506  71.856  1.00  0.00    -0.306 OA 
HETATM   13  H   UNK A   1      -6.403   8.772  69.250  1.00  0.00     0.000 HD 
BRANCH  11  14
HETATM   14  C   UNK A   1      -6.280  10.935  69.149  1.00  0.00    -0.047 C  
BRANCH  14  15
HETATM   15  C   UNK A   1      -7.750  11.336  68.911  1.00  0.00    -0.125 C  
ATOM     16  H   GLY A   2      -8.363   9.575  69.808  1.00  0.00     0.000 HD 
ATOM     17  N   GLY A   2      -8.687  10.443  69.382  1.00  0.00    -0.154 N  
HETATM   18  O   UNK A   1      -8.067  12.362  68.329  1.00  0.00    -0.154 OA 
BRANCH  17  19
ATOM     19  CA  GLY A   2     -10.117  10.684  69.296  1.00  0.00    -0.206 C  
ATOM     20  C   GLY A   2     -10.966   9.774  70.169  1.00  0.00    -0.291 C  
ATOM     21  O   GLY A   2     -10.413   8.557  70.449  1.00  0.00    -0.198 OA 
ATOM     22  OXT GLY A   2     -12.092  10.057  70.550  1.00  0.00    -0.274 OA 
ENDBRANCH  17  19
ENDBRANCH  14  15
BRANCH  14  23
HETATM   23  C   UNK A   1      -5.484  10.910  67.833  1.00  0.00    -0.039 C  
BRANCH  23  24
HETATM   24  S   UNK A   1      -6.468  10.982  66.303  1.00  0.00    -0.076 SA 
BRANCH  24  25
HETATM   25  S   UNK A   1      -6.242   9.085  65.562  1.00  0.00    -0.063 SA 
BRANCH  25  26
HETATM   26  C   UNK A   1      -7.377   8.119  66.621  1.00  0.00    -0.082 C  
BRANCH  26  27
HETATM   27  C   UNK A   1      -8.732   7.762  65.981  1.00  0.00    -0.161 C  
BRANCH  27  28
HETATM   28  C   UNK A   1      -9.770   8.898  66.224  1.00  0.00    -0.275 C  
ATOM     29  H   GLY A   2      -9.045  10.000  64.603  1.00  0.00     0.000 HD 
ATOM     30  N   GLY A   2      -9.760   9.949  65.329  1.00  0.00    -0.301 N  
HETATM   31  O   UNK A   1     -10.645   8.821  67.084  1.00  0.00    -0.291 OA 
BRANCH  30  32
ATOM     32  CA  GLY A   2     -10.780  10.987  65.429  1.00  0.00    -0.152 C  
ATOM     33  OXT GLY A   2     -11.324  13.149  64.433  1.00  0.00    -0.333 OA 
ATOM     34  C   GLY A   2     -10.882  12.015  64.294  1.00  0.00    -0.339 C  
ATOM     35  O   GLY A   2     -10.646  11.515  63.066  1.00  0.00    -0.270 OA 
ENDBRANCH  30  32
ENDBRANCH  27  28
BRANCH  27  36
HETATM   36  N   UNK A   1      -8.642   7.167  64.630  1.00  0.00    -0.340 N  
HETATM   37  H   UNK A   1      -9.092   7.646  63.849  1.00  0.00     0.000 HD 
HETATM   38  O   UNK A   1      -7.289   5.420  65.234  1.00  0.00    -0.066 OA 
HETATM   39  C   UNK A   1      -7.972   5.990  64.390  1.00  0.00    -0.123 C  
BRANCH  39  40
HETATM   40  C   UNK A   1      -8.002   5.479  62.958  1.00  0.00    -0.099 C  
BRANCH  40  41
HETATM   41  C   UNK A   1      -8.215   3.965  62.766  1.00  0.00    -0.080 C  
BRANCH  41  42
HETATM   42  C   UNK A   1      -9.660   3.455  62.676  1.00  0.00    -0.098 C  
HETATM   43  N   UNK A   1     -10.621   4.538  62.337  1.00  0.00    -0.420 NA 
HETATM   44  C   UNK A   1     -10.084   2.880  64.015  1.00  0.00    -0.142 C  
HETATM   45  O   UNK A   1      -9.822   1.790  64.490  1.00  0.00    -0.066 OA 
HETATM   46  O   UNK A   1     -10.783   3.817  64.694  1.00  0.00    -0.178 OA 
HETATM   47  H2  UNK A   1     -10.347   5.018  61.480  1.00  0.00     0.000 HD 
HETATM   48  H1  UNK A   1     -11.582   4.199  62.278  1.00  0.00     0.000 HD 
ENDBRANCH  41  42
ENDBRANCH  40  41
ENDBRANCH  39  40
ENDBRANCH  27  36
ENDBRANCH  26  27
ENDBRANCH  25  26
ENDBRANCH  24  25
ENDBRANCH  23  24
ENDBRANCH  14  23
ENDBRANCH  11  14
ENDBRANCH   9  10
ENDBRANCH   8   9
ENDBRANCH   4   8
TORSDOF 17
ENDMDL
MODEL      298
REMARK 921   NORMALIZED FREE ENERGY PREDICTED BY IDOCK:   -2.34 KCAL/MOL
REMARK 922        TOTAL FREE ENERGY PREDICTED BY IDOCK:   -7.63 KCAL/MOL
REMARK 923 INTER-LIGAND FREE ENERGY PREDICTED BY IDOCK:   -7.76 KCAL/MOL
REMARK 924 INTRA-LIGAND FREE ENERGY PREDICTED BY IDOCK:    0.13 KCAL/MOL
REMARK 927      BINDING AFFINITY PREDICTED BY RF-SCORE:    0.00 PKD
ROOT
HETATM    1  N   UNK A   1     -12.556   9.565  70.647  1.00  0.00    -0.507 NA 
HETATM    2  H1  UNK A   1     -13.548   9.763  70.517  1.00  0.00     0.000 HD 
HETATM    3  H2  UNK A   1     -11.999  10.024  69.927  1.00  0.00     0.000 HD 
HETATM    4  C   UNK A   1     -12.243   8.111  70.709  1.00  0.00    -0.002 C  
HETATM    5  O   UNK A   1     -12.865   6.419  72.378  1.00  0.00    -0.031 OA 
HETATM    6  C   UNK A   1     -13.117   7.464  71.798  1.00  0.00    -0.317 C  
HETATM    7  O   UNK A   1     -14.225   8.210  72.038  1.00  0.00    -0.396 OA 
ENDROOT
BRANCH   4   8
HETATM    8  C   UNK A   1     -10.755   7.814  70.905  1.00  0.00    -0.229 C  
BRANCH   8   9
HETATM    9  C   UNK A   1      -9.805   8.743  70.146  1.00  0.00    -0.192 C  
BRANCH   9  10
HETATM   10  C   UNK A   1      -9.403   8.105  68.837  1.00  0.00    -0.147 C  
HETATM   11  N   UNK A   1     -10.462   7.737  68.034  1.00  0.00    -0.298 N  
HETATM   12  O   UNK A   1      -8.230   7.898  68.540  1.00  0.00    -0.124 OA 
HETATM   13  H   UNK A   1     -11.420   7.878  68.352  1.00  0.00     0.000 HD 
BRANCH  11  14
HETATM   14  C   UNK A   1     -10.201   7.138  66.718  1.00  0.00    -0.219 C  
BRANCH  14  15
HETATM   15  C   UNK A   1      -9.859   5.647  66.912  1.00  0.00    -0.159 C  
ATOM     16  H   GLY A   2      -9.909   5.915  68.963  1.00  0.00     0.000 HD 
ATOM     17  N   GLY A   2      -9.782   5.227  68.222  1.00  0.00    -0.133 N  
HETATM   18  O   UNK A   1      -9.650   4.892  65.975  1.00  0.00    -0.155 OA 
BRANCH  17  19
ATOM     19  CA  GLY A   2      -9.528   3.846  68.591  1.00  0.00    -0.150 C  
ATOM     20  C   GLY A   2      -8.281   3.635  69.435  1.00  0.00    -0.053 C  
ATOM     21  O   GLY A   2      -7.302   4.574  69.269  1.00  0.00    -0.051 OA 
ATOM     22  OXT GLY A   2      -8.111   2.670  70.165  1.00  0.00    -0.042 OA 
ENDBRANCH  17  19
ENDBRANCH  14  15
BRANCH  14  23
HETATM   23  C   UNK A   1      -9.066   7.886  65.997  1.00  0.00    -0.132 C  
BRANCH  23  24
HETATM   24  S   UNK A   1      -7.484   6.996  65.860  1.00  0.00    -0.083 SA 
BRANCH  24  25
HETATM   25  S   UNK A   1      -6.180   8.512  65.410  1.00  0.00    -0.049 SA 
BRANCH  25  26
HETATM   26  C   UNK A   1      -7.264   9.983  65.467  1.00  0.00    -0.133 C  
BRANCH  26  27
HETATM   27  C   UNK A   1      -7.336  10.697  66.829  1.00  0.00    -0.120 C  
BRANCH  27  28
HETATM   28  C   UNK A   1      -6.373  11.922  66.859  1.00  0.00    -0.107 C  
ATOM     29  H   GLY A   2      -7.586  12.929  68.230  1.00  0.00     0.000 HD 
ATOM     30  N   GLY A   2      -6.705  12.952  67.715  1.00  0.00    -0.124 N  
HETATM   31  O   UNK A   1      -5.302  11.935  66.256  1.00  0.00    -0.308 OA 
BRANCH  30  32
ATOM     32  CA  GLY A   2      -5.789  14.074  67.878  1.00  0.00    -0.122 C  
ATOM     33  OXT GLY A   2      -5.668  16.457  67.353  1.00  0.00    -0.139 OA 
ATOM     34  C   GLY A   2      -6.343  15.495  67.700  1.00  0.00    -0.155 C  
ATOM     35  O   GLY A   2      -7.597  15.666  68.161  1.00  0.00    -0.116 OA 
ENDBRANCH  30  32
ENDBRANCH  27  28
BRANCH  27  36
HETATM   36  N   UNK A   1      -8.702  10.863  67.371  1.00  0.00    -0.130 N  
HETATM   37  H   UNK A   1      -8.896  10.557  68.325  1.00  0.00     0.000 HD 
HETATM   38  O   UNK A   1      -9.552  11.935  65.533  1.00  0.00    -0.232 OA 
HETATM   39  C   UNK A   1      -9.721  11.416  66.631  1.00  0.00    -0.200 C  
BRANCH  39  40
HETATM   40  C   UNK A   1     -11.083  11.482  67.305  1.00  0.00    -0.351 C  
BRANCH  40  41
HETATM   41  C   UNK A   1     -11.391  12.751  68.124  1.00  0.00    -0.329 C  
BRANCH  41  42
HETATM   42  C   UNK A   1     -12.119  13.899  67.411  1.00  0.00    -0.345 C  
HETATM   43  N   UNK A   1     -12.096  13.751  65.931  1.00  0.00    -0.405 NA 
HETATM   44  C   UNK A   1     -11.444  15.218  67.742  1.00  0.00    -0.303 C  
HETATM   45  O   UNK A   1     -11.550  15.893  68.750  1.00  0.00    -0.373 OA 
HETATM   46  O   UNK A   1     -10.597  15.541  66.738  1.00  0.00    -0.299 OA 
HETATM   47  H2  UNK A   1     -12.469  12.846  65.646  1.00  0.00     0.000 HD 
HETATM   48  H1  UNK A   1     -12.579  14.514  65.457  1.00  0.00     0.000 HD 
ENDBRANCH  41  42
ENDBRANCH  40  41
ENDBRANCH  39  40
ENDBRANCH  27  36
ENDBRANCH  26  27
ENDBRANCH  25  26
ENDBRANCH  24  25
ENDBRANCH  23  24
ENDBRANCH  14  23
ENDBRANCH  11  14
ENDBRANCH   9  10
ENDBRANCH   8   9
ENDBRANCH   4   8
TORSDOF 17
ENDMDL
MODEL      299
REMARK 921   NORMALIZED FREE ENERGY PREDICTED BY IDOCK:   -2.30 KCAL/MOL
REMARK 922        TOTAL FREE ENERGY PREDICTED BY IDOCK:   -7.55 KCAL/MOL
REMARK 923 INTER-LIGAND FREE ENERGY PREDICTED BY IDOCK:   -6.84 KCAL/MOL
REMARK 924 INTRA-LIGAND FREE ENERGY PREDICTED BY IDOCK:   -0.70 KCAL/MOL
REMARK 927      BINDING AFFINITY PREDICTED BY RF-SCORE:    0.00 PKD
ROOT
HETATM    1  N   UNK A   1      -8.717  17.176  65.782  1.00  0.00    -0.494 NA 
HETATM    2  H1  UNK A   1      -8.101  17.905  65.424  1.00  0.00     0.000 HD 
HETATM    3  H2  UNK A   1      -9.208  16.711  65.018  1.00  0.00     0.000 HD 
HETATM    4  C   UNK A   1      -9.679  17.660  66.808  1.00  0.00    -0.300 C  
HETATM    5  O   UNK A   1      -9.288  18.529  69.072  1.00  0.00    -0.246 OA 
HETATM    6  C   UNK A   1      -8.894  18.365  67.928  1.00  0.00    -0.280 C  
HETATM    7  O   UNK A   1      -7.686  18.791  67.480  1.00  0.00    -0.228 OA 
ENDROOT
BRANCH   4   8
HETATM    8  C   UNK A   1     -10.603  16.565  67.346  1.00  0.00    -0.300 C  
BRANCH   8   9
HETATM    9  C   UNK A   1     -10.750  15.342  66.440  1.00  0.00    -0.318 C  
BRANCH   9  10
HETATM   10  C   UNK A   1      -9.535  14.454  66.576  1.00  0.00    -0.289 C  
HETATM   11  N   UNK A   1      -9.795  13.211  67.114  1.00  0.00    -0.231 N  
HETATM   12  O   UNK A   1      -8.408  14.832  66.269  1.00  0.00     0.159 OA 
HETATM   13  H   UNK A   1     -10.741  12.966  67.406  1.00  0.00     0.000 HD 
BRANCH  11  14
HETATM   14  C   UNK A   1      -8.701  12.242  67.263  1.00  0.00    -0.188 C  
BRANCH  14  15
HETATM   15  C   UNK A   1      -8.903  11.107  66.239  1.00  0.00    -0.185 C  
ATOM     16  H   GLY A   2      -7.056  10.330  66.756  1.00  0.00     0.000 HD 
ATOM     17  N   GLY A   2      -7.880  10.187  66.173  1.00  0.00    -0.111 N  
HETATM   18  O   UNK A   1      -9.888  11.035  65.521  1.00  0.00    -0.218 OA 
BRANCH  17  19
ATOM     19  CA  GLY A   2      -7.926   9.021  65.308  1.00  0.00    -0.114 C  
ATOM     20  C   GLY A   2      -6.714   8.109  65.409  1.00  0.00    -0.052 C  
ATOM     21  O   GLY A   2      -5.558   8.721  65.806  1.00  0.00    -0.047 OA 
ATOM     22  OXT GLY A   2      -6.727   6.926  65.101  1.00  0.00    -0.048 OA 
ENDBRANCH  17  19
ENDBRANCH  14  15
BRANCH  14  23
HETATM   23  C   UNK A   1      -8.649  11.700  68.702  1.00  0.00    -0.086 C  
BRANCH  23  24
HETATM   24  S   UNK A   1      -9.739  10.286  69.062  1.00  0.00    -0.215 SA 
BRANCH  24  25
HETATM   25  S   UNK A   1      -8.388   8.796  69.454  1.00  0.00    -0.119 SA 
BRANCH  25  26
HETATM   26  C   UNK A   1      -8.497   8.643  71.272  1.00  0.00    -0.179 C  
BRANCH  26  27
HETATM   27  C   UNK A   1      -9.147   7.345  71.787  1.00  0.00    -0.129 C  
BRANCH  27  28
HETATM   28  C   UNK A   1     -10.699   7.474  71.794  1.00  0.00    -0.211 C  
ATOM     29  H   GLY A   2     -10.605   9.409  72.574  1.00  0.00     0.000 HD 
ATOM     30  N   GLY A   2     -11.221   8.681  72.212  1.00  0.00    -0.357 N  
HETATM   31  O   UNK A   1     -11.437   6.603  71.335  1.00  0.00    -0.272 OA 
BRANCH  30  32
ATOM     32  CA  GLY A   2     -12.659   8.908  72.134  1.00  0.00    -0.399 C  
ATOM     33  OXT GLY A   2     -14.242  10.768  72.140  1.00  0.00     0.451 OA 
ATOM     34  C   GLY A   2     -13.152  10.323  71.801  1.00  0.00    -0.465 C  
ATOM     35  O   GLY A   2     -12.386  10.987  70.915  1.00  0.00    -0.350 OA 
ENDBRANCH  30  32
ENDBRANCH  27  28
BRANCH  27  36
HETATM   36  N   UNK A   1      -8.547   6.100  71.259  1.00  0.00    -0.128 N  
HETATM   37  H   UNK A   1      -8.414   6.004  70.253  1.00  0.00     0.000 HD 
HETATM   38  O   UNK A   1      -8.156   5.146  73.306  1.00  0.00    -0.109 OA 
HETATM   39  C   UNK A   1      -8.163   5.067  72.082  1.00  0.00    -0.116 C  
BRANCH  39  40
HETATM   40  C   UNK A   1      -7.601   3.832  71.394  1.00  0.00    -0.056 C  
BRANCH  40  41
HETATM   41  C   UNK A   1      -8.619   2.872  70.751  1.00  0.00    -0.109 C  
BRANCH  41  42
HETATM   42  C   UNK A   1      -9.077   3.174  69.317  1.00  0.00    -0.136 C  
HETATM   43  N   UNK A   1      -9.492   1.948  68.585  1.00  0.00    -0.173 NA 
HETATM   44  C   UNK A   1      -7.936   3.800  68.536  1.00  0.00    -0.070 C  
HETATM   45  O   UNK A   1      -7.542   4.952  68.560  1.00  0.00    -0.076 OA 
HETATM   46  O   UNK A   1      -7.322   2.839  67.809  1.00  0.00    -0.052 OA 
HETATM   47  H2  UNK A   1     -10.208   1.437  69.099  1.00  0.00     0.000 HD 
HETATM   48  H1  UNK A   1      -9.795   2.149  67.632  1.00  0.00     0.000 HD 
ENDBRANCH  41  42
ENDBRANCH  40  41
ENDBRANCH  39  40
ENDBRANCH  27  36
ENDBRANCH  26  27
ENDBRANCH  25  26
ENDBRANCH  24  25
ENDBRANCH  23  24
ENDBRANCH  14  23
ENDBRANCH  11  14
ENDBRANCH   9  10
ENDBRANCH   8   9
ENDBRANCH   4   8
TORSDOF 17
ENDMDL
MODEL      300
REMARK 921   NORMALIZED FREE ENERGY PREDICTED BY IDOCK:   -2.19 KCAL/MOL
REMARK 922        TOTAL FREE ENERGY PREDICTED BY IDOCK:   -7.34 KCAL/MOL
REMARK 923 INTER-LIGAND FREE ENERGY PREDICTED BY IDOCK:   -7.14 KCAL/MOL
REMARK 924 INTRA-LIGAND FREE ENERGY PREDICTED BY IDOCK:   -0.20 KCAL/MOL
REMARK 927      BINDING AFFINITY PREDICTED BY RF-SCORE:    0.00 PKD
ROOT
HETATM    1  N   UNK A   1     -10.889  19.068  66.827  1.00  0.00    -0.345 NA 
HETATM    2  H1  UNK A   1     -10.719  19.709  67.601  1.00  0.00     0.000 HD 
HETATM    3  H2  UNK A   1     -11.723  18.506  67.000  1.00  0.00     0.000 HD 
HETATM    4  C   UNK A   1      -9.725  18.198  66.508  1.00  0.00    -0.344 C  
HETATM    5  O   UNK A   1      -7.504  18.771  65.628  1.00  0.00    -0.488 OA 
HETATM    6  C   UNK A   1      -8.493  19.089  66.270  1.00  0.00    -0.280 C  
HETATM    7  O   UNK A   1      -8.643  20.295  66.874  1.00  0.00    -0.320 OA 
ENDROOT
BRANCH   4   8
HETATM    8  C   UNK A   1      -9.980  17.237  65.345  1.00  0.00     0.328 C  
BRANCH   8   9
HETATM    9  C   UNK A   1     -11.147  16.269  65.550  1.00  0.00    -0.035 C  
BRANCH   9  10
HETATM   10  C   UNK A   1     -11.043  15.623  66.912  1.00  0.00    -0.181 C  
HETATM   11  N   UNK A   1     -10.329  14.444  66.930  1.00  0.00    -0.263 N  
HETATM   12  O   UNK A   1     -11.587  16.095  67.906  1.00  0.00    -0.181 OA 
HETATM   13  H   UNK A   1      -9.944  14.064  66.065  1.00  0.00     0.000 HD 
BRANCH  11  14
HETATM   14  C   UNK A   1     -10.126  13.738  68.202  1.00  0.00    -0.245 C  
BRANCH  14  15
HETATM   15  C   UNK A   1      -9.068  14.500  69.027  1.00  0.00    -0.053 C  
ATOM     16  H   GLY A   2      -7.666  14.125  67.552  1.00  0.00     0.000 HD 
ATOM     17  N   GLY A   2      -7.823  14.590  68.446  1.00  0.00    -0.127 N  
HETATM   18  O   UNK A   1      -9.307  14.974  70.127  1.00  0.00     0.139 OA 
BRANCH  17  19
ATOM     19  CA  GLY A   2      -6.723  15.319  69.052  1.00  0.00    -0.122 C  
ATOM     20  C   GLY A   2      -6.020  16.294  68.122  1.00  0.00    -0.109 C  
ATOM     21  O   GLY A   2      -6.088  15.981  66.793  1.00  0.00    -0.272 OA 
ATOM     22  OXT GLY A   2      -5.376  17.258  68.509  1.00  0.00    -0.140 OA 
ENDBRANCH  17  19
ENDBRANCH  14  15
BRANCH  14  23
HETATM   23  C   UNK A   1      -9.702  12.280  67.953  1.00  0.00    -0.202 C  
BRANCH  23  24
HETATM   24  S   UNK A   1     -10.980  11.184  67.260  1.00  0.00    -0.302 SA 
BRANCH  24  25
HETATM   25  S   UNK A   1      -9.851   9.734  66.353  1.00  0.00    -0.251 SA 
BRANCH  25  26
HETATM   26  C   UNK A   1     -10.359   8.228  67.256  1.00  0.00    -0.302 C  
BRANCH  26  27
HETATM   27  C   UNK A   1      -9.384   7.039  67.157  1.00  0.00    -0.143 C  
BRANCH  27  28
HETATM   28  C   UNK A   1      -8.095   7.449  66.385  1.00  0.00    -0.118 C  
ATOM     29  H   GLY A   2      -8.961   6.968  64.546  1.00  0.00     0.000 HD 
ATOM     30  N   GLY A   2      -8.142   7.363  65.008  1.00  0.00    -0.129 N  
HETATM   31  O   UNK A   1      -7.120   7.947  66.944  1.00  0.00    -0.074 OA 
BRANCH  30  32
ATOM     32  CA  GLY A   2      -7.012   7.841  64.220  1.00  0.00    -0.068 C  
ATOM     33  OXT GLY A   2      -6.479   9.627  62.642  1.00  0.00    -0.098 OA 
ATOM     34  C   GLY A   2      -7.077   9.264  63.647  1.00  0.00    -0.094 C  
ATOM     35  O   GLY A   2      -7.675  10.162  64.453  1.00  0.00    -0.143 OA 
ENDBRANCH  30  32
ENDBRANCH  27  28
BRANCH  27  36
HETATM   36  N   UNK A   1      -9.239   6.251  68.401  1.00  0.00    -0.113 N  
HETATM   37  H   UNK A   1      -8.302   6.031  68.739  1.00  0.00     0.000 HD 
HETATM   38  O   UNK A   1     -11.479   6.136  68.866  1.00  0.00    -0.305 OA 
HETATM   39  C   UNK A   1     -10.325   5.805  69.117  1.00  0.00    -0.248 C  
BRANCH  39  40
HETATM   40  C   UNK A   1     -10.021   4.971  70.351  1.00  0.00    -0.317 C  
BRANCH  40  41
HETATM   41  C   UNK A   1      -9.292   5.681  71.507  1.00  0.00    -0.166 C  
BRANCH  41  42
HETATM   42  C   UNK A   1     -10.145   6.475  72.507  1.00  0.00    -0.172 C  
HETATM   43  N   UNK A   1     -11.251   7.216  71.843  1.00  0.00    -0.243 NA 
HETATM   44  C   UNK A   1      -9.281   7.500  73.218  1.00  0.00    -0.205 C  
HETATM   45  O   UNK A   1      -8.510   7.331  74.146  1.00  0.00    -0.156 OA 
HETATM   46  O   UNK A   1      -9.430   8.698  72.610  1.00  0.00    -0.255 OA 
HETATM   47  H2  UNK A   1     -11.828   6.590  71.282  1.00  0.00     0.000 HD 
HETATM   48  H1  UNK A   1     -11.818   7.743  72.507  1.00  0.00     0.000 HD 
ENDBRANCH  41  42
ENDBRANCH  40  41
ENDBRANCH  39  40
ENDBRANCH  27  36
ENDBRANCH  26  27
ENDBRANCH  25  26
ENDBRANCH  24  25
ENDBRANCH  23  24
ENDBRANCH  14  23
ENDBRANCH  11  14
ENDBRANCH   9  10
ENDBRANCH   8   9
ENDBRANCH   4   8
TORSDOF 17
ENDMDL
MODEL      301
REMARK 921   NORMALIZED FREE ENERGY PREDICTED BY IDOCK:   -2.15 KCAL/MOL
REMARK 922        TOTAL FREE ENERGY PREDICTED BY IDOCK:   -7.25 KCAL/MOL
REMARK 923 INTER-LIGAND FREE ENERGY PREDICTED BY IDOCK:   -6.84 KCAL/MOL
REMARK 924 INTRA-LIGAND FREE ENERGY PREDICTED BY IDOCK:   -0.41 KCAL/MOL
REMARK 927      BINDING AFFINITY PREDICTED BY RF-SCORE:    0.00 PKD
ROOT
HETATM    1  N   UNK A   1     -10.788  19.241  66.895  1.00  0.00    -0.434 NA 
HETATM    2  H1  UNK A   1     -10.591  20.015  67.530  1.00  0.00     0.000 HD 
HETATM    3  H2  UNK A   1     -11.624  18.737  67.190  1.00  0.00     0.000 HD 
HETATM    4  C   UNK A   1      -9.643  18.308  66.723  1.00  0.00    -0.299 C  
HETATM    5  O   UNK A   1      -7.438  18.665  65.702  1.00  0.00    -0.496 OA 
HETATM    6  C   UNK A   1      -8.407  19.116  66.292  1.00  0.00    -0.299 C  
HETATM    7  O   UNK A   1      -8.527  20.417  66.658  1.00  0.00    -0.252 OA 
ENDROOT
BRANCH   4   8
HETATM    8  C   UNK A   1      -9.939  17.147  65.770  1.00  0.00    -0.142 C  
BRANCH   8   9
HETATM    9  C   UNK A   1     -10.893  16.085  66.321  1.00  0.00    -0.166 C  
BRANCH   9  10
HETATM   10  C   UNK A   1     -10.320  15.489  67.586  1.00  0.00    -0.269 C  
HETATM   11  N   UNK A   1      -9.163  14.763  67.400  1.00  0.00    -0.190 N  
HETATM   12  O   UNK A   1     -10.870  15.611  68.677  1.00  0.00    -0.249 OA 
HETATM   13  H   UNK A   1      -8.777  14.644  66.464  1.00  0.00     0.000 HD 
BRANCH  11  14
HETATM   14  C   UNK A   1      -8.489  14.163  68.559  1.00  0.00    -0.157 C  
BRANCH  14  15
HETATM   15  C   UNK A   1      -7.185  14.941  68.830  1.00  0.00    -0.128 C  
ATOM     16  H   GLY A   2      -7.773  16.379  67.463  1.00  0.00     0.000 HD 
ATOM     17  N   GLY A   2      -7.047  16.120  68.131  1.00  0.00    -0.127 N  
HETATM   18  O   UNK A   1      -6.323  14.536  69.594  1.00  0.00    -0.120 OA 
BRANCH  17  19
ATOM     19  CA  GLY A   2      -5.912  17.009  68.304  1.00  0.00    -0.134 C  
ATOM     20  C   GLY A   2      -6.169  18.192  69.224  1.00  0.00    -0.253 C  
ATOM     21  O   GLY A   2      -7.473  18.594  69.303  1.00  0.00    -0.192 OA 
ATOM     22  OXT GLY A   2      -5.285  18.801  69.808  1.00  0.00    -0.187 OA 
ENDBRANCH  17  19
ENDBRANCH  14  15
BRANCH  14  23
HETATM   23  C   UNK A   1      -8.212  12.670  68.314  1.00  0.00    -0.164 C  
BRANCH  23  24
HETATM   24  S   UNK A   1      -9.571  11.719  67.561  1.00  0.00    -0.179 SA 
BRANCH  24  25
HETATM   25  S   UNK A   1      -8.741   9.852  67.392  1.00  0.00    -0.128 SA 
BRANCH  25  26
HETATM   26  C   UNK A   1     -10.214   8.770  67.426  1.00  0.00    -0.252 C  
BRANCH  26  27
HETATM   27  C   UNK A   1      -9.985   7.329  66.934  1.00  0.00    -0.232 C  
BRANCH  27  28
HETATM   28  C   UNK A   1      -8.634   7.219  66.166  1.00  0.00    -0.149 C  
ATOM     29  H   GLY A   2      -9.518   7.850  64.382  1.00  0.00     0.000 HD 
ATOM     30  N   GLY A   2      -8.642   7.596  64.838  1.00  0.00     0.029 N  
HETATM   31  O   UNK A   1      -7.576   6.937  66.726  1.00  0.00    -0.087 OA 
BRANCH  30  32
ATOM     32  CA  GLY A   2      -7.389   7.628  64.093  1.00  0.00    -0.094 C  
ATOM     33  OXT GLY A   2      -5.252   6.449  64.014  1.00  0.00    -0.020 OA 
ATOM     34  C   GLY A   2      -6.466   6.405  64.175  1.00  0.00    -0.030 C  
ATOM     35  O   GLY A   2      -7.109   5.223  64.225  1.00  0.00    -0.048 OA 
ENDBRANCH  30  32
ENDBRANCH  27  28
BRANCH  27  36
HETATM   36  N   UNK A   1     -10.322   6.277  67.919  1.00  0.00    -0.169 N  
HETATM   37  H   UNK A   1     -10.869   5.473  67.613  1.00  0.00     0.000 HD 
HETATM   38  O   UNK A   1      -9.150   7.202  69.657  1.00  0.00    -0.141 OA 
HETATM   39  C   UNK A   1      -9.922   6.348  69.233  1.00  0.00    -0.153 C  
BRANCH  39  40
HETATM   40  C   UNK A   1     -10.380   5.215  70.138  1.00  0.00    -0.340 C  
BRANCH  40  41
HETATM   41  C   UNK A   1      -9.326   4.153  70.507  1.00  0.00    -0.211 C  
BRANCH  41  42
HETATM   42  C   UNK A   1      -9.503   2.742  69.927  1.00  0.00    -0.091 C  
HETATM   43  N   UNK A   1      -9.291   1.681  70.948  1.00  0.00    -0.102 NA 
HETATM   44  C   UNK A   1      -8.489   2.512  68.822  1.00  0.00    -0.067 C  
HETATM   45  O   UNK A   1      -8.524   2.896  67.667  1.00  0.00    -0.080 OA 
HETATM   46  O   UNK A   1      -7.432   1.838  69.329  1.00  0.00    -0.043 OA 
HETATM   47  H2  UNK A   1      -9.894   1.824  71.758  1.00  0.00     0.000 HD 
HETATM   48  H1  UNK A   1      -9.408   0.744  70.563  1.00  0.00     0.000 HD 
ENDBRANCH  41  42
ENDBRANCH  40  41
ENDBRANCH  39  40
ENDBRANCH  27  36
ENDBRANCH  26  27
ENDBRANCH  25  26
ENDBRANCH  24  25
ENDBRANCH  23  24
ENDBRANCH  14  23
ENDBRANCH  11  14
ENDBRANCH   9  10
ENDBRANCH   8   9
ENDBRANCH   4   8
TORSDOF 17
ENDMDL
MODEL      302
REMARK 921   NORMALIZED FREE ENERGY PREDICTED BY IDOCK:   -2.10 KCAL/MOL
REMARK 922        TOTAL FREE ENERGY PREDICTED BY IDOCK:   -7.16 KCAL/MOL
REMARK 923 INTER-LIGAND FREE ENERGY PREDICTED BY IDOCK:   -6.60 KCAL/MOL
REMARK 924 INTRA-LIGAND FREE ENERGY PREDICTED BY IDOCK:   -0.57 KCAL/MOL
REMARK 927      BINDING AFFINITY PREDICTED BY RF-SCORE:    0.00 PKD
ROOT
HETATM    1  N   UNK A   1     -10.798  19.211  66.900  1.00  0.00    -0.412 NA 
HETATM    2  H1  UNK A   1     -10.599  20.004  67.510  1.00  0.00     0.000 HD 
HETATM    3  H2  UNK A   1     -11.619  18.701  67.226  1.00  0.00     0.000 HD 
HETATM    4  C   UNK A   1      -9.642  18.291  66.725  1.00  0.00    -0.299 C  
HETATM    5  O   UNK A   1      -7.465  18.658  65.647  1.00  0.00    -0.496 OA 
HETATM    6  C   UNK A   1      -8.428  19.108  66.247  1.00  0.00    -0.304 C  
HETATM    7  O   UNK A   1      -8.561  20.416  66.583  1.00  0.00    -0.250 OA 
ENDROOT
BRANCH   4   8
HETATM    8  C   UNK A   1      -9.939  17.103  65.809  1.00  0.00    -0.142 C  
BRANCH   8   9
HETATM    9  C   UNK A   1     -10.888  16.056  66.395  1.00  0.00    -0.159 C  
BRANCH   9  10
HETATM   10  C   UNK A   1     -10.405  15.636  67.764  1.00  0.00    -0.266 C  
HETATM   11  N   UNK A   1      -9.190  14.984  67.763  1.00  0.00    -0.180 N  
HETATM   12  O   UNK A   1     -11.065  15.828  68.781  1.00  0.00    -0.280 OA 
HETATM   13  H   UNK A   1      -8.708  14.798  66.885  1.00  0.00     0.000 HD 
BRANCH  11  14
HETATM   14  C   UNK A   1      -8.596  14.557  69.037  1.00  0.00    -0.041 C  
BRANCH  14  15
HETATM   15  C   UNK A   1      -7.301  15.361  69.272  1.00  0.00    -0.197 C  
ATOM     16  H   GLY A   2      -7.817  16.623  67.716  1.00  0.00     0.000 HD 
ATOM     17  N   GLY A   2      -7.124  16.446  68.443  1.00  0.00    -0.151 N  
HETATM   18  O   UNK A   1      -6.477  15.050  70.118  1.00  0.00    -0.165 OA 
BRANCH  17  19
ATOM     19  CA  GLY A   2      -5.992  17.349  68.559  1.00  0.00    -0.162 C  
ATOM     20  C   GLY A   2      -6.267  18.609  69.365  1.00  0.00    -0.265 C  
ATOM     21  O   GLY A   2      -7.572  19.013  69.383  1.00  0.00    -0.169 OA 
ATOM     22  OXT GLY A   2      -5.395  19.268  69.911  1.00  0.00    -0.196 OA 
ENDBRANCH  17  19
ENDBRANCH  14  15
BRANCH  14  23
HETATM   23  C   UNK A   1      -8.324  13.042  69.030  1.00  0.00     0.422 C  
BRANCH  23  24
HETATM   24  S   UNK A   1      -9.678  11.992  68.415  1.00  0.00    -0.169 SA 
BRANCH  24  25
HETATM   25  S   UNK A   1      -9.252  10.191  69.296  1.00  0.00    -0.209 SA 
BRANCH  25  26
HETATM   26  C   UNK A   1      -8.218   9.375  68.029  1.00  0.00    -0.114 C  
BRANCH  26  27
HETATM   27  C   UNK A   1      -7.334   8.222  68.542  1.00  0.00    -0.093 C  
BRANCH  27  28
HETATM   28  C   UNK A   1      -7.202   8.279  70.093  1.00  0.00    -0.055 C  
ATOM     29  H   GLY A   2      -8.116   6.413  70.309  1.00  0.00     0.000 HD 
ATOM     30  N   GLY A   2      -7.649   7.178  70.795  1.00  0.00    -0.087 N  
HETATM   31  O   UNK A   1      -6.617   9.192  70.673  1.00  0.00    -0.054 OA 
BRANCH  30  32
ATOM     32  CA  GLY A   2      -7.449   7.117  72.238  1.00  0.00    -0.084 C  
ATOM     33  OXT GLY A   2      -7.367   8.621  74.161  1.00  0.00    -0.350 OA 
ATOM     34  C   GLY A   2      -7.866   8.331  73.080  1.00  0.00    -0.131 C  
ATOM     35  O   GLY A   2      -8.981   8.952  72.650  1.00  0.00    -0.337 OA 
ENDBRANCH  30  32
ENDBRANCH  27  28
BRANCH  27  36
HETATM   36  N   UNK A   1      -7.593   6.912  67.905  1.00  0.00    -0.105 N  
HETATM   37  H   UNK A   1      -6.807   6.381  67.532  1.00  0.00     0.000 HD 
HETATM   38  O   UNK A   1      -9.843   6.885  68.338  1.00  0.00    -0.139 OA 
HETATM   39  C   UNK A   1      -8.860   6.387  67.800  1.00  0.00    -0.112 C  
BRANCH  39  40
HETATM   40  C   UNK A   1      -8.977   5.051  67.082  1.00  0.00    -0.112 C  
BRANCH  40  41
HETATM   41  C   UNK A   1      -9.784   3.949  67.795  1.00  0.00    -0.144 C  
BRANCH  41  42
HETATM   42  C   UNK A   1      -9.001   2.793  68.434  1.00  0.00    -0.145 C  
HETATM   43  N   UNK A   1      -9.624   1.470  68.162  1.00  0.00    -0.329 NA 
HETATM   44  C   UNK A   1      -8.962   2.971  69.940  1.00  0.00    -0.106 C  
HETATM   45  O   UNK A   1      -8.246   3.704  70.600  1.00  0.00    -0.056 OA 
HETATM   46  O   UNK A   1      -9.934   2.214  70.498  1.00  0.00     0.047 OA 
HETATM   47  H2  UNK A   1      -9.750   1.321  67.162  1.00  0.00     0.000 HD 
HETATM   48  H1  UNK A   1      -9.104   0.702  68.587  1.00  0.00     0.000 HD 
ENDBRANCH  41  42
ENDBRANCH  40  41
ENDBRANCH  39  40
ENDBRANCH  27  36
ENDBRANCH  26  27
ENDBRANCH  25  26
ENDBRANCH  24  25
ENDBRANCH  23  24
ENDBRANCH  14  23
ENDBRANCH  11  14
ENDBRANCH   9  10
ENDBRANCH   8   9
ENDBRANCH   4   8
TORSDOF 17
ENDMDL
MODEL      303
REMARK 921   NORMALIZED FREE ENERGY PREDICTED BY IDOCK:   -2.09 KCAL/MOL
REMARK 922        TOTAL FREE ENERGY PREDICTED BY IDOCK:   -7.15 KCAL/MOL
REMARK 923 INTER-LIGAND FREE ENERGY PREDICTED BY IDOCK:   -5.29 KCAL/MOL
REMARK 924 INTRA-LIGAND FREE ENERGY PREDICTED BY IDOCK:   -1.85 KCAL/MOL
REMARK 927      BINDING AFFINITY PREDICTED BY RF-SCORE:    0.00 PKD
ROOT
HETATM    1  N   UNK A   1      -5.781   4.086  65.908  1.00  0.00    -0.018 NA 
HETATM    2  H1  UNK A   1      -5.870   3.292  66.542  1.00  0.00     0.000 HD 
HETATM    3  H2  UNK A   1      -6.039   4.954  66.378  1.00  0.00     0.000 HD 
HETATM    4  C   UNK A   1      -6.547   3.925  64.643  1.00  0.00    -0.043 C  
HETATM    5  O   UNK A   1      -6.251   2.334  62.794  1.00  0.00    -0.009 OA 
HETATM    6  C   UNK A   1      -6.135   2.599  63.980  1.00  0.00    -0.014 C  
HETATM    7  O   UNK A   1      -5.617   1.740  64.896  1.00  0.00    -0.008 OA 
ENDROOT
BRANCH   4   8
HETATM    8  C   UNK A   1      -6.414   5.116  63.691  1.00  0.00    -0.026 C  
BRANCH   8   9
HETATM    9  C   UNK A   1      -7.674   5.969  63.542  1.00  0.00    -0.097 C  
BRANCH   9  10
HETATM   10  C   UNK A   1      -7.843   6.850  64.758  1.00  0.00    -0.119 C  
HETATM   11  N   UNK A   1      -9.124   6.876  65.269  1.00  0.00    -0.294 N  
HETATM   12  O   UNK A   1      -6.921   7.515  65.220  1.00  0.00    -0.056 OA 
HETATM   13  H   UNK A   1      -9.868   6.349  64.813  1.00  0.00     0.000 HD 
BRANCH  11  14
HETATM   14  C   UNK A   1      -9.408   7.668  66.473  1.00  0.00    -0.189 C  
BRANCH  14  15
HETATM   15  C   UNK A   1     -10.388   6.877  67.364  1.00  0.00    -0.231 C  
ATOM     16  H   GLY A   2      -9.212   7.301  69.013  1.00  0.00     0.000 HD 
ATOM     17  N   GLY A   2     -10.072   6.848  68.704  1.00  0.00    -0.156 N  
HETATM   18  O   UNK A   1     -11.366   6.299  66.916  1.00  0.00    -0.260 OA 
BRANCH  17  19
ATOM     19  CA  GLY A   2     -10.911   6.201  69.697  1.00  0.00    -0.389 C  
ATOM     20  C   GLY A   2     -11.592   7.152  70.669  1.00  0.00    -0.314 C  
ATOM     21  O   GLY A   2     -10.942   8.336  70.874  1.00  0.00    -0.236 OA 
ATOM     22  OXT GLY A   2     -12.610   6.877  71.286  1.00  0.00    -0.375 OA 
ENDBRANCH  17  19
ENDBRANCH  14  15
BRANCH  14  23
HETATM   23  C   UNK A   1      -9.978   9.046  66.096  1.00  0.00    -0.241 C  
BRANCH  23  24
HETATM   24  S   UNK A   1      -9.466  10.438  67.151  1.00  0.00    -0.161 SA 
BRANCH  24  25
HETATM   25  S   UNK A   1      -7.738  11.053  66.235  1.00  0.00    -0.093 SA 
BRANCH  25  26
HETATM   26  C   UNK A   1      -6.452  10.267  67.270  1.00  0.00    -0.067 C  
BRANCH  26  27
HETATM   27  C   UNK A   1      -5.600  11.236  68.111  1.00  0.00    -0.042 C  
BRANCH  27  28
HETATM   28  C   UNK A   1      -6.194  12.675  68.061  1.00  0.00    -0.094 C  
ATOM     29  H   GLY A   2      -7.736  12.159  69.371  1.00  0.00     0.000 HD 
ATOM     30  N   GLY A   2      -7.298  12.920  68.852  1.00  0.00    -0.062 N  
HETATM   31  O   UNK A   1      -5.648  13.595  67.454  1.00  0.00    -0.354 OA 
BRANCH  30  32
ATOM     32  CA  GLY A   2      -7.832  14.273  68.941  1.00  0.00    -0.097 C  
ATOM     33  OXT GLY A   2      -9.639  15.616  67.994  1.00  0.00    -0.202 OA 
ATOM     34  C   GLY A   2      -9.247  14.531  68.406  1.00  0.00    -0.196 C  
ATOM     35  O   GLY A   2     -10.115  13.523  68.617  1.00  0.00    -0.226 OA 
ENDBRANCH  30  32
ENDBRANCH  27  28
BRANCH  27  36
HETATM   36  N   UNK A   1      -5.162  10.701  69.419  1.00  0.00    -0.038 N  
HETATM   37  H   UNK A   1      -4.179  10.780  69.680  1.00  0.00     0.000 HD 
HETATM   38  O   UNK A   1      -7.251  10.082  70.127  1.00  0.00    -0.137 OA 
HETATM   39  C   UNK A   1      -6.036  10.099  70.293  1.00  0.00    -0.081 C  
BRANCH  39  40
HETATM   40  C   UNK A   1      -5.434   9.558  71.581  1.00  0.00    -0.073 C  
BRANCH  40  41
HETATM   41  C   UNK A   1      -5.693   8.073  71.899  1.00  0.00    -0.036 C  
BRANCH  41  42
HETATM   42  C   UNK A   1      -6.675   7.312  70.996  1.00  0.00    -0.048 C  
HETATM   43  N   UNK A   1      -8.075   7.388  71.493  1.00  0.00    -0.099 NA 
HETATM   44  C   UNK A   1      -6.293   5.844  70.947  1.00  0.00    -0.039 C  
HETATM   45  O   UNK A   1      -5.415   5.310  70.294  1.00  0.00    -0.004 OA 
HETATM   46  O   UNK A   1      -7.057   5.162  71.830  1.00  0.00    -0.068 OA 
HETATM   47  H2  UNK A   1      -8.368   8.356  71.621  1.00  0.00     0.000 HD 
HETATM   48  H1  UNK A   1      -8.727   6.883  70.893  1.00  0.00     0.000 HD 
ENDBRANCH  41  42
ENDBRANCH  40  41
ENDBRANCH  39  40
ENDBRANCH  27  36
ENDBRANCH  26  27
ENDBRANCH  25  26
ENDBRANCH  24  25
ENDBRANCH  23  24
ENDBRANCH  14  23
ENDBRANCH  11  14
ENDBRANCH   9  10
ENDBRANCH   8   9
ENDBRANCH   4   8
TORSDOF 17
ENDMDL
MODEL      304
REMARK 921   NORMALIZED FREE ENERGY PREDICTED BY IDOCK:   -2.01 KCAL/MOL
REMARK 922        TOTAL FREE ENERGY PREDICTED BY IDOCK:   -6.99 KCAL/MOL
REMARK 923 INTER-LIGAND FREE ENERGY PREDICTED BY IDOCK:   -5.92 KCAL/MOL
REMARK 924 INTRA-LIGAND FREE ENERGY PREDICTED BY IDOCK:   -1.07 KCAL/MOL
REMARK 927      BINDING AFFINITY PREDICTED BY RF-SCORE:    0.00 PKD
ROOT
HETATM    1  N   UNK A   1     -12.974   6.742  71.413  1.00  0.00    -0.267 NA 
HETATM    2  H1  UNK A   1     -12.717   5.910  70.881  1.00  0.00     0.000 HD 
HETATM    3  H2  UNK A   1     -13.560   7.362  70.852  1.00  0.00     0.000 HD 
HETATM    4  C   UNK A   1     -11.806   7.479  71.966  1.00  0.00    -0.294 C  
HETATM    5  O   UNK A   1     -10.171   6.816  73.675  1.00  0.00    -0.257 OA 
HETATM    6  C   UNK A   1     -10.950   6.501  72.789  1.00  0.00    -0.253 C  
HETATM    7  O   UNK A   1     -11.170   5.219  72.401  1.00  0.00    -0.231 OA 
ENDROOT
BRANCH   4   8
HETATM    8  C   UNK A   1     -12.193   8.726  72.764  1.00  0.00    -0.056 C  
BRANCH   8   9
HETATM    9  C   UNK A   1     -13.295   9.580  72.136  1.00  0.00    -0.545 C  
BRANCH   9  10
HETATM   10  C   UNK A   1     -13.174   9.546  70.630  1.00  0.00     0.150 C  
HETATM   11  N   UNK A   1     -11.877   9.579  70.162  1.00  0.00    -0.466 N  
HETATM   12  O   UNK A   1     -14.155   9.531  69.892  1.00  0.00     1.184 OA 
HETATM   13  H   UNK A   1     -11.098   9.649  70.816  1.00  0.00     0.000 HD 
BRANCH  11  14
HETATM   14  C   UNK A   1     -11.626   9.515  68.716  1.00  0.00     0.540 C  
BRANCH  14  15
HETATM   15  C   UNK A   1     -10.368   8.656  68.471  1.00  0.00    -0.196 C  
ATOM     16  H   GLY A   2     -10.784   8.649  66.444  1.00  0.00     0.000 HD 
ATOM     17  N   GLY A   2     -10.119   8.342  67.153  1.00  0.00    -0.235 N  
HETATM   18  O   UNK A   1      -9.652   8.263  69.379  1.00  0.00    -0.168 OA 
BRANCH  17  19
ATOM     19  CA  GLY A   2      -8.950   7.591  66.732  1.00  0.00    -0.144 C  
ATOM     20  C   GLY A   2      -9.256   6.356  65.900  1.00  0.00    -0.003 C  
ATOM     21  O   GLY A   2     -10.484   5.797  66.120  1.00  0.00    -0.099 OA 
ATOM     22  OXT GLY A   2      -8.457   5.839  65.133  1.00  0.00    -0.147 OA 
ENDBRANCH  17  19
ENDBRANCH  14  15
BRANCH  14  23
HETATM   23  C   UNK A   1     -11.465  10.928  68.129  1.00  0.00    -0.295 C  
BRANCH  23  24
HETATM   24  S   UNK A   1     -11.545  12.302  69.321  1.00  0.00    -0.330 SA 
BRANCH  24  25
HETATM   25  S   UNK A   1     -11.836  13.916  68.091  1.00  0.00    -0.361 SA 
BRANCH  25  26
HETATM   26  C   UNK A   1     -10.296  14.870  68.335  1.00  0.00    -0.233 C  
BRANCH  26  27
HETATM   27  C   UNK A   1      -9.282  14.793  67.178  1.00  0.00    -0.222 C  
BRANCH  27  28
HETATM   28  C   UNK A   1      -8.675  16.197  66.886  1.00  0.00    -0.223 C  
ATOM     29  H   GLY A   2     -10.056  17.133  68.144  1.00  0.00     0.000 HD 
ATOM     30  N   GLY A   2      -9.233  17.268  67.556  1.00  0.00    -0.226 N  
HETATM   31  O   UNK A   1      -7.669  16.352  66.196  1.00  0.00    -0.216 OA 
BRANCH  30  32
ATOM     32  CA  GLY A   2      -8.639  18.591  67.418  1.00  0.00    -0.258 C  
ATOM     33  OXT GLY A   2      -9.328  20.894  66.984  1.00  0.00    -0.284 OA 
ATOM     34  C   GLY A   2      -9.561  19.814  67.515  1.00  0.00    -0.353 C  
ATOM     35  O   GLY A   2     -10.559  19.691  68.410  1.00  0.00    -0.361 OA 
ENDBRANCH  30  32
ENDBRANCH  27  28
BRANCH  27  36
HETATM   36  N   UNK A   1      -8.370  13.629  67.229  1.00  0.00    -0.234 N  
HETATM   37  H   UNK A   1      -7.614  13.625  67.913  1.00  0.00     0.000 HD 
HETATM   38  O   UNK A   1      -9.463  12.408  65.629  1.00  0.00    -0.168 OA 
HETATM   39  C   UNK A   1      -8.508  12.553  66.384  1.00  0.00     0.201 C  
BRANCH  39  40
HETATM   40  C   UNK A   1      -7.470  11.450  66.524  1.00  0.00    -0.068 C  
BRANCH  40  41
HETATM   41  C   UNK A   1      -7.438  10.382  65.414  1.00  0.00    -0.127 C  
BRANCH  41  42
HETATM   42  C   UNK A   1      -6.100  10.131  64.705  1.00  0.00    -0.127 C  
HETATM   43  N   UNK A   1      -5.964  10.927  63.456  1.00  0.00    -0.354 NA 
HETATM   44  C   UNK A   1      -5.990   8.667  64.321  1.00  0.00    -0.066 C  
HETATM   45  O   UNK A   1      -5.695   7.717  65.024  1.00  0.00    -0.037 OA 
HETATM   46  O   UNK A   1      -6.351   8.525  63.025  1.00  0.00    -0.086 OA 
HETATM   47  H2  UNK A   1      -6.105  11.920  63.635  1.00  0.00     0.000 HD 
HETATM   48  H1  UNK A   1      -5.075  10.760  62.985  1.00  0.00     0.000 HD 
ENDBRANCH  41  42
ENDBRANCH  40  41
ENDBRANCH  39  40
ENDBRANCH  27  36
ENDBRANCH  26  27
ENDBRANCH  25  26
ENDBRANCH  24  25
ENDBRANCH  23  24
ENDBRANCH  14  23
ENDBRANCH  11  14
ENDBRANCH   9  10
ENDBRANCH   8   9
ENDBRANCH   4   8
TORSDOF 17
ENDMDL
MODEL      305
REMARK 921   NORMALIZED FREE ENERGY PREDICTED BY IDOCK:   -1.96 KCAL/MOL
REMARK 922        TOTAL FREE ENERGY PREDICTED BY IDOCK:   -6.87 KCAL/MOL
REMARK 923 INTER-LIGAND FREE ENERGY PREDICTED BY IDOCK:   -5.09 KCAL/MOL
REMARK 924 INTRA-LIGAND FREE ENERGY PREDICTED BY IDOCK:   -1.78 KCAL/MOL
REMARK 927      BINDING AFFINITY PREDICTED BY RF-SCORE:    0.00 PKD
ROOT
HETATM    1  N   UNK A   1      -9.947   3.990  64.750  1.00  0.00    -0.197 NA 
HETATM    2  H1  UNK A   1      -9.602   3.489  63.932  1.00  0.00     0.000 HD 
HETATM    3  H2  UNK A   1     -10.863   4.399  64.563  1.00  0.00     0.000 HD 
HETATM    4  C   UNK A   1      -9.003   5.023  65.256  1.00  0.00    -0.151 C  
HETATM    5  O   UNK A   1      -6.775   4.786  66.263  1.00  0.00    -0.048 OA 
HETATM    6  C   UNK A   1      -7.637   4.363  65.509  1.00  0.00    -0.085 C  
HETATM    7  O   UNK A   1      -7.502   3.229  64.774  1.00  0.00    -0.073 OA 
ENDROOT
BRANCH   4   8
HETATM    8  C   UNK A   1      -9.521   5.775  66.484  1.00  0.00    -0.168 C  
BRANCH   8   9
HETATM    9  C   UNK A   1     -10.094   4.888  67.591  1.00  0.00    -0.172 C  
BRANCH   9  10
HETATM   10  C   UNK A   1      -9.196   4.940  68.805  1.00  0.00    -0.119 C  
HETATM   11  N   UNK A   1      -8.382   6.051  68.864  1.00  0.00    -0.107 N  
HETATM   12  O   UNK A   1      -9.170   4.041  69.641  1.00  0.00    -0.114 OA 
HETATM   13  H   UNK A   1      -8.400   6.741  68.114  1.00  0.00     0.000 HD 
BRANCH  11  14
HETATM   14  C   UNK A   1      -7.488   6.235  70.015  1.00  0.00    -0.087 C  
BRANCH  14  15
HETATM   15  C   UNK A   1      -8.199   7.124  71.056  1.00  0.00    -0.109 C  
ATOM     16  H   GLY A   2      -9.929   7.045  69.924  1.00  0.00     0.000 HD 
ATOM     17  N   GLY A   2      -9.522   7.398  70.789  1.00  0.00    -0.167 N  
HETATM   18  O   UNK A   1      -7.629   7.572  72.039  1.00  0.00    -0.078 OA 
BRANCH  17  19
ATOM     19  CA  GLY A   2     -10.362   8.170  71.688  1.00  0.00    -0.224 C  
ATOM     20  C   GLY A   2     -11.073   7.349  72.752  1.00  0.00    -0.346 C  
ATOM     21  O   GLY A   2     -11.308   6.045  72.418  1.00  0.00    -0.273 OA 
ATOM     22  OXT GLY A   2     -11.477   7.812  73.809  1.00  0.00     0.342 OA 
ENDBRANCH  17  19
ENDBRANCH  14  15
BRANCH  14  23
HETATM   23  C   UNK A   1      -6.150   6.850  69.571  1.00  0.00    -0.033 C  
BRANCH  23  24
HETATM   24  S   UNK A   1      -6.202   7.875  68.067  1.00  0.00    -0.047 SA 
BRANCH  24  25
HETATM   25  S   UNK A   1      -7.211   9.536  68.719  1.00  0.00    -0.074 SA 
BRANCH  25  26
HETATM   26  C   UNK A   1      -6.324  10.887  67.865  1.00  0.00    -0.057 C  
BRANCH  26  27
HETATM   27  C   UNK A   1      -7.211  11.850  67.054  1.00  0.00    -0.118 C  
BRANCH  27  28
HETATM   28  C   UNK A   1      -7.660  11.189  65.717  1.00  0.00     0.147 C  
ATOM     29  H   GLY A   2      -5.698  10.656  65.240  1.00  0.00     0.000 HD 
ATOM     30  N   GLY A   2      -6.676  10.586  64.960  1.00  0.00    -0.056 N  
HETATM   31  O   UNK A   1      -8.843  11.085  65.396  1.00  0.00    -0.192 OA 
BRANCH  30  32
ATOM     32  CA  GLY A   2      -7.045   9.849  63.758  1.00  0.00    -0.126 C  
ATOM     33  OXT GLY A   2      -7.213   7.540  62.980  1.00  0.00    -0.074 OA 
ATOM     34  C   GLY A   2      -7.346   8.350  63.889  1.00  0.00    -0.102 C  
ATOM     35  O   GLY A   2      -7.980   8.007  65.027  1.00  0.00    -0.112 OA 
ENDBRANCH  30  32
ENDBRANCH  27  28
BRANCH  27  36
HETATM   36  N   UNK A   1      -8.220  12.582  67.851  1.00  0.00    -0.153 N  
HETATM   37  H   UNK A   1      -8.499  12.207  68.758  1.00  0.00     0.000 HD 
HETATM   38  O   UNK A   1      -8.425  14.345  66.403  1.00  0.00     0.072 OA 
HETATM   39  C   UNK A   1      -8.795  13.750  67.409  1.00  0.00    -0.210 C  
BRANCH  39  40
HETATM   40  C   UNK A   1      -9.849  14.367  68.317  1.00  0.00    -0.229 C  
BRANCH  40  41
HETATM   41  C   UNK A   1     -11.102  13.518  68.603  1.00  0.00    -0.299 C  
BRANCH  41  42
HETATM   42  C   UNK A   1     -11.141  12.091  68.035  1.00  0.00    -0.241 C  
HETATM   43  N   UNK A   1     -12.249  11.900  67.062  1.00  0.00    -0.255 NA 
HETATM   44  C   UNK A   1     -11.354  11.097  69.162  1.00  0.00    -0.273 C  
HETATM   45  O   UNK A   1     -10.540  10.665  69.957  1.00  0.00    -0.230 OA 
HETATM   46  O   UNK A   1     -12.667  10.779  69.223  1.00  0.00    -0.254 OA 
HETATM   47  H2  UNK A   1     -12.206  12.592  66.315  1.00  0.00     0.000 HD 
HETATM   48  H1  UNK A   1     -12.275  10.953  66.685  1.00  0.00     0.000 HD 
ENDBRANCH  41  42
ENDBRANCH  40  41
ENDBRANCH  39  40
ENDBRANCH  27  36
ENDBRANCH  26  27
ENDBRANCH  25  26
ENDBRANCH  24  25
ENDBRANCH  23  24
ENDBRANCH  14  23
ENDBRANCH  11  14
ENDBRANCH   9  10
ENDBRANCH   8   9
ENDBRANCH   4   8
TORSDOF 17
ENDMDL
MODEL      306
REMARK 921   NORMALIZED FREE ENERGY PREDICTED BY IDOCK:   -1.89 KCAL/MOL
REMARK 922        TOTAL FREE ENERGY PREDICTED BY IDOCK:   -6.74 KCAL/MOL
REMARK 923 INTER-LIGAND FREE ENERGY PREDICTED BY IDOCK:   -6.23 KCAL/MOL
REMARK 924 INTRA-LIGAND FREE ENERGY PREDICTED BY IDOCK:   -0.51 KCAL/MOL
REMARK 927      BINDING AFFINITY PREDICTED BY RF-SCORE:    0.00 PKD
ROOT
HETATM    1  N   UNK A   1      -6.094  12.447  71.777  1.00  0.00     0.442 NA 
HETATM    2  H1  UNK A   1      -5.484  12.432  72.594  1.00  0.00     0.000 HD 
HETATM    3  H2  UNK A   1      -6.243  11.503  71.420  1.00  0.00     0.000 HD 
HETATM    4  C   UNK A   1      -5.615  13.349  70.695  1.00  0.00    -0.177 C  
HETATM    5  O   UNK A   1      -5.385  15.794  70.647  1.00  0.00    -0.158 OA 
HETATM    6  C   UNK A   1      -5.392  14.753  71.284  1.00  0.00    -0.126 C  
HETATM    7  O   UNK A   1      -5.198  14.691  72.626  1.00  0.00    -0.183 OA 
ENDROOT
BRANCH   4   8
HETATM    8  C   UNK A   1      -6.531  13.372  69.469  1.00  0.00    -0.083 C  
BRANCH   8   9
HETATM    9  C   UNK A   1      -5.831  13.112  68.134  1.00  0.00    -0.097 C  
BRANCH   9  10
HETATM   10  C   UNK A   1      -6.738  12.314  67.227  1.00  0.00    -0.143 C  
HETATM   11  N   UNK A   1      -8.051  12.738  67.218  1.00  0.00    -0.231 N  
HETATM   12  O   UNK A   1      -6.340  11.345  66.587  1.00  0.00    -0.134 OA 
HETATM   13  H   UNK A   1      -8.343  13.513  67.812  1.00  0.00     0.000 HD 
BRANCH  11  14
HETATM   14  C   UNK A   1      -9.024  12.065  66.348  1.00  0.00    -0.161 C  
BRANCH  14  15
HETATM   15  C   UNK A   1      -9.923  13.134  65.693  1.00  0.00    -0.227 C  
ATOM     16  H   GLY A   2      -9.787  14.282  67.409  1.00  0.00     0.000 HD 
ATOM     17  N   GLY A   2     -10.167  14.249  66.464  1.00  0.00    -0.270 N  
HETATM   18  O   UNK A   1     -10.404  12.997  64.579  1.00  0.00    -0.366 OA 
BRANCH  17  19
ATOM     19  CA  GLY A   2     -10.944  15.380  65.987  1.00  0.00    -0.286 C  
ATOM     20  C   GLY A   2     -10.224  16.717  66.055  1.00  0.00    -0.351 C  
ATOM     21  O   GLY A   2      -9.255  16.806  67.015  1.00  0.00    -0.215 OA 
ATOM     22  OXT GLY A   2     -10.515  17.680  65.362  1.00  0.00    -0.648 OA 
ENDBRANCH  17  19
ENDBRANCH  14  15
BRANCH  14  23
HETATM   23  C   UNK A   1      -9.853  11.045  67.147  1.00  0.00    -0.184 C  
BRANCH  23  24
HETATM   24  S   UNK A   1      -9.365  10.805  68.884  1.00  0.00    -0.150 SA 
BRANCH  24  25
HETATM   25  S   UNK A   1     -10.244   9.008  69.329  1.00  0.00    -0.209 SA 
BRANCH  25  26
HETATM   26  C   UNK A   1      -8.897   7.822  68.982  1.00  0.00    -0.138 C  
BRANCH  26  27
HETATM   27  C   UNK A   1      -9.028   6.454  69.677  1.00  0.00    -0.137 C  
BRANCH  27  28
HETATM   28  C   UNK A   1      -8.992   5.301  68.630  1.00  0.00    -0.107 C  
ATOM     29  H   GLY A   2      -7.432   6.211  67.579  1.00  0.00     0.000 HD 
ATOM     30  N   GLY A   2      -8.026   5.384  67.647  1.00  0.00    -0.100 N  
HETATM   31  O   UNK A   1      -9.693   4.296  68.730  1.00  0.00    -0.162 OA 
BRANCH  30  32
ATOM     32  CA  GLY A   2      -7.862   4.283  66.706  1.00  0.00    -0.097 C  
ATOM     33  OXT GLY A   2      -8.414   3.726  64.393  1.00  0.00    -0.096 OA 
ATOM     34  C   GLY A   2      -8.067   4.568  65.212  1.00  0.00    -0.103 C  
ATOM     35  O   GLY A   2      -7.629   5.777  64.810  1.00  0.00    -0.076 OA 
ENDBRANCH  30  32
ENDBRANCH  27  28
BRANCH  27  36
HETATM   36  N   UNK A   1      -8.228   6.307  70.913  1.00  0.00    -0.124 N  
HETATM   37  H   UNK A   1      -8.580   6.713  71.779  1.00  0.00     0.000 HD 
HETATM   38  O   UNK A   1      -6.591   5.006  69.976  1.00  0.00    -0.033 OA 
HETATM   39  C   UNK A   1      -7.025   5.642  70.932  1.00  0.00    -0.061 C  
BRANCH  39  40
HETATM   40  C   UNK A   1      -6.295   5.609  72.266  1.00  0.00    -0.048 C  
BRANCH  40  41
HETATM   41  C   UNK A   1      -6.810   6.560  73.362  1.00  0.00    -0.077 C  
BRANCH  41  42
HETATM   42  C   UNK A   1      -6.257   7.993  73.380  1.00  0.00    -0.082 C  
HETATM   43  N   UNK A   1      -7.075   8.903  74.225  1.00  0.00    -0.400 NA 
HETATM   44  C   UNK A   1      -6.260   8.561  71.973  1.00  0.00    -0.069 C  
HETATM   45  O   UNK A   1      -5.466   8.360  71.072  1.00  0.00    -0.032 OA 
HETATM   46  O   UNK A   1      -7.368   9.319  71.808  1.00  0.00    -0.337 OA 
HETATM   47  H2  UNK A   1      -7.176   8.536  75.171  1.00  0.00     0.000 HD 
HETATM   48  H1  UNK A   1      -6.708   9.855  74.237  1.00  0.00     0.000 HD 
ENDBRANCH  41  42
ENDBRANCH  40  41
ENDBRANCH  39  40
ENDBRANCH  27  36
ENDBRANCH  26  27
ENDBRANCH  25  26
ENDBRANCH  24  25
ENDBRANCH  23  24
ENDBRANCH  14  23
ENDBRANCH  11  14
ENDBRANCH   9  10
ENDBRANCH   8   9
ENDBRANCH   4   8
TORSDOF 17
ENDMDL
MODEL      307
REMARK 921   NORMALIZED FREE ENERGY PREDICTED BY IDOCK:   -1.85 KCAL/MOL
REMARK 922        TOTAL FREE ENERGY PREDICTED BY IDOCK:   -6.66 KCAL/MOL
REMARK 923 INTER-LIGAND FREE ENERGY PREDICTED BY IDOCK:   -7.65 KCAL/MOL
REMARK 924 INTRA-LIGAND FREE ENERGY PREDICTED BY IDOCK:    0.99 KCAL/MOL
REMARK 927      BINDING AFFINITY PREDICTED BY RF-SCORE:    0.00 PKD
ROOT
HETATM    1  N   UNK A   1     -12.792  15.210  66.567  1.00  0.00     0.642 NA 
HETATM    2  H1  UNK A   1     -12.416  15.437  67.487  1.00  0.00     0.000 HD 
HETATM    3  H2  UNK A   1     -13.569  14.553  66.647  1.00  0.00     0.000 HD 
HETATM    4  C   UNK A   1     -11.769  14.700  65.615  1.00  0.00    -0.304 C  
HETATM    5  O   UNK A   1      -9.828  15.825  64.613  1.00  0.00     0.061 OA 
HETATM    6  C   UNK A   1     -10.615  15.716  65.540  1.00  0.00    -0.404 C  
HETATM    7  O   UNK A   1     -10.577  16.489  66.655  1.00  0.00    -0.291 OA 
ENDROOT
BRANCH   4   8
HETATM    8  C   UNK A   1     -12.334  14.360  64.234  1.00  0.00    -0.402 C  
BRANCH   8   9
HETATM    9  C   UNK A   1     -11.630  13.209  63.514  1.00  0.00    -0.392 C  
BRANCH   9  10
HETATM   10  C   UNK A   1     -10.999  12.280  64.525  1.00  0.00    -0.315 C  
HETATM   11  N   UNK A   1      -9.982  12.848  65.263  1.00  0.00    -0.452 N  
HETATM   12  O   UNK A   1     -11.342  11.108  64.643  1.00  0.00    -0.099 OA 
HETATM   13  H   UNK A   1      -9.696  13.811  65.086  1.00  0.00     0.000 HD 
BRANCH  11  14
HETATM   14  C   UNK A   1      -9.313  12.058  66.305  1.00  0.00    -0.223 C  
BRANCH  14  15
HETATM   15  C   UNK A   1     -10.383  11.502  67.266  1.00  0.00    -0.206 C  
ATOM     16  H   GLY A   2      -9.452   9.655  67.214  1.00  0.00     0.000 HD 
ATOM     17  N   GLY A   2     -10.221  10.182  67.626  1.00  0.00    -0.190 N  
HETATM   18  O   UNK A   1     -11.321  12.173  67.668  1.00  0.00    -0.271 OA 
BRANCH  17  19
ATOM     19  CA  GLY A   2     -11.099   9.510  68.567  1.00  0.00     0.015 C  
ATOM     20  C   GLY A   2     -10.569   9.441  69.991  1.00  0.00    -0.235 C  
ATOM     21  O   GLY A   2      -9.208   9.473  70.105  1.00  0.00    -0.211 OA 
ATOM     22  OXT GLY A   2     -11.281   9.300  70.974  1.00  0.00    -0.268 OA 
ENDBRANCH  17  19
ENDBRANCH  14  15
BRANCH  14  23
HETATM   23  C   UNK A   1      -8.274  12.912  67.052  1.00  0.00    -0.080 C  
BRANCH  23  24
HETATM   24  S   UNK A   1      -6.569  12.272  67.056  1.00  0.00     0.063 SA 
BRANCH  24  25
HETATM   25  S   UNK A   1      -5.693  13.407  68.521  1.00  0.00    -0.097 SA 
BRANCH  25  26
HETATM   26  C   UNK A   1      -6.851  14.814  68.665  1.00  0.00    -0.103 C  
BRANCH  26  27
HETATM   27  C   UNK A   1      -7.041  15.369  70.089  1.00  0.00     0.109 C  
BRANCH  27  28
HETATM   28  C   UNK A   1      -6.112  16.597  70.327  1.00  0.00     0.044 C  
ATOM     29  H   GLY A   2      -7.335  17.834  69.170  1.00  0.00     0.000 HD 
ATOM     30  N   GLY A   2      -6.513  17.796  69.773  1.00  0.00    -0.139 N  
HETATM   31  O   UNK A   1      -5.136  16.552  71.074  1.00  0.00    -0.207 OA 
BRANCH  30  32
ATOM     32  CA  GLY A   2      -5.752  19.007  70.055  1.00  0.00    -0.245 C  
ATOM     33  OXT GLY A   2      -5.212  21.142  68.997  1.00  0.00    -0.326 OA 
ATOM     34  C   GLY A   2      -6.030  20.253  69.202  1.00  0.00    -0.326 C  
ATOM     35  O   GLY A   2      -7.321  20.417  68.858  1.00  0.00    -0.034 OA 
ENDBRANCH  30  32
ENDBRANCH  27  28
BRANCH  27  36
HETATM   36  N   UNK A   1      -8.447  15.453  70.540  1.00  0.00     0.632 N  
HETATM   37  H   UNK A   1      -8.664  15.260  71.518  1.00  0.00     0.000 HD 
HETATM   38  O   UNK A   1      -9.293  16.161  68.532  1.00  0.00    -0.196 OA 
HETATM   39  C   UNK A   1      -9.472  15.781  69.684  1.00  0.00    -0.204 C  
BRANCH  39  40
HETATM   40  C   UNK A   1     -10.872  15.785  70.280  1.00  0.00    -0.363 C  
BRANCH  40  41
HETATM   41  C   UNK A   1     -11.546  14.414  70.477  1.00  0.00    -0.270 C  
BRANCH  41  42
HETATM   42  C   UNK A   1     -13.027  14.401  70.883  1.00  0.00    -0.348 C  
HETATM   43  N   UNK A   1     -13.476  15.711  71.427  1.00  0.00    -0.521 NA 
HETATM   44  C   UNK A   1     -13.252  13.363  71.967  1.00  0.00    -0.438 C  
HETATM   45  O   UNK A   1     -13.364  12.156  71.850  1.00  0.00    -0.463 OA 
HETATM   46  O   UNK A   1     -13.245  13.977  73.172  1.00  0.00    -0.589 OA 
HETATM   47  H2  UNK A   1     -13.281  16.468  70.773  1.00  0.00     0.000 HD 
HETATM   48  H1  UNK A   1     -14.459  15.702  71.697  1.00  0.00     0.000 HD 
ENDBRANCH  41  42
ENDBRANCH  40  41
ENDBRANCH  39  40
ENDBRANCH  27  36
ENDBRANCH  26  27
ENDBRANCH  25  26
ENDBRANCH  24  25
ENDBRANCH  23  24
ENDBRANCH  14  23
ENDBRANCH  11  14
ENDBRANCH   9  10
ENDBRANCH   8   9
ENDBRANCH   4   8
TORSDOF 17
ENDMDL
MODEL      308
REMARK 921   NORMALIZED FREE ENERGY PREDICTED BY IDOCK:   -1.75 KCAL/MOL
REMARK 922        TOTAL FREE ENERGY PREDICTED BY IDOCK:   -6.46 KCAL/MOL
REMARK 923 INTER-LIGAND FREE ENERGY PREDICTED BY IDOCK:   -6.68 KCAL/MOL
REMARK 924 INTRA-LIGAND FREE ENERGY PREDICTED BY IDOCK:    0.22 KCAL/MOL
REMARK 927      BINDING AFFINITY PREDICTED BY RF-SCORE:    0.00 PKD
ROOT
HETATM    1  N   UNK A   1      -6.724  20.005  63.915  1.00  0.00     0.013 NA 
HETATM    2  H1  UNK A   1      -5.990  19.677  63.288  1.00  0.00     0.000 HD 
HETATM    3  H2  UNK A   1      -7.052  20.930  63.634  1.00  0.00     0.000 HD 
HETATM    4  C   UNK A   1      -6.326  20.001  65.349  1.00  0.00    -0.251 C  
HETATM    5  O   UNK A   1      -5.796  18.128  66.848  1.00  0.00    -0.137 OA 
HETATM    6  C   UNK A   1      -5.827  18.593  65.719  1.00  0.00    -0.188 C  
HETATM    7  O   UNK A   1      -5.416  17.919  64.616  1.00  0.00     0.152 OA 
ENDROOT
BRANCH   4   8
HETATM    8  C   UNK A   1      -7.428  20.494  66.290  1.00  0.00    -0.154 C  
BRANCH   8   9
HETATM    9  C   UNK A   1      -8.851  20.126  65.868  1.00  0.00    -0.100 C  
BRANCH   9  10
HETATM   10  C   UNK A   1      -9.181  18.729  66.338  1.00  0.00    -0.307 C  
HETATM   11  N   UNK A   1      -8.874  18.487  67.661  1.00  0.00    -0.269 N  
HETATM   12  O   UNK A   1      -9.644  17.875  65.588  1.00  0.00    -0.457 OA 
HETATM   13  H   UNK A   1      -8.437  19.213  68.228  1.00  0.00     0.000 HD 
BRANCH  11  14
HETATM   14  C   UNK A   1      -9.181  17.175  68.248  1.00  0.00    -0.262 C  
BRANCH  14  15
HETATM   15  C   UNK A   1      -8.066  16.809  69.249  1.00  0.00    -0.001 C  
ATOM     16  H   GLY A   2      -6.782  18.105  68.273  1.00  0.00     0.000 HD 
ATOM     17  N   GLY A   2      -6.870  17.467  69.063  1.00  0.00    -0.238 N  
HETATM   18  O   UNK A   1      -8.221  15.980  70.132  1.00  0.00     0.606 OA 
BRANCH  17  19
ATOM     19  CA  GLY A   2      -5.730  17.289  69.945  1.00  0.00    -0.236 C  
ATOM     20  C   GLY A   2      -5.755  18.155  71.195  1.00  0.00     0.299 C  
ATOM     21  O   GLY A   2      -6.457  19.322  71.079  1.00  0.00     0.289 OA 
ATOM     22  OXT GLY A   2      -5.146  17.885  72.219  1.00  0.00    -0.349 OA 
ENDBRANCH  17  19
ENDBRANCH  14  15
BRANCH  14  23
HETATM   23  C   UNK A   1      -9.324  16.108  67.149  1.00  0.00    -0.215 C  
BRANCH  23  24
HETATM   24  S   UNK A   1      -7.830  15.133  66.785  1.00  0.00     0.215 SA 
BRANCH  24  25
HETATM   25  S   UNK A   1      -7.879  13.712  68.262  1.00  0.00    -0.150 SA 
BRANCH  25  26
HETATM   26  C   UNK A   1      -8.678  12.303  67.417  1.00  0.00    -0.180 C  
BRANCH  26  27
HETATM   27  C   UNK A   1     -10.180  12.126  67.705  1.00  0.00    -0.201 C  
BRANCH  27  28
HETATM   28  C   UNK A   1     -11.019  12.374  66.417  1.00  0.00    -0.276 C  
ATOM     29  H   GLY A   2      -9.328  12.969  65.345  1.00  0.00     0.000 HD 
ATOM     30  N   GLY A   2     -10.327  12.772  65.291  1.00  0.00    -0.292 N  
HETATM   31  O   UNK A   1     -12.219  12.111  66.349  1.00  0.00    -0.592 OA 
BRANCH  30  32
ATOM     32  CA  GLY A   2     -11.034  12.908  64.023  1.00  0.00    -0.411 C  
ATOM     33  OXT GLY A   2     -12.782  14.286  63.018  1.00  0.00    -0.338 OA 
ATOM     34  C   GLY A   2     -11.814  14.205  63.764  1.00  0.00    -0.044 C  
ATOM     35  O   GLY A   2     -11.228  15.315  64.252  1.00  0.00    -0.211 OA 
ENDBRANCH  30  32
ENDBRANCH  27  28
BRANCH  27  36
HETATM   36  N   UNK A   1     -10.516  10.959  68.550  1.00  0.00    -0.178 N  
HETATM   37  H   UNK A   1     -10.154  10.041  68.291  1.00  0.00     0.000 HD 
HETATM   38  O   UNK A   1     -11.664  12.146  70.138  1.00  0.00    -0.303 OA 
HETATM   39  C   UNK A   1     -11.301  11.070  69.674  1.00  0.00    -0.292 C  
BRANCH  39  40
HETATM   40  C   UNK A   1     -11.597   9.778  70.419  1.00  0.00    -0.327 C  
BRANCH  40  41
HETATM   41  C   UNK A   1     -10.394   9.043  71.040  1.00  0.00    -0.348 C  
BRANCH  41  42
HETATM   42  C   UNK A   1      -9.693   7.975  70.188  1.00  0.00    -0.176 C  
HETATM   43  N   UNK A   1      -8.483   8.503  69.503  1.00  0.00    -0.125 NA 
HETATM   44  C   UNK A   1     -10.640   7.478  69.110  1.00  0.00    -0.197 C  
HETATM   45  O   UNK A   1     -11.550   6.675  69.211  1.00  0.00    -0.240 OA 
HETATM   46  O   UNK A   1     -10.374   8.132  67.957  1.00  0.00    -0.208 OA 
HETATM   47  H2  UNK A   1      -7.837   8.924  70.170  1.00  0.00     0.000 HD 
HETATM   48  H1  UNK A   1      -8.018   7.794  68.936  1.00  0.00     0.000 HD 
ENDBRANCH  41  42
ENDBRANCH  40  41
ENDBRANCH  39  40
ENDBRANCH  27  36
ENDBRANCH  26  27
ENDBRANCH  25  26
ENDBRANCH  24  25
ENDBRANCH  23  24
ENDBRANCH  14  23
ENDBRANCH  11  14
ENDBRANCH   9  10
ENDBRANCH   8   9
ENDBRANCH   4   8
TORSDOF 17
ENDMDL
MODEL      309
REMARK 921   NORMALIZED FREE ENERGY PREDICTED BY IDOCK:   -1.59 KCAL/MOL
REMARK 922        TOTAL FREE ENERGY PREDICTED BY IDOCK:   -6.13 KCAL/MOL
REMARK 923 INTER-LIGAND FREE ENERGY PREDICTED BY IDOCK:   -4.69 KCAL/MOL
REMARK 924 INTRA-LIGAND FREE ENERGY PREDICTED BY IDOCK:   -1.44 KCAL/MOL
REMARK 927      BINDING AFFINITY PREDICTED BY RF-SCORE:    0.00 PKD
ROOT
HETATM    1  N   UNK A   1     -10.755  10.702  70.497  1.00  0.00    -0.352 NA 
HETATM    2  H1  UNK A   1     -10.198  10.100  71.104  1.00  0.00     0.000 HD 
HETATM    3  H2  UNK A   1     -10.278  11.588  70.331  1.00  0.00     0.000 HD 
HETATM    4  C   UNK A   1     -12.137  10.933  70.996  1.00  0.00    -0.320 C  
HETATM    5  O   UNK A   1     -14.012   9.371  71.273  1.00  0.00    -0.272 OA 
HETATM    6  C   UNK A   1     -12.808   9.571  71.244  1.00  0.00    -0.333 C  
HETATM    7  O   UNK A   1     -11.879   8.600  71.432  1.00  0.00    -0.275 OA 
ENDROOT
BRANCH   4   8
HETATM    8  C   UNK A   1     -12.973  11.835  70.085  1.00  0.00     0.400 C  
BRANCH   8   9
HETATM    9  C   UNK A   1     -12.204  12.477  68.929  1.00  0.00    -0.002 C  
BRANCH   9  10
HETATM   10  C   UNK A   1     -11.934  13.932  69.238  1.00  0.00    -0.357 C  
HETATM   11  N   UNK A   1     -11.125  14.568  68.320  1.00  0.00    -0.252 N  
HETATM   12  O   UNK A   1     -12.370  14.480  70.246  1.00  0.00    -0.316 OA 
HETATM   13  H   UNK A   1     -10.742  14.052  67.529  1.00  0.00     0.000 HD 
BRANCH  11  14
HETATM   14  C   UNK A   1     -10.819  15.995  68.490  1.00  0.00    -0.304 C  
BRANCH  14  15
HETATM   15  C   UNK A   1     -10.347  16.564  67.137  1.00  0.00    -0.298 C  
ATOM     16  H   GLY A   2      -8.473  16.902  67.947  1.00  0.00     0.000 HD 
ATOM     17  N   GLY A   2      -9.029  16.964  67.095  1.00  0.00    -0.203 N  
HETATM   18  O   UNK A   1     -11.089  16.673  66.174  1.00  0.00     0.037 OA 
BRANCH  17  19
ATOM     19  CA  GLY A   2      -8.399  17.469  65.888  1.00  0.00     0.037 C  
ATOM     20  C   GLY A   2      -7.283  18.473  66.128  1.00  0.00    -0.266 C  
ATOM     21  O   GLY A   2      -7.380  19.181  67.293  1.00  0.00    -0.222 OA 
ATOM     22  OXT GLY A   2      -6.390  18.699  65.326  1.00  0.00    -0.281 OA 
ENDBRANCH  17  19
ENDBRANCH  14  15
BRANCH  14  23
HETATM   23  C   UNK A   1      -9.758  16.196  69.586  1.00  0.00    -0.110 C  
BRANCH  23  24
HETATM   24  S   UNK A   1      -9.038  14.678  70.288  1.00  0.00     1.636 SA 
BRANCH  24  25
HETATM   25  S   UNK A   1      -7.297  14.500  69.221  1.00  0.00    -0.092 SA 
BRANCH  25  26
HETATM   26  C   UNK A   1      -7.878  13.762  67.653  1.00  0.00    -0.178 C  
BRANCH  26  27
HETATM   27  C   UNK A   1      -8.451  12.337  67.768  1.00  0.00    -0.163 C  
BRANCH  27  28
HETATM   28  C   UNK A   1      -9.174  11.928  66.450  1.00  0.00    -0.215 C  
ATOM     29  H   GLY A   2     -10.895  11.359  67.489  1.00  0.00     0.000 HD 
ATOM     30  N   GLY A   2     -10.476  11.485  66.567  1.00  0.00    -0.235 N  
HETATM   31  O   UNK A   1      -8.675  12.104  65.340  1.00  0.00     0.393 OA 
BRANCH  30  32
ATOM     32  CA  GLY A   2     -11.248  11.197  65.364  1.00  0.00     0.091 C  
ATOM     33  OXT GLY A   2     -13.292  11.943  64.253  1.00  0.00    -0.610 OA 
ATOM     34  C   GLY A   2     -12.298  12.222  64.914  1.00  0.00    -0.299 C  
ATOM     35  O   GLY A   2     -11.945  13.507  65.113  1.00  0.00    -0.336 OA 
ENDBRANCH  30  32
ENDBRANCH  27  28
BRANCH  27  36
HETATM   36  N   UNK A   1      -7.549  11.355  68.409  1.00  0.00    -0.115 N  
HETATM   37  H   UNK A   1      -7.888  10.822  69.210  1.00  0.00     0.000 HD 
HETATM   38  O   UNK A   1      -5.822  11.627  66.928  1.00  0.00    -0.119 OA 
HETATM   39  C   UNK A   1      -6.267  11.138  67.961  1.00  0.00    -0.049 C  
BRANCH  39  40
HETATM   40  C   UNK A   1      -5.442  10.129  68.746  1.00  0.00    -0.038 C  
BRANCH  40  41
HETATM   41  C   UNK A   1      -6.039   9.628  70.075  1.00  0.00    -0.049 C  
BRANCH  41  42
HETATM   42  C   UNK A   1      -7.439   8.999  70.034  1.00  0.00    -0.062 C  
HETATM   43  N   UNK A   1      -8.096   8.995  71.368  1.00  0.00    -0.320 NA 
HETATM   44  C   UNK A   1      -7.339   7.555  69.577  1.00  0.00    -0.084 C  
HETATM   45  O   UNK A   1      -7.209   7.124  68.446  1.00  0.00    -0.085 OA 
HETATM   46  O   UNK A   1      -7.345   6.750  70.664  1.00  0.00    -0.072 OA 
HETATM   47  H2  UNK A   1      -8.126   9.933  71.766  1.00  0.00     0.000 HD 
HETATM   48  H1  UNK A   1      -9.026   8.577  71.341  1.00  0.00     0.000 HD 
ENDBRANCH  41  42
ENDBRANCH  40  41
ENDBRANCH  39  40
ENDBRANCH  27  36
ENDBRANCH  26  27
ENDBRANCH  25  26
ENDBRANCH  24  25
ENDBRANCH  23  24
ENDBRANCH  14  23
ENDBRANCH  11  14
ENDBRANCH   9  10
ENDBRANCH   8   9
ENDBRANCH   4   8
TORSDOF 17
ENDMDL
MODEL      310
REMARK 921   NORMALIZED FREE ENERGY PREDICTED BY IDOCK:   -1.58 KCAL/MOL
REMARK 922        TOTAL FREE ENERGY PREDICTED BY IDOCK:   -6.13 KCAL/MOL
REMARK 923 INTER-LIGAND FREE ENERGY PREDICTED BY IDOCK:   -5.13 KCAL/MOL
REMARK 924 INTRA-LIGAND FREE ENERGY PREDICTED BY IDOCK:   -1.00 KCAL/MOL
REMARK 927      BINDING AFFINITY PREDICTED BY RF-SCORE:    0.00 PKD
ROOT
HETATM    1  N   UNK A   1      -5.861   4.125  65.703  1.00  0.00    -0.022 NA 
HETATM    2  H1  UNK A   1      -5.847   3.364  66.382  1.00  0.00     0.000 HD 
HETATM    3  H2  UNK A   1      -6.230   4.977  66.126  1.00  0.00     0.000 HD 
HETATM    4  C   UNK A   1      -6.597   3.795  64.454  1.00  0.00    -0.043 C  
HETATM    5  O   UNK A   1      -6.094   2.155  62.696  1.00  0.00    -0.008 OA 
HETATM    6  C   UNK A   1      -6.015   2.499  63.864  1.00  0.00    -0.014 C  
HETATM    7  O   UNK A   1      -5.391   1.768  64.823  1.00  0.00    -0.004 OA 
ENDROOT
BRANCH   4   8
HETATM    8  C   UNK A   1      -6.618   4.938  63.436  1.00  0.00    -0.027 C  
BRANCH   8   9
HETATM    9  C   UNK A   1      -7.926   5.729  63.379  1.00  0.00    -0.108 C  
BRANCH   9  10
HETATM   10  C   UNK A   1      -7.936   6.783  64.461  1.00  0.00    -0.106 C  
HETATM   11  N   UNK A   1      -9.032   6.731  65.296  1.00  0.00    -0.358 N  
HETATM   12  O   UNK A   1      -7.058   7.635  64.555  1.00  0.00    -0.060 OA 
HETATM   13  H   UNK A   1      -9.764   6.038  65.140  1.00  0.00     0.000 HD 
BRANCH  11  14
HETATM   14  C   UNK A   1      -9.140   7.681  66.412  1.00  0.00    -0.174 C  
BRANCH  14  15
HETATM   15  C   UNK A   1     -10.217   7.173  67.391  1.00  0.00    -0.226 C  
ATOM     16  H   GLY A   2      -8.913   7.483  68.967  1.00  0.00     0.000 HD 
ATOM     17  N   GLY A   2      -9.857   7.187  68.721  1.00  0.00    -0.156 N  
HETATM   18  O   UNK A   1     -11.307   6.767  67.019  1.00  0.00    -0.337 OA 
BRANCH  17  19
ATOM     19  CA  GLY A   2     -10.765   6.799  69.786  1.00  0.00    -0.249 C  
ATOM     20  C   GLY A   2     -10.392   5.509  70.498  1.00  0.00    -0.272 C  
ATOM     21  O   GLY A   2      -9.666   4.623  69.752  1.00  0.00    -0.173 OA 
ATOM     22  OXT GLY A   2     -10.756   5.229  71.630  1.00  0.00    -0.219 OA 
ENDBRANCH  17  19
ENDBRANCH  14  15
BRANCH  14  23
HETATM   23  C   UNK A   1      -9.470   9.092  65.894  1.00  0.00    -0.249 C  
BRANCH  23  24
HETATM   24  S   UNK A   1      -8.989  10.472  66.979  1.00  0.00    -0.140 SA 
BRANCH  24  25
HETATM   25  S   UNK A   1      -7.262  11.130  66.091  1.00  0.00     0.074 SA 
BRANCH  25  26
HETATM   26  C   UNK A   1      -5.986  10.595  67.285  1.00  0.00    -0.054 C  
BRANCH  26  27
HETATM   27  C   UNK A   1      -5.592  11.643  68.342  1.00  0.00    -0.045 C  
BRANCH  27  28
HETATM   28  C   UNK A   1      -6.569  12.856  68.304  1.00  0.00    -0.091 C  
ATOM     29  H   GLY A   2      -5.227  13.990  67.175  1.00  0.00     0.000 HD 
ATOM     30  N   GLY A   2      -6.161  13.960  67.583  1.00  0.00    -0.138 N  
HETATM   31  O   UNK A   1      -7.703  12.805  68.777  1.00  0.00    -0.093 OA 
BRANCH  30  32
ATOM     32  CA  GLY A   2      -7.075  15.082  67.410  1.00  0.00    -0.175 C  
ATOM     33  OXT GLY A   2      -7.037  17.524  67.450  1.00  0.00    -0.163 OA 
ATOM     34  C   GLY A   2      -6.477  16.474  67.161  1.00  0.00    -0.194 C  
ATOM     35  O   GLY A   2      -5.366  16.475  66.399  1.00  0.00    -0.282 OA 
ENDBRANCH  30  32
ENDBRANCH  27  28
BRANCH  27  36
HETATM   36  N   UNK A   1      -5.216  11.084  69.659  1.00  0.00    -0.041 N  
HETATM   37  H   UNK A   1      -4.364  11.416  70.112  1.00  0.00     0.000 HD 
HETATM   38  O   UNK A   1      -7.080   9.773  69.895  1.00  0.00    -0.076 OA 
HETATM   39  C   UNK A   1      -5.977  10.130  70.294  1.00  0.00    -0.081 C  
BRANCH  39  40
HETATM   40  C   UNK A   1      -5.442   9.617  71.623  1.00  0.00    -0.072 C  
BRANCH  40  41
HETATM   41  C   UNK A   1      -5.721   8.140  71.960  1.00  0.00    -0.038 C  
BRANCH  41  42
HETATM   42  C   UNK A   1      -6.330   7.826  73.334  1.00  0.00    -0.067 C  
HETATM   43  N   UNK A   1      -5.921   6.488  73.840  1.00  0.00    -0.062 NA 
HETATM   44  C   UNK A   1      -7.844   7.826  73.236  1.00  0.00    -0.128 C  
HETATM   45  O   UNK A   1      -8.603   8.778  73.215  1.00  0.00    -0.345 OA 
HETATM   46  O   UNK A   1      -8.275   6.552  73.095  1.00  0.00    -0.113 OA 
HETATM   47  H2  UNK A   1      -4.905   6.396  73.858  1.00  0.00     0.000 HD 
HETATM   48  H1  UNK A   1      -6.325   6.279  74.753  1.00  0.00     0.000 HD 
ENDBRANCH  41  42
ENDBRANCH  40  41
ENDBRANCH  39  40
ENDBRANCH  27  36
ENDBRANCH  26  27
ENDBRANCH  25  26
ENDBRANCH  24  25
ENDBRANCH  23  24
ENDBRANCH  14  23
ENDBRANCH  11  14
ENDBRANCH   9  10
ENDBRANCH   8   9
ENDBRANCH   4   8
TORSDOF 17
ENDMDL
MODEL      311
REMARK 921   NORMALIZED FREE ENERGY PREDICTED BY IDOCK:   -1.50 KCAL/MOL
REMARK 922        TOTAL FREE ENERGY PREDICTED BY IDOCK:   -5.96 KCAL/MOL
REMARK 923 INTER-LIGAND FREE ENERGY PREDICTED BY IDOCK:   -5.30 KCAL/MOL
REMARK 924 INTRA-LIGAND FREE ENERGY PREDICTED BY IDOCK:   -0.66 KCAL/MOL
REMARK 927      BINDING AFFINITY PREDICTED BY RF-SCORE:    0.00 PKD
ROOT
HETATM    1  N   UNK A   1      -8.539  14.488  69.374  1.00  0.00    -0.381 NA 
HETATM    2  H1  UNK A   1      -8.704  15.449  69.074  1.00  0.00     0.000 HD 
HETATM    3  H2  UNK A   1      -7.646  14.411  69.862  1.00  0.00     0.000 HD 
HETATM    4  C   UNK A   1      -8.621  13.498  68.267  1.00  0.00    -0.168 C  
HETATM    5  O   UNK A   1     -10.534  12.806  66.889  1.00  0.00    -0.239 OA 
HETATM    6  C   UNK A   1      -9.975  13.664  67.555  1.00  0.00    -0.230 C  
HETATM    7  O   UNK A   1     -10.482  14.906  67.761  1.00  0.00    -0.250 OA 
ENDROOT
BRANCH   4   8
HETATM    8  C   UNK A   1      -8.373  12.057  68.716  1.00  0.00     0.048 C  
BRANCH   8   9
HETATM    9  C   UNK A   1      -6.981  11.510  68.395  1.00  0.00    -0.077 C  
BRANCH   9  10
HETATM   10  C   UNK A   1      -7.090  10.397  67.379  1.00  0.00    -0.087 C  
HETATM   11  N   UNK A   1      -5.891  10.033  66.803  1.00  0.00    -0.050 N  
HETATM   12  O   UNK A   1      -8.166   9.894  67.069  1.00  0.00    -0.116 OA 
HETATM   13  H   UNK A   1      -5.032  10.522  67.053  1.00  0.00     0.000 HD 
BRANCH  11  14
HETATM   14  C   UNK A   1      -5.860   8.937  65.825  1.00  0.00    -0.051 C  
BRANCH  14  15
HETATM   15  C   UNK A   1      -6.508   9.426  64.514  1.00  0.00    -0.084 C  
ATOM     16  H   GLY A   2      -7.990   7.998  64.729  1.00  0.00     0.000 HD 
ATOM     17  N   GLY A   2      -7.665   8.772  64.150  1.00  0.00    -0.123 N  
HETATM   18  O   UNK A   1      -6.024  10.316  63.831  1.00  0.00    -0.133 OA 
BRANCH  17  19
ATOM     19  CA  GLY A   2      -8.440   9.138  62.978  1.00  0.00    -0.206 C  
ATOM     20  C   GLY A   2      -9.497  10.202  63.225  1.00  0.00    -0.257 C  
ATOM     21  O   GLY A   2      -9.973  10.263  64.504  1.00  0.00    -0.339 OA 
ATOM     22  OXT GLY A   2      -9.956  10.919  62.347  1.00  0.00    -0.049 OA 
ENDBRANCH  17  19
ENDBRANCH  14  15
BRANCH  14  23
HETATM   23  C   UNK A   1      -6.577   7.694  66.378  1.00  0.00    -0.050 C  
BRANCH  23  24
HETATM   24  S   UNK A   1      -5.661   6.125  66.262  1.00  0.00    -0.013 SA 
BRANCH  24  25
HETATM   25  S   UNK A   1      -5.367   5.657  68.236  1.00  0.00    -0.004 SA 
BRANCH  25  26
HETATM   26  C   UNK A   1      -6.547   6.771  69.077  1.00  0.00    -0.041 C  
BRANCH  26  27
HETATM   27  C   UNK A   1      -7.583   6.074  69.980  1.00  0.00    -0.087 C  
BRANCH  27  28
HETATM   28  C   UNK A   1      -8.445   7.126  70.739  1.00  0.00    -0.133 C  
ATOM     29  H   GLY A   2      -9.602   7.505  69.041  1.00  0.00     0.000 HD 
ATOM     30  N   GLY A   2      -9.480   7.707  70.033  1.00  0.00    -0.161 N  
HETATM   31  O   UNK A   1      -8.310   7.349  71.941  1.00  0.00    -0.105 OA 
BRANCH  30  32
ATOM     32  CA  GLY A   2     -10.396   8.612  70.717  1.00  0.00    -0.204 C  
ATOM     33  OXT GLY A   2     -12.760   8.749  71.315  1.00  0.00    -0.305 OA 
ATOM     34  C   GLY A   2     -11.756   8.062  71.168  1.00  0.00    -0.284 C  
ATOM     35  O   GLY A   2     -11.726   6.789  71.605  1.00  0.00    -0.280 OA 
ENDBRANCH  30  32
ENDBRANCH  27  28
BRANCH  27  36
HETATM   36  N   UNK A   1      -8.267   4.918  69.361  1.00  0.00    -0.081 N  
HETATM   37  H   UNK A   1      -8.188   4.003  69.804  1.00  0.00     0.000 HD 
HETATM   38  O   UNK A   1      -9.272   6.113  67.685  1.00  0.00    -0.111 OA 
HETATM   39  C   UNK A   1      -9.007   5.036  68.208  1.00  0.00    -0.108 C  
BRANCH  39  40
HETATM   40  C   UNK A   1      -9.617   3.753  67.665  1.00  0.00    -0.199 C  
BRANCH  40  41
HETATM   41  C   UNK A   1      -8.643   2.721  67.065  1.00  0.00    -0.117 C  
BRANCH  41  42
HETATM   42  C   UNK A   1      -7.693   3.198  65.957  1.00  0.00    -0.078 C  
HETATM   43  N   UNK A   1      -8.188   2.851  64.599  1.00  0.00    -0.086 NA 
HETATM   44  C   UNK A   1      -6.337   2.537  66.125  1.00  0.00    -0.024 C  
HETATM   45  O   UNK A   1      -5.441   2.827  66.897  1.00  0.00    -0.018 OA 
HETATM   46  O   UNK A   1      -6.266   1.468  65.300  1.00  0.00    -0.020 OA 
HETATM   47  H2  UNK A   1      -9.133   3.204  64.450  1.00  0.00     0.000 HD 
HETATM   48  H1  UNK A   1      -7.557   3.168  63.863  1.00  0.00     0.000 HD 
ENDBRANCH  41  42
ENDBRANCH  40  41
ENDBRANCH  39  40
ENDBRANCH  27  36
ENDBRANCH  26  27
ENDBRANCH  25  26
ENDBRANCH  24  25
ENDBRANCH  23  24
ENDBRANCH  14  23
ENDBRANCH  11  14
ENDBRANCH   9  10
ENDBRANCH   8   9
ENDBRANCH   4   8
TORSDOF 17
ENDMDL
MODEL      312
REMARK 921   NORMALIZED FREE ENERGY PREDICTED BY IDOCK:   -1.44 KCAL/MOL
REMARK 922        TOTAL FREE ENERGY PREDICTED BY IDOCK:   -5.83 KCAL/MOL
REMARK 923 INTER-LIGAND FREE ENERGY PREDICTED BY IDOCK:   -7.26 KCAL/MOL
REMARK 924 INTRA-LIGAND FREE ENERGY PREDICTED BY IDOCK:    1.43 KCAL/MOL
REMARK 927      BINDING AFFINITY PREDICTED BY RF-SCORE:    0.00 PKD
ROOT
HETATM    1  N   UNK A   1      -9.146   5.201  72.730  1.00  0.00    -0.133 NA 
HETATM    2  H1  UNK A   1      -9.880   5.052  73.423  1.00  0.00     0.000 HD 
HETATM    3  H2  UNK A   1      -9.166   6.161  72.385  1.00  0.00     0.000 HD 
HETATM    4  C   UNK A   1      -9.189   4.234  71.600  1.00  0.00    -0.132 C  
HETATM    5  O   UNK A   1      -8.813   1.807  71.568  1.00  0.00    -0.060 OA 
HETATM    6  C   UNK A   1      -9.171   2.806  72.171  1.00  0.00    -0.095 C  
HETATM    7  O   UNK A   1      -9.614   2.791  73.454  1.00  0.00    -0.090 OA 
ENDROOT
BRANCH   4   8
HETATM    8  C   UNK A   1      -8.088   4.459  70.561  1.00  0.00    -0.067 C  
BRANCH   8   9
HETATM    9  C   UNK A   1      -8.411   3.947  69.156  1.00  0.00    -0.102 C  
BRANCH   9  10
HETATM   10  C   UNK A   1      -8.000   4.976  68.129  1.00  0.00    -0.087 C  
HETATM   11  N   UNK A   1      -9.046   5.702  67.599  1.00  0.00    -0.107 N  
HETATM   12  O   UNK A   1      -6.834   5.118  67.773  1.00  0.00    -0.057 OA 
HETATM   13  H   UNK A   1     -10.004   5.506  67.888  1.00  0.00     0.000 HD 
BRANCH  11  14
HETATM   14  C   UNK A   1      -8.771   6.758  66.616  1.00  0.00    -0.127 C  
BRANCH  14  15
HETATM   15  C   UNK A   1      -7.778   6.214  65.570  1.00  0.00    -0.094 C  
ATOM     16  H   GLY A   2      -9.057   4.630  65.199  1.00  0.00     0.000 HD 
ATOM     17  N   GLY A   2      -8.176   5.064  64.925  1.00  0.00    -0.125 N  
HETATM   18  O   UNK A   1      -6.704   6.748  65.340  1.00  0.00    -0.048 OA 
BRANCH  17  19
ATOM     19  CA  GLY A   2      -7.394   4.443  63.870  1.00  0.00    -0.055 C  
ATOM     20  C   GLY A   2      -6.224   3.605  64.358  1.00  0.00    -0.023 C  
ATOM     21  O   GLY A   2      -5.714   3.971  65.572  1.00  0.00    -0.020 OA 
ATOM     22  OXT GLY A   2      -5.713   2.707  63.704  1.00  0.00    -0.009 OA 
ENDBRANCH  17  19
ENDBRANCH  14  15
BRANCH  14  23
HETATM   23  C   UNK A   1      -8.222   8.017  67.311  1.00  0.00    -0.122 C  
BRANCH  23  24
HETATM   24  S   UNK A   1      -8.296   8.021  69.130  1.00  0.00    -0.133 SA 
BRANCH  24  25
HETATM   25  S   UNK A   1      -7.817   9.965  69.570  1.00  0.00    -0.157 SA 
BRANCH  25  26
HETATM   26  C   UNK A   1      -8.526  10.870  68.149  1.00  0.00    -0.131 C  
BRANCH  26  27
HETATM   27  C   UNK A   1      -9.984  11.335  68.324  1.00  0.00    -0.195 C  
BRANCH  27  28
HETATM   28  C   UNK A   1     -10.681  11.489  66.939  1.00  0.00    -0.263 C  
ATOM     29  H   GLY A   2      -9.085  12.605  66.183  1.00  0.00     0.000 HD 
ATOM     30  N   GLY A   2      -9.978  12.165  65.962  1.00  0.00    -0.232 N  
HETATM   31  O   UNK A   1     -11.746  10.936  66.670  1.00  0.00    -0.093 OA 
BRANCH  30  32
ATOM     32  CA  GLY A   2     -10.522  12.244  64.612  1.00  0.00    -0.303 C  
ATOM     33  OXT GLY A   2     -12.691  12.313  63.491  1.00  0.00    -0.729 OA 
ATOM     34  C   GLY A   2     -11.996  12.639  64.445  1.00  0.00    -0.400 C  
ATOM     35  O   GLY A   2     -12.429  13.560  65.327  1.00  0.00    -0.437 OA 
ENDBRANCH  30  32
ENDBRANCH  27  28
BRANCH  27  36
HETATM   36  N   UNK A   1     -10.723  10.659  69.412  1.00  0.00    -0.230 N  
HETATM   37  H   UNK A   1     -10.662   9.644  69.495  1.00  0.00     0.000 HD 
HETATM   38  O   UNK A   1     -11.515  12.578  70.381  1.00  0.00     0.004 OA 
HETATM   39  C   UNK A   1     -11.492  11.354  70.317  1.00  0.00    -0.151 C  
BRANCH  39  40
HETATM   40  C   UNK A   1     -12.229  10.521  71.354  1.00  0.00    -0.429 C  
BRANCH  40  41
HETATM   41  C   UNK A   1     -13.617   9.985  70.955  1.00  0.00    -0.137 C  
BRANCH  41  42
HETATM   42  C   UNK A   1     -14.218   8.858  71.807  1.00  0.00    -0.317 C  
HETATM   43  N   UNK A   1     -14.230   9.190  73.257  1.00  0.00    -1.066 NA 
HETATM   44  C   UNK A   1     -13.392   7.595  71.641  1.00  0.00    -0.350 C  
HETATM   45  O   UNK A   1     -13.408   6.792  70.726  1.00  0.00     0.048 OA 
HETATM   46  O   UNK A   1     -12.526   7.498  72.676  1.00  0.00    -0.011 OA 
HETATM   47  H2  UNK A   1     -14.707  10.074  73.428  1.00  0.00     0.000 HD 
HETATM   48  H1  UNK A   1     -14.628   8.441  73.823  1.00  0.00     0.000 HD 
ENDBRANCH  41  42
ENDBRANCH  40  41
ENDBRANCH  39  40
ENDBRANCH  27  36
ENDBRANCH  26  27
ENDBRANCH  25  26
ENDBRANCH  24  25
ENDBRANCH  23  24
ENDBRANCH  14  23
ENDBRANCH  11  14
ENDBRANCH   9  10
ENDBRANCH   8   9
ENDBRANCH   4   8
TORSDOF 17
ENDMDL
MODEL      313
REMARK 921   NORMALIZED FREE ENERGY PREDICTED BY IDOCK:   -1.12 KCAL/MOL
REMARK 922        TOTAL FREE ENERGY PREDICTED BY IDOCK:   -5.20 KCAL/MOL
REMARK 923 INTER-LIGAND FREE ENERGY PREDICTED BY IDOCK:   -6.34 KCAL/MOL
REMARK 924 INTRA-LIGAND FREE ENERGY PREDICTED BY IDOCK:    1.14 KCAL/MOL
REMARK 927      BINDING AFFINITY PREDICTED BY RF-SCORE:    0.00 PKD
ROOT
HETATM    1  N   UNK A   1     -13.063   7.212  70.840  1.00  0.00    -0.561 NA 
HETATM    2  H1  UNK A   1     -12.816   6.394  70.283  1.00  0.00     0.000 HD 
HETATM    3  H2  UNK A   1     -13.407   7.964  70.243  1.00  0.00     0.000 HD 
HETATM    4  C   UNK A   1     -11.957   7.694  71.711  1.00  0.00    -0.299 C  
HETATM    5  O   UNK A   1     -10.870   6.631  73.640  1.00  0.00    -0.274 OA 
HETATM    6  C   UNK A   1     -11.464   6.523  72.579  1.00  0.00    -0.239 C  
HETATM    7  O   UNK A   1     -11.776   5.332  72.008  1.00  0.00     0.079 OA 
ENDROOT
BRANCH   4   8
HETATM    8  C   UNK A   1     -12.328   8.922  72.546  1.00  0.00    -0.325 C  
BRANCH   8   9
HETATM    9  C   UNK A   1     -13.331   9.871  71.890  1.00  0.00    -0.524 C  
BRANCH   9  10
HETATM   10  C   UNK A   1     -12.951  10.101  70.446  1.00  0.00    -0.059 C  
HETATM   11  N   UNK A   1     -11.681   9.675  70.117  1.00  0.00    -0.435 N  
HETATM   12  O   UNK A   1     -13.701  10.659  69.650  1.00  0.00     0.771 OA 
HETATM   13  H   UNK A   1     -11.075   9.270  70.830  1.00  0.00     0.000 HD 
BRANCH  11  14
HETATM   14  C   UNK A   1     -11.206   9.810  68.733  1.00  0.00    -0.020 C  
BRANCH  14  15
HETATM   15  C   UNK A   1      -9.940   8.948  68.559  1.00  0.00    -0.177 C  
ATOM     16  H   GLY A   2      -9.987   8.493  70.577  1.00  0.00     0.000 HD 
ATOM     17  N   GLY A   2      -9.494   8.321  69.702  1.00  0.00    -0.162 N  
HETATM   18  O   UNK A   1      -9.357   8.841  67.491  1.00  0.00    -0.135 OA 
BRANCH  17  19
ATOM     19  CA  GLY A   2      -8.351   7.425  69.712  1.00  0.00    -0.134 C  
ATOM     20  C   GLY A   2      -7.319   7.725  70.787  1.00  0.00    -0.065 C  
ATOM     21  O   GLY A   2      -7.273   9.028  71.199  1.00  0.00    -0.099 OA 
ATOM     22  OXT GLY A   2      -6.532   6.898  71.222  1.00  0.00    -0.041 OA 
ENDBRANCH  17  19
ENDBRANCH  14  15
BRANCH  14  23
HETATM   23  C   UNK A   1     -10.933  11.286  68.394  1.00  0.00    -0.219 C  
BRANCH  23  24
HETATM   24  S   UNK A   1     -11.377  12.496  69.680  1.00  0.00    -0.038 SA 
BRANCH  24  25
HETATM   25  S   UNK A   1     -11.479  14.239  68.606  1.00  0.00    -0.317 SA 
BRANCH  25  26
HETATM   26  C   UNK A   1     -10.027  15.160  69.226  1.00  0.00    -0.242 C  
BRANCH  26  27
HETATM   27  C   UNK A   1      -9.053  15.661  68.144  1.00  0.00    -0.181 C  
BRANCH  27  28
HETATM   28  C   UNK A   1      -9.093  17.215  68.045  1.00  0.00    -0.240 C  
ATOM     29  H   GLY A   2      -7.833  17.422  69.698  1.00  0.00     0.000 HD 
ATOM     30  N   GLY A   2      -8.326  17.916  68.955  1.00  0.00    -0.195 N  
HETATM   31  O   UNK A   1      -9.670  17.805  67.133  1.00  0.00    -0.272 OA 
BRANCH  30  32
ATOM     32  CA  GLY A   2      -8.227  19.366  68.845  1.00  0.00    -0.304 C  
ATOM     33  OXT GLY A   2      -6.584  21.069  68.238  1.00  0.00    -0.247 OA 
ATOM     34  C   GLY A   2      -7.056  19.954  68.046  1.00  0.00    -0.284 C  
ATOM     35  O   GLY A   2      -6.708  19.240  66.959  1.00  0.00    -0.197 OA 
ENDBRANCH  30  32
ENDBRANCH  27  28
BRANCH  27  36
HETATM   36  N   UNK A   1      -7.735  14.990  68.138  1.00  0.00    -0.108 N  
HETATM   37  H   UNK A   1      -6.943  15.452  68.585  1.00  0.00     0.000 HD 
HETATM   38  O   UNK A   1      -8.455  13.073  67.111  1.00  0.00    -0.191 OA 
HETATM   39  C   UNK A   1      -7.540  13.762  67.548  1.00  0.00    -0.173 C  
BRANCH  39  40
HETATM   40  C   UNK A   1      -6.121  13.216  67.583  1.00  0.00    -0.149 C  
BRANCH  40  41
HETATM   41  C   UNK A   1      -5.868  12.001  68.496  1.00  0.00    -0.052 C  
BRANCH  41  42
HETATM   42  C   UNK A   1      -6.415  10.641  68.039  1.00  0.00    -0.062 C  
HETATM   43  N   UNK A   1      -5.689   9.502  68.662  1.00  0.00    -0.040 NA 
HETATM   44  C   UNK A   1      -6.261  10.505  66.535  1.00  0.00    -0.085 C  
HETATM   45  O   UNK A   1      -6.954  10.981  65.655  1.00  0.00    -0.006 OA 
HETATM   46  O   UNK A   1      -5.139   9.797  66.271  1.00  0.00    -0.037 OA 
HETATM   47  H2  UNK A   1      -5.690   9.576  69.678  1.00  0.00     0.000 HD 
HETATM   48  H1  UNK A   1      -6.052   8.598  68.358  1.00  0.00     0.000 HD 
ENDBRANCH  41  42
ENDBRANCH  40  41
ENDBRANCH  39  40
ENDBRANCH  27  36
ENDBRANCH  26  27
ENDBRANCH  25  26
ENDBRANCH  24  25
ENDBRANCH  23  24
ENDBRANCH  14  23
ENDBRANCH  11  14
ENDBRANCH   9  10
ENDBRANCH   8   9
ENDBRANCH   4   8
TORSDOF 17
ENDMDL
MODEL      314
REMARK 921   NORMALIZED FREE ENERGY PREDICTED BY IDOCK:   -0.93 KCAL/MOL
REMARK 922        TOTAL FREE ENERGY PREDICTED BY IDOCK:   -4.83 KCAL/MOL
REMARK 923 INTER-LIGAND FREE ENERGY PREDICTED BY IDOCK:   -5.07 KCAL/MOL
REMARK 924 INTRA-LIGAND FREE ENERGY PREDICTED BY IDOCK:    0.24 KCAL/MOL
REMARK 927      BINDING AFFINITY PREDICTED BY RF-SCORE:    0.00 PKD
ROOT
HETATM    1  N   UNK A   1     -10.028  14.846  67.428  1.00  0.00    -0.223 NA 
HETATM    2  H1  UNK A   1      -9.437  15.348  66.766  1.00  0.00     0.000 HD 
HETATM    3  H2  UNK A   1      -9.563  14.757  68.332  1.00  0.00     0.000 HD 
HETATM    4  C   UNK A   1     -10.478  13.517  66.935  1.00  0.00    -0.271 C  
HETATM    5  O   UNK A   1     -11.965  12.931  65.069  1.00  0.00    -0.356 OA 
HETATM    6  C   UNK A   1     -11.160  13.701  65.568  1.00  0.00    -0.295 C  
HETATM    7  O   UNK A   1     -10.745  14.848  64.971  1.00  0.00    -0.380 OA 
ENDROOT
BRANCH   4   8
HETATM    8  C   UNK A   1     -11.365  12.764  67.929  1.00  0.00    -0.339 C  
BRANCH   8   9
HETATM    9  C   UNK A   1     -11.193  11.244  67.928  1.00  0.00    -0.353 C  
BRANCH   9  10
HETATM   10  C   UNK A   1     -11.075  10.740  69.347  1.00  0.00    -0.268 C  
HETATM   11  N   UNK A   1     -10.395   9.547  69.473  1.00  0.00    -0.205 N  
HETATM   12  O   UNK A   1     -11.581  11.330  70.297  1.00  0.00    -0.311 OA 
HETATM   13  H   UNK A   1     -10.043   9.067  68.645  1.00  0.00     0.000 HD 
BRANCH  11  14
HETATM   14  C   UNK A   1     -10.181   8.971  70.807  1.00  0.00    -0.244 C  
BRANCH  14  15
HETATM   15  C   UNK A   1      -8.689   9.108  71.172  1.00  0.00    -0.143 C  
ATOM     16  H   GLY A   2      -8.862   7.479  72.436  1.00  0.00     0.000 HD 
ATOM     17  N   GLY A   2      -8.211   8.165  72.054  1.00  0.00    -0.136 N  
HETATM   18  O   UNK A   1      -7.982   9.999  70.728  1.00  0.00    -0.149 OA 
BRANCH  17  19
ATOM     19  CA  GLY A   2      -6.818   8.105  72.463  1.00  0.00    -0.086 C  
ATOM     20  C   GLY A   2      -6.558   8.559  73.891  1.00  0.00    -0.094 C  
ATOM     21  O   GLY A   2      -7.464   9.452  74.391  1.00  0.00    -0.030 OA 
ATOM     22  OXT GLY A   2      -5.582   8.219  74.543  1.00  0.00    -0.087 OA 
ENDBRANCH  17  19
ENDBRANCH  14  15
BRANCH  14  23
HETATM   23  C   UNK A   1     -10.637   7.502  70.845  1.00  0.00    -0.220 C  
BRANCH  23  24
HETATM   24  S   UNK A   1      -9.525   6.301  70.047  1.00  0.00    -0.155 SA 
BRANCH  24  25
HETATM   25  S   UNK A   1     -10.747   5.468  68.627  1.00  0.00    -0.008 SA 
BRANCH  25  26
HETATM   26  C   UNK A   1     -10.841   6.794  67.373  1.00  0.00    -0.347 C  
BRANCH  26  27
HETATM   27  C   UNK A   1      -9.808   6.701  66.235  1.00  0.00     0.047 C  
BRANCH  27  28
HETATM   28  C   UNK A   1      -9.185   8.098  65.943  1.00  0.00    -0.097 C  
ATOM     29  H   GLY A   2     -10.642   8.524  64.507  1.00  0.00     0.000 HD 
ATOM     30  N   GLY A   2      -9.840   8.890  65.021  1.00  0.00     0.580 N  
HETATM   31  O   UNK A   1      -8.234   8.545  66.582  1.00  0.00    -0.105 OA 
BRANCH  30  32
ATOM     32  CA  GLY A   2      -9.378  10.252  64.787  1.00  0.00    -0.260 C  
ATOM     33  OXT GLY A   2      -7.865  11.465  63.301  1.00  0.00     0.573 OA 
ATOM     34  C   GLY A   2      -8.680  10.563  63.455  1.00  0.00    -0.185 C  
ATOM     35  O   GLY A   2      -9.186   9.905  62.394  1.00  0.00    -0.278 OA 
ENDBRANCH  30  32
ENDBRANCH  27  28
BRANCH  27  36
HETATM   36  N   UNK A   1      -8.905   5.531  66.312  1.00  0.00    -0.129 N  
HETATM   37  H   UNK A   1      -9.113   4.709  65.745  1.00  0.00     0.000 HD 
HETATM   38  O   UNK A   1      -7.390   6.500  67.732  1.00  0.00    -0.090 OA 
HETATM   39  C   UNK A   1      -7.795   5.515  67.124  1.00  0.00    -0.101 C  
BRANCH  39  40
HETATM   40  C   UNK A   1      -6.986   4.227  67.131  1.00  0.00    -0.060 C  
BRANCH  40  41
HETATM   41  C   UNK A   1      -6.070   3.975  65.917  1.00  0.00    -0.031 C  
BRANCH  41  42
HETATM   42  C   UNK A   1      -6.065   2.566  65.308  1.00  0.00    -0.019 C  
HETATM   43  N   UNK A   1      -5.387   2.524  63.986  1.00  0.00    -0.008 NA 
HETATM   44  C   UNK A   1      -7.492   2.094  65.097  1.00  0.00    -0.066 C  
HETATM   45  O   UNK A   1      -8.271   1.642  65.917  1.00  0.00    -0.077 OA 
HETATM   46  O   UNK A   1      -7.842   2.314  63.810  1.00  0.00    -0.066 OA 
HETATM   47  H2  UNK A   1      -4.442   2.902  64.045  1.00  0.00     0.000 HD 
HETATM   48  H1  UNK A   1      -5.383   1.587  63.581  1.00  0.00     0.000 HD 
ENDBRANCH  41  42
ENDBRANCH  40  41
ENDBRANCH  39  40
ENDBRANCH  27  36
ENDBRANCH  26  27
ENDBRANCH  25  26
ENDBRANCH  24  25
ENDBRANCH  23  24
ENDBRANCH  14  23
ENDBRANCH  11  14
ENDBRANCH   9  10
ENDBRANCH   8   9
ENDBRANCH   4   8
TORSDOF 17
ENDMDL
MODEL      315
REMARK 921   NORMALIZED FREE ENERGY PREDICTED BY IDOCK:   -0.80 KCAL/MOL
REMARK 922        TOTAL FREE ENERGY PREDICTED BY IDOCK:   -4.57 KCAL/MOL
REMARK 923 INTER-LIGAND FREE ENERGY PREDICTED BY IDOCK:   -6.99 KCAL/MOL
REMARK 924 INTRA-LIGAND FREE ENERGY PREDICTED BY IDOCK:    2.43 KCAL/MOL
REMARK 927      BINDING AFFINITY PREDICTED BY RF-SCORE:    0.00 PKD
ROOT
HETATM    1  N   UNK A   1      -9.390  18.687  65.801  1.00  0.00    -0.337 NA 
HETATM    2  H1  UNK A   1      -9.057  18.829  64.847  1.00  0.00     0.000 HD 
HETATM    3  H2  UNK A   1     -10.398  18.530  65.811  1.00  0.00     0.000 HD 
HETATM    4  C   UNK A   1      -9.019  19.788  66.730  1.00  0.00    -0.359 C  
HETATM    5  O   UNK A   1      -6.817  20.514  67.540  1.00  0.00    -0.271 OA 
HETATM    6  C   UNK A   1      -7.496  19.996  66.668  1.00  0.00    -0.270 C  
HETATM    7  O   UNK A   1      -6.990  19.525  65.500  1.00  0.00    -0.283 OA 
ENDROOT
BRANCH   4   8
HETATM    8  C   UNK A   1      -9.519  19.576  68.160  1.00  0.00    -0.439 C  
BRANCH   8   9
HETATM    9  C   UNK A   1      -9.060  18.274  68.819  1.00  0.00    -0.247 C  
BRANCH   9  10
HETATM   10  C   UNK A   1     -10.250  17.378  69.069  1.00  0.00    -0.317 C  
HETATM   11  N   UNK A   1     -10.696  16.699  67.954  1.00  0.00    -0.346 N  
HETATM   12  O   UNK A   1     -10.794  17.299  70.166  1.00  0.00     0.156 OA 
HETATM   13  H   UNK A   1     -10.245  16.843  67.051  1.00  0.00     0.000 HD 
BRANCH  11  14
HETATM   14  C   UNK A   1     -11.826  15.768  68.075  1.00  0.00     0.033 C  
BRANCH  14  15
HETATM   15  C   UNK A   1     -11.417  14.615  69.014  1.00  0.00    -0.291 C  
ATOM     16  H   GLY A   2     -13.011  13.497  68.313  1.00  0.00     0.000 HD 
ATOM     17  N   GLY A   2     -12.204  13.487  68.936  1.00  0.00    -0.260 N  
HETATM   18  O   UNK A   1     -10.476  14.697  69.788  1.00  0.00    -0.130 OA 
BRANCH  17  19
ATOM     19  CA  GLY A   2     -11.932  12.284  69.703  1.00  0.00    -0.279 C  
ATOM     20  C   GLY A   2     -12.523  12.279  71.104  1.00  0.00    -0.226 C  
ATOM     21  O   GLY A   2     -12.709  13.514  71.659  1.00  0.00    -0.337 OA 
ATOM     22  OXT GLY A   2     -12.760  11.261  71.737  1.00  0.00    -0.364 OA 
ENDBRANCH  17  19
ENDBRANCH  14  15
BRANCH  14  23
HETATM   23  C   UNK A   1     -12.250  15.245  66.692  1.00  0.00     0.612 C  
BRANCH  23  24
HETATM   24  S   UNK A   1     -11.179  13.968  65.959  1.00  0.00    -0.316 SA 
BRANCH  24  25
HETATM   25  S   UNK A   1      -9.350  14.894  65.963  1.00  0.00    -0.162 SA 
BRANCH  25  26
HETATM   26  C   UNK A   1      -8.583  14.228  67.483  1.00  0.00    -0.196 C  
BRANCH  26  27
HETATM   27  C   UNK A   1      -7.947  12.832  67.344  1.00  0.00    -0.179 C  
BRANCH  27  28
HETATM   28  C   UNK A   1      -7.526  12.279  68.738  1.00  0.00    -0.065 C  
ATOM     29  H   GLY A   2      -5.827  13.494  68.784  1.00  0.00     0.000 HD 
ATOM     30  N   GLY A   2      -6.392  12.825  69.306  1.00  0.00    -0.103 N  
HETATM   31  O   UNK A   1      -8.222  11.491  69.374  1.00  0.00     0.190 OA 
BRANCH  30  32
ATOM     32  CA  GLY A   2      -6.008  12.436  70.658  1.00  0.00     0.041 C  
ATOM     33  OXT GLY A   2      -5.203  13.466  72.721  1.00  0.00    -0.357 OA 
ATOM     34  C   GLY A   2      -5.919  13.532  71.730  1.00  0.00     0.461 C  
ATOM     35  O   GLY A   2      -6.853  14.496  71.620  1.00  0.00     0.826 OA 
ENDBRANCH  30  32
ENDBRANCH  27  28
BRANCH  27  36
HETATM   36  N   UNK A   1      -8.645  11.923  66.408  1.00  0.00    -0.347 N  
HETATM   37  H   UNK A   1      -9.414  12.288  65.847  1.00  0.00     0.000 HD 
HETATM   38  O   UNK A   1      -7.296  10.112  66.796  1.00  0.00    -0.099 OA 
HETATM   39  C   UNK A   1      -8.290  10.602  66.270  1.00  0.00    -0.155 C  
BRANCH  39  40
HETATM   40  C   UNK A   1      -9.125   9.779  65.301  1.00  0.00    -0.259 C  
BRANCH  40  41
HETATM   41  C   UNK A   1     -10.449  10.405  64.820  1.00  0.00    -0.087 C  
BRANCH  41  42
HETATM   42  C   UNK A   1     -10.454  11.092  63.447  1.00  0.00    -0.317 C  
HETATM   43  N   UNK A   1      -9.242  11.925  63.228  1.00  0.00    -0.649 NA 
HETATM   44  C   UNK A   1     -11.657  12.011  63.339  1.00  0.00    -0.403 C  
HETATM   45  O   UNK A   1     -12.815  11.721  63.100  1.00  0.00    -0.571 OA 
HETATM   46  O   UNK A   1     -11.271  13.275  63.627  1.00  0.00    -0.290 OA 
HETATM   47  H2  UNK A   1      -8.391  11.379  63.362  1.00  0.00     0.000 HD 
HETATM   48  H1  UNK A   1      -9.245  12.382  62.316  1.00  0.00     0.000 HD 
ENDBRANCH  41  42
ENDBRANCH  40  41
ENDBRANCH  39  40
ENDBRANCH  27  36
ENDBRANCH  26  27
ENDBRANCH  25  26
ENDBRANCH  24  25
ENDBRANCH  23  24
ENDBRANCH  14  23
ENDBRANCH  11  14
ENDBRANCH   9  10
ENDBRANCH   8   9
ENDBRANCH   4   8
TORSDOF 17
ENDMDL
MODEL      316
REMARK 921   NORMALIZED FREE ENERGY PREDICTED BY IDOCK:   -0.71 KCAL/MOL
REMARK 922        TOTAL FREE ENERGY PREDICTED BY IDOCK:   -4.38 KCAL/MOL
REMARK 923 INTER-LIGAND FREE ENERGY PREDICTED BY IDOCK:   -5.39 KCAL/MOL
REMARK 924 INTRA-LIGAND FREE ENERGY PREDICTED BY IDOCK:    1.01 KCAL/MOL
REMARK 927      BINDING AFFINITY PREDICTED BY RF-SCORE:    0.00 PKD
ROOT
HETATM    1  N   UNK A   1      -7.546  15.624  69.004  1.00  0.00    -0.170 NA 
HETATM    2  H1  UNK A   1      -8.499  15.883  68.750  1.00  0.00     0.000 HD 
HETATM    3  H2  UNK A   1      -7.068  16.406  69.452  1.00  0.00     0.000 HD 
HETATM    4  C   UNK A   1      -6.747  15.102  67.863  1.00  0.00    -0.152 C  
HETATM    5  O   UNK A   1      -7.017  13.052  66.538  1.00  0.00     0.641 OA 
HETATM    6  C   UNK A   1      -7.515  13.938  67.214  1.00  0.00    -0.028 C  
HETATM    7  O   UNK A   1      -8.842  14.019  67.488  1.00  0.00    -0.178 OA 
ENDROOT
BRANCH   4   8
HETATM    8  C   UNK A   1      -5.317  14.714  68.245  1.00  0.00    -0.113 C  
BRANCH   8   9
HETATM    9  C   UNK A   1      -5.137  14.253  69.692  1.00  0.00    -0.091 C  
BRANCH   9  10
HETATM   10  C   UNK A   1      -5.992  13.034  69.952  1.00  0.00    -0.136 C  
HETATM   11  N   UNK A   1      -5.653  11.930  69.199  1.00  0.00    -0.055 N  
HETATM   12  O   UNK A   1      -6.934  13.049  70.738  1.00  0.00     1.098 OA 
HETATM   13  H   UNK A   1      -4.897  11.987  68.516  1.00  0.00     0.000 HD 
BRANCH  11  14
HETATM   14  C   UNK A   1      -6.387  10.672  69.385  1.00  0.00    -0.060 C  
BRANCH  14  15
HETATM   15  C   UNK A   1      -6.232   9.815  68.112  1.00  0.00    -0.055 C  
ATOM     16  H   GLY A   2      -7.124   8.224  69.089  1.00  0.00     0.000 HD 
ATOM     17  N   GLY A   2      -6.732   8.535  68.200  1.00  0.00    -0.064 N  
HETATM   18  O   UNK A   1      -5.687  10.231  67.101  1.00  0.00    -0.045 OA 
BRANCH  17  19
ATOM     19  CA  GLY A   2      -6.724   7.609  67.081  1.00  0.00    -0.067 C  
ATOM     20  C   GLY A   2      -8.102   7.235  66.559  1.00  0.00    -0.114 C  
ATOM     21  O   GLY A   2      -9.112   7.317  67.475  1.00  0.00    -0.124 OA 
ATOM     22  OXT GLY A   2      -8.309   6.823  65.427  1.00  0.00    -0.136 OA 
ENDBRANCH  17  19
ENDBRANCH  14  15
BRANCH  14  23
HETATM   23  C   UNK A   1      -7.867  10.948  69.700  1.00  0.00     0.122 C  
BRANCH  23  24
HETATM   24  S   UNK A   1      -9.012  10.872  68.286  1.00  0.00    -0.157 SA 
BRANCH  24  25
HETATM   25  S   UNK A   1     -10.809  10.529  69.212  1.00  0.00    -0.260 SA 
BRANCH  25  26
HETATM   26  C   UNK A   1     -11.937  11.626  68.283  1.00  0.00    -0.166 C  
BRANCH  26  27
HETATM   27  C   UNK A   1     -11.566  13.121  68.299  1.00  0.00    -0.335 C  
BRANCH  27  28
HETATM   28  C   UNK A   1     -11.684  13.731  66.870  1.00  0.00    -0.395 C  
ATOM     29  H   GLY A   2     -13.462  12.700  66.501  1.00  0.00     0.000 HD 
ATOM     30  N   GLY A   2     -12.802  13.387  66.138  1.00  0.00    -0.074 N  
HETATM   31  O   UNK A   1     -10.899  14.578  66.447  1.00  0.00    -0.306 OA 
BRANCH  30  32
ATOM     32  CA  GLY A   2     -13.033  14.014  64.842  1.00  0.00    -0.027 C  
ATOM     33  OXT GLY A   2     -12.076  14.023  62.594  1.00  0.00     0.365 OA 
ATOM     34  C   GLY A   2     -12.359  13.396  63.608  1.00  0.00    -0.351 C  
ATOM     35  O   GLY A   2     -12.288  12.052  63.626  1.00  0.00    -0.519 OA 
ENDBRANCH  30  32
ENDBRANCH  27  28
BRANCH  27  36
HETATM   36  N   UNK A   1     -12.119  13.885  69.438  1.00  0.00    -0.339 N  
HETATM   37  H   UNK A   1     -12.731  13.409  70.101  1.00  0.00     0.000 HD 
HETATM   38  O   UNK A   1     -11.005  15.832  68.974  1.00  0.00    -0.229 OA 
HETATM   39  C   UNK A   1     -11.835  15.216  69.634  1.00  0.00    -0.334 C  
BRANCH  39  40
HETATM   40  C   UNK A   1     -12.510  15.881  70.824  1.00  0.00    -0.311 C  
BRANCH  40  41
HETATM   41  C   UNK A   1     -13.958  15.452  71.129  1.00  0.00    -0.410 C  
BRANCH  41  42
HETATM   42  C   UNK A   1     -14.275  14.978  72.555  1.00  0.00    -0.314 C  
HETATM   43  N   UNK A   1     -14.130  16.067  73.558  1.00  0.00    -0.494 NA 
HETATM   44  C   UNK A   1     -13.317  13.870  72.952  1.00  0.00    -0.308 C  
HETATM   45  O   UNK A   1     -13.350  12.692  72.647  1.00  0.00    -0.386 OA 
HETATM   46  O   UNK A   1     -12.310  14.401  73.682  1.00  0.00    -0.310 OA 
HETATM   47  H2  UNK A   1     -14.695  16.877  73.305  1.00  0.00     0.000 HD 
HETATM   48  H1  UNK A   1     -14.341  15.752  74.505  1.00  0.00     0.000 HD 
ENDBRANCH  41  42
ENDBRANCH  40  41
ENDBRANCH  39  40
ENDBRANCH  27  36
ENDBRANCH  26  27
ENDBRANCH  25  26
ENDBRANCH  24  25
ENDBRANCH  23  24
ENDBRANCH  14  23
ENDBRANCH  11  14
ENDBRANCH   9  10
ENDBRANCH   8   9
ENDBRANCH   4   8
TORSDOF 17
ENDMDL
MODEL      317
REMARK 921   NORMALIZED FREE ENERGY PREDICTED BY IDOCK:   -0.28 KCAL/MOL
REMARK 922        TOTAL FREE ENERGY PREDICTED BY IDOCK:   -3.54 KCAL/MOL
REMARK 923 INTER-LIGAND FREE ENERGY PREDICTED BY IDOCK:   -5.06 KCAL/MOL
REMARK 924 INTRA-LIGAND FREE ENERGY PREDICTED BY IDOCK:    1.52 KCAL/MOL
REMARK 927      BINDING AFFINITY PREDICTED BY RF-SCORE:    0.00 PKD
ROOT
HETATM    1  N   UNK A   1      -6.703  10.570  68.808  1.00  0.00    -0.053 NA 
HETATM    2  H1  UNK A   1      -6.753   9.607  69.140  1.00  0.00     0.000 HD 
HETATM    3  H2  UNK A   1      -5.831  11.008  69.103  1.00  0.00     0.000 HD 
HETATM    4  C   UNK A   1      -7.872  11.398  69.209  1.00  0.00     0.105 C  
HETATM    5  O   UNK A   1     -10.237  11.232  68.567  1.00  0.00    -0.191 OA 
HETATM    6  C   UNK A   1      -9.160  10.689  68.756  1.00  0.00    -0.169 C  
HETATM    7  O   UNK A   1      -8.949   9.359  68.591  1.00  0.00    -0.130 OA 
ENDROOT
BRANCH   4   8
HETATM    8  C   UNK A   1      -7.797  12.843  68.710  1.00  0.00     0.040 C  
BRANCH   8   9
HETATM    9  C   UNK A   1      -6.626  13.658  69.262  1.00  0.00    -0.110 C  
BRANCH   9  10
HETATM   10  C   UNK A   1      -6.915  15.134  69.116  1.00  0.00    -0.147 C  
HETATM   11  N   UNK A   1      -6.329  15.723  68.016  1.00  0.00    -0.118 N  
HETATM   12  O   UNK A   1      -7.583  15.756  69.937  1.00  0.00    -0.056 OA 
HETATM   13  H   UNK A   1      -5.735  15.173  67.396  1.00  0.00     0.000 HD 
BRANCH  11  14
HETATM   14  C   UNK A   1      -6.564  17.147  67.744  1.00  0.00    -0.145 C  
BRANCH  14  15
HETATM   15  C   UNK A   1      -5.808  17.983  68.797  1.00  0.00    -0.193 C  
ATOM     16  H   GLY A   2      -6.429  19.714  67.850  1.00  0.00     0.000 HD 
ATOM     17  N   GLY A   2      -5.911  19.348  68.648  1.00  0.00    -0.210 N  
HETATM   18  O   UNK A   1      -5.147  17.476  69.689  1.00  0.00    -0.157 OA 
BRANCH  17  19
ATOM     19  CA  GLY A   2      -5.312  20.288  69.579  1.00  0.00    -0.262 C  
ATOM     20  C   GLY A   2      -6.065  20.448  70.890  1.00  0.00    -0.168 C  
ATOM     21  O   GLY A   2      -7.405  20.185  70.825  1.00  0.00     0.280 OA 
ATOM     22  OXT GLY A   2      -5.551  20.847  71.924  1.00  0.00    -0.574 OA 
ENDBRANCH  17  19
ENDBRANCH  14  15
BRANCH  14  23
HETATM   23  C   UNK A   1      -8.071  17.460  67.753  1.00  0.00    -0.214 C  
BRANCH  23  24
HETATM   24  S   UNK A   1      -8.993  16.987  66.257  1.00  0.00    -0.216 SA 
BRANCH  24  25
HETATM   25  S   UNK A   1      -9.667  15.114  66.746  1.00  0.00    -0.253 SA 
BRANCH  25  26
HETATM   26  C   UNK A   1     -10.779  15.459  68.155  1.00  0.00    -0.271 C  
BRANCH  26  27
HETATM   27  C   UNK A   1     -11.978  14.503  68.297  1.00  0.00    -0.268 C  
BRANCH  27  28
HETATM   28  C   UNK A   1     -12.187  13.685  66.988  1.00  0.00    -0.329 C  
ATOM     29  H   GLY A   2     -10.643  12.368  67.482  1.00  0.00     0.000 HD 
ATOM     30  N   GLY A   2     -11.385  12.575  66.814  1.00  0.00    -0.313 N  
HETATM   31  O   UNK A   1     -13.099  13.924  66.198  1.00  0.00    -0.215 OA 
BRANCH  30  32
ATOM     32  CA  GLY A   2     -11.608  11.701  65.669  1.00  0.00    -0.016 C  
ATOM     33  OXT GLY A   2     -12.002  11.864  63.265  1.00  0.00    -0.445 OA 
ATOM     34  C   GLY A   2     -11.433  12.290  64.263  1.00  0.00    -0.362 C  
ATOM     35  O   GLY A   2     -10.435  13.187  64.154  1.00  0.00    -0.421 OA 
ENDBRANCH  30  32
ENDBRANCH  27  28
BRANCH  27  36
HETATM   36  N   UNK A   1     -12.053  13.790  69.592  1.00  0.00    -0.335 N  
HETATM   37  H   UNK A   1     -11.211  13.347  69.960  1.00  0.00     0.000 HD 
HETATM   38  O   UNK A   1     -14.239  14.320  70.023  1.00  0.00     1.982 OA 
HETATM   39  C   UNK A   1     -13.219  13.706  70.315  1.00  0.00     0.504 C  
BRANCH  39  40
HETATM   40  C   UNK A   1     -13.154  12.904  71.606  1.00  0.00    -0.430 C  
BRANCH  40  41
HETATM   41  C   UNK A   1     -12.628  13.639  72.854  1.00  0.00     0.212 C  
BRANCH  41  42
HETATM   42  C   UNK A   1     -13.364  14.913  73.293  1.00  0.00    -0.266 C  
HETATM   43  N   UNK A   1     -14.295  15.416  72.248  1.00  0.00    -0.551 NA 
HETATM   44  C   UNK A   1     -12.359  16.016  73.569  1.00  0.00    -0.562 C  
HETATM   45  O   UNK A   1     -11.665  16.182  74.556  1.00  0.00     0.130 OA 
HETATM   46  O   UNK A   1     -12.270  16.812  72.479  1.00  0.00    -0.160 OA 
HETATM   47  H2  UNK A   1     -14.953  14.691  71.962  1.00  0.00     0.000 HD 
HETATM   48  H1  UNK A   1     -14.784  16.262  72.540  1.00  0.00     0.000 HD 
ENDBRANCH  41  42
ENDBRANCH  40  41
ENDBRANCH  39  40
ENDBRANCH  27  36
ENDBRANCH  26  27
ENDBRANCH  25  26
ENDBRANCH  24  25
ENDBRANCH  23  24
ENDBRANCH  14  23
ENDBRANCH  11  14
ENDBRANCH   9  10
ENDBRANCH   8   9
ENDBRANCH   4   8
TORSDOF 17
ENDMDL
MODEL      318
REMARK 921   NORMALIZED FREE ENERGY PREDICTED BY IDOCK:   -0.22 KCAL/MOL
REMARK 922        TOTAL FREE ENERGY PREDICTED BY IDOCK:   -3.41 KCAL/MOL
REMARK 923 INTER-LIGAND FREE ENERGY PREDICTED BY IDOCK:   -5.76 KCAL/MOL
REMARK 924 INTRA-LIGAND FREE ENERGY PREDICTED BY IDOCK:    2.35 KCAL/MOL
REMARK 927      BINDING AFFINITY PREDICTED BY RF-SCORE:    0.00 PKD
ROOT
HETATM    1  N   UNK A   1     -10.724   8.313  66.775  1.00  0.00    -0.332 NA 
HETATM    2  H1  UNK A   1     -10.723   7.334  66.488  1.00  0.00     0.000 HD 
HETATM    3  H2  UNK A   1     -11.664   8.611  67.037  1.00  0.00     0.000 HD 
HETATM    4  C   UNK A   1     -10.144   9.231  65.759  1.00  0.00    -0.022 C  
HETATM    5  O   UNK A   1      -7.847   9.417  64.908  1.00  0.00    -0.109 OA 
HETATM    6  C   UNK A   1      -8.737   8.732  65.387  1.00  0.00    -0.183 C  
HETATM    7  O   UNK A   1      -8.603   7.409  65.662  1.00  0.00    -0.148 OA 
ENDROOT
BRANCH   4   8
HETATM    8  C   UNK A   1     -10.145  10.699  66.190  1.00  0.00    -0.306 C  
BRANCH   8   9
HETATM    9  C   UNK A   1     -10.337  10.933  67.689  1.00  0.00    -0.232 C  
BRANCH   9  10
HETATM   10  C   UNK A   1      -9.089  11.550  68.275  1.00  0.00    -0.185 C  
HETATM   11  N   UNK A   1      -7.912  11.068  67.744  1.00  0.00    -0.112 N  
HETATM   12  O   UNK A   1      -9.130  12.380  69.179  1.00  0.00     0.358 OA 
HETATM   13  H   UNK A   1      -7.931  10.336  67.034  1.00  0.00     0.000 HD 
BRANCH  11  14
HETATM   14  C   UNK A   1      -6.630  11.616  68.206  1.00  0.00    -0.059 C  
BRANCH  14  15
HETATM   15  C   UNK A   1      -6.451  13.027  67.609  1.00  0.00    -0.160 C  
ATOM     16  H   GLY A   2      -7.965  13.723  68.836  1.00  0.00     0.000 HD 
ATOM     17  N   GLY A   2      -7.276  13.996  68.135  1.00  0.00    -0.113 N  
HETATM   18  O   UNK A   1      -5.651  13.269  66.720  1.00  0.00     0.278 OA 
BRANCH  17  19
ATOM     19  CA  GLY A   2      -7.207  15.391  67.735  1.00  0.00    -0.163 C  
ATOM     20  C   GLY A   2      -8.464  15.920  67.063  1.00  0.00    -0.217 C  
ATOM     21  O   GLY A   2      -9.222  14.979  66.425  1.00  0.00    -0.271 OA 
ATOM     22  OXT GLY A   2      -8.764  17.104  67.023  1.00  0.00    -0.212 OA 
ENDBRANCH  17  19
ENDBRANCH  14  15
BRANCH  14  23
HETATM   23  C   UNK A   1      -5.468  10.688  67.811  1.00  0.00    -0.043 C  
BRANCH  23  24
HETATM   24  S   UNK A   1      -5.307   9.154  68.780  1.00  0.00    -0.037 SA 
BRANCH  24  25
HETATM   25  S   UNK A   1      -6.444   9.574  70.433  1.00  0.00    -0.091 SA 
BRANCH  25  26
HETATM   26  C   UNK A   1      -7.168   7.943  70.829  1.00  0.00    -0.053 C  
BRANCH  26  27
HETATM   27  C   UNK A   1      -8.309   7.485  69.902  1.00  0.00    -0.133 C  
BRANCH  27  28
HETATM   28  C   UNK A   1      -7.814   6.375  68.928  1.00  0.00    -0.110 C  
ATOM     29  H   GLY A   2      -9.746   6.052  68.203  1.00  0.00     0.000 HD 
ATOM     30  N   GLY A   2      -8.762   5.804  68.103  1.00  0.00    -0.108 N  
HETATM   31  O   UNK A   1      -6.624   6.097  68.794  1.00  0.00    -0.050 OA 
BRANCH  30  32
ATOM     32  CA  GLY A   2      -8.346   4.843  67.089  1.00  0.00    -0.106 C  
ATOM     33  OXT GLY A   2      -9.146   2.781  66.054  1.00  0.00    -0.143 OA 
ATOM     34  C   GLY A   2      -9.402   3.883  66.523  1.00  0.00    -0.186 C  
ATOM     35  O   GLY A   2     -10.626   4.425  66.377  1.00  0.00    -0.102 OA 
ENDBRANCH  30  32
ENDBRANCH  27  28
BRANCH  27  36
HETATM   36  N   UNK A   1      -9.616   7.302  70.572  1.00  0.00    -0.169 N  
HETATM   37  H   UNK A   1      -9.703   7.543  71.559  1.00  0.00     0.000 HD 
HETATM   38  O   UNK A   1     -10.746   6.633  68.695  1.00  0.00    -0.215 OA 
HETATM   39  C   UNK A   1     -10.718   6.818  69.907  1.00  0.00    -0.250 C  
BRANCH  39  40
HETATM   40  C   UNK A   1     -11.981   6.642  70.736  1.00  0.00    -0.412 C  
BRANCH  40  41
HETATM   41  C   UNK A   1     -11.794   6.444  72.252  1.00  0.00    -0.315 C  
BRANCH  41  42
HETATM   42  C   UNK A   1     -11.390   5.047  72.744  1.00  0.00    -0.195 C  
HETATM   43  N   UNK A   1     -11.116   5.019  74.205  1.00  0.00    -0.335 NA 
HETATM   44  C   UNK A   1     -10.121   4.603  72.039  1.00  0.00    -0.197 C  
HETATM   45  O   UNK A   1      -9.996   4.148  70.916  1.00  0.00    -0.197 OA 
HETATM   46  O   UNK A   1      -9.062   4.855  72.842  1.00  0.00    -0.122 OA 
HETATM   47  H2  UNK A   1     -11.908   5.381  74.735  1.00  0.00     0.000 HD 
HETATM   48  H1  UNK A   1     -10.847   4.091  74.532  1.00  0.00     0.000 HD 
ENDBRANCH  41  42
ENDBRANCH  40  41
ENDBRANCH  39  40
ENDBRANCH  27  36
ENDBRANCH  26  27
ENDBRANCH  25  26
ENDBRANCH  24  25
ENDBRANCH  23  24
ENDBRANCH  14  23
ENDBRANCH  11  14
ENDBRANCH   9  10
ENDBRANCH   8   9
ENDBRANCH   4   8
TORSDOF 17
ENDMDL
MODEL      319
REMARK 921   NORMALIZED FREE ENERGY PREDICTED BY IDOCK:   -0.22 KCAL/MOL
REMARK 922        TOTAL FREE ENERGY PREDICTED BY IDOCK:   -3.40 KCAL/MOL
REMARK 923 INTER-LIGAND FREE ENERGY PREDICTED BY IDOCK:   -3.71 KCAL/MOL
REMARK 924 INTRA-LIGAND FREE ENERGY PREDICTED BY IDOCK:    0.31 KCAL/MOL
REMARK 927      BINDING AFFINITY PREDICTED BY RF-SCORE:    0.00 PKD
ROOT
HETATM    1  N   UNK A   1      -7.604   3.908  69.266  1.00  0.00    -0.053 NA 
HETATM    2  H1  UNK A   1      -7.496   2.894  69.288  1.00  0.00     0.000 HD 
HETATM    3  H2  UNK A   1      -7.773   4.233  68.314  1.00  0.00     0.000 HD 
HETATM    4  C   UNK A   1      -6.462   4.640  69.878  1.00  0.00    -0.032 C  
HETATM    5  O   UNK A   1      -5.678   4.709  72.205  1.00  0.00    -0.010 OA 
HETATM    6  C   UNK A   1      -6.239   4.106  71.303  1.00  0.00    -0.015 C  
HETATM    7  O   UNK A   1      -6.749   2.856  71.438  1.00  0.00    -0.029 OA 
ENDROOT
BRANCH   4   8
HETATM    8  C   UNK A   1      -6.624   6.161  69.846  1.00  0.00    -0.044 C  
BRANCH   8   9
HETATM    9  C   UNK A   1      -5.790   6.922  70.879  1.00  0.00    -0.028 C  
BRANCH   9  10
HETATM   10  C   UNK A   1      -6.254   8.358  70.954  1.00  0.00    -0.034 C  
HETATM   11  N   UNK A   1      -6.514   8.937  69.730  1.00  0.00    -0.035 N  
HETATM   12  O   UNK A   1      -6.349   8.962  72.019  1.00  0.00    -0.086 OA 
HETATM   13  H   UNK A   1      -6.365   8.410  68.871  1.00  0.00     0.000 HD 
BRANCH  11  14
HETATM   14  C   UNK A   1      -7.007  10.320  69.673  1.00  0.00    -0.114 C  
BRANCH  14  15
HETATM   15  C   UNK A   1      -8.549  10.296  69.697  1.00  0.00    -0.107 C  
ATOM     16  H   GLY A   2      -8.501   8.246  69.973  1.00  0.00     0.000 HD 
ATOM     17  N   GLY A   2      -9.115   9.057  69.898  1.00  0.00    -0.158 N  
HETATM   18  O   UNK A   1      -9.226  11.299  69.531  1.00  0.00     0.266 OA 
BRANCH  17  19
ATOM     19  CA  GLY A   2     -10.549   8.855  70.007  1.00  0.00    -0.220 C  
ATOM     20  C   GLY A   2     -11.071   8.778  71.433  1.00  0.00    -0.291 C  
ATOM     21  O   GLY A   2     -10.166   8.344  72.360  1.00  0.00    -0.302 OA 
ATOM     22  OXT GLY A   2     -12.229   9.016  71.745  1.00  0.00    -0.318 OA 
ENDBRANCH  17  19
ENDBRANCH  14  15
BRANCH  14  23
HETATM   23  C   UNK A   1      -6.476  11.035  68.418  1.00  0.00    -0.057 C  
BRANCH  23  24
HETATM   24  S   UNK A   1      -7.301  10.615  66.851  1.00  0.00    -0.121 SA 
BRANCH  24  25
HETATM   25  S   UNK A   1      -6.320   8.902  66.299  1.00  0.00    -0.066 SA 
BRANCH  25  26
HETATM   26  C   UNK A   1      -7.434   7.598  66.932  1.00  0.00    -0.094 C  
BRANCH  26  27
HETATM   27  C   UNK A   1      -8.712   7.364  66.105  1.00  0.00    -0.156 C  
BRANCH  27  28
HETATM   28  C   UNK A   1      -9.319   8.720  65.637  1.00  0.00    -0.150 C  
ATOM     29  H   GLY A   2      -8.658   8.420  63.679  1.00  0.00     0.000 HD 
ATOM     30  N   GLY A   2      -9.197   9.027  64.297  1.00  0.00     0.164 N  
HETATM   31  O   UNK A   1      -9.989   9.436  66.380  1.00  0.00    -0.244 OA 
BRANCH  30  32
ATOM     32  CA  GLY A   2      -9.843  10.223  63.771  1.00  0.00    -0.151 C  
ATOM     33  OXT GLY A   2      -9.245  12.460  62.994  1.00  0.00     0.238 OA 
ATOM     34  C   GLY A   2      -8.969  11.269  63.065  1.00  0.00    -0.173 C  
ATOM     35  O   GLY A   2      -7.965  10.752  62.331  1.00  0.00    -0.175 OA 
ENDBRANCH  30  32
ENDBRANCH  27  28
BRANCH  27  36
HETATM   36  N   UNK A   1      -8.624   6.258  65.126  1.00  0.00    -0.317 N  
HETATM   37  H   UNK A   1      -9.225   6.278  64.303  1.00  0.00     0.000 HD 
HETATM   38  O   UNK A   1      -6.905   5.162  66.171  1.00  0.00    -0.058 OA 
HETATM   39  C   UNK A   1      -7.758   5.202  65.291  1.00  0.00    -0.087 C  
BRANCH  39  40
HETATM   40  C   UNK A   1      -7.809   4.118  64.225  1.00  0.00    -0.085 C  
BRANCH  40  41
HETATM   41  C   UNK A   1      -7.076   2.800  64.541  1.00  0.00    -0.050 C  
BRANCH  41  42
HETATM   42  C   UNK A   1      -7.880   1.684  65.223  1.00  0.00    -0.072 C  
HETATM   43  N   UNK A   1      -9.322   1.724  64.860  1.00  0.00    -0.235 NA 
HETATM   44  C   UNK A   1      -7.791   1.836  66.730  1.00  0.00    -0.067 C  
HETATM   45  O   UNK A   1      -6.881   1.514  67.473  1.00  0.00    -0.031 OA 
HETATM   46  O   UNK A   1      -8.894   2.480  67.173  1.00  0.00    -0.115 OA 
HETATM   47  H2  UNK A   1      -9.448   1.702  63.849  1.00  0.00     0.000 HD 
HETATM   48  H1  UNK A   1      -9.856   0.983  65.314  1.00  0.00     0.000 HD 
ENDBRANCH  41  42
ENDBRANCH  40  41
ENDBRANCH  39  40
ENDBRANCH  27  36
ENDBRANCH  26  27
ENDBRANCH  25  26
ENDBRANCH  24  25
ENDBRANCH  23  24
ENDBRANCH  14  23
ENDBRANCH  11  14
ENDBRANCH   9  10
ENDBRANCH   8   9
ENDBRANCH   4   8
TORSDOF 17
ENDMDL
MODEL      320
REMARK 921   NORMALIZED FREE ENERGY PREDICTED BY IDOCK:   -0.14 KCAL/MOL
REMARK 922        TOTAL FREE ENERGY PREDICTED BY IDOCK:   -3.24 KCAL/MOL
REMARK 923 INTER-LIGAND FREE ENERGY PREDICTED BY IDOCK:   -8.26 KCAL/MOL
REMARK 924 INTRA-LIGAND FREE ENERGY PREDICTED BY IDOCK:    5.02 KCAL/MOL
REMARK 927      BINDING AFFINITY PREDICTED BY RF-SCORE:    0.00 PKD
ROOT
HETATM    1  N   UNK A   1     -10.164   4.873  71.184  1.00  0.00    -0.210 NA 
HETATM    2  H1  UNK A   1     -10.919   4.351  71.628  1.00  0.00     0.000 HD 
HETATM    3  H2  UNK A   1     -10.480   5.804  70.912  1.00  0.00     0.000 HD 
HETATM    4  C   UNK A   1      -9.553   4.165  70.026  1.00  0.00    -0.203 C  
HETATM    5  O   UNK A   1      -8.251   2.085  69.940  1.00  0.00    -0.041 OA 
HETATM    6  C   UNK A   1      -9.106   2.766  70.483  1.00  0.00    -0.120 C  
HETATM    7  O   UNK A   1      -9.796   2.371  71.583  1.00  0.00    -0.150 OA 
ENDROOT
BRANCH   4   8
HETATM    8  C   UNK A   1      -8.420   4.949  69.360  1.00  0.00    -0.092 C  
BRANCH   8   9
HETATM    9  C   UNK A   1      -8.433   4.930  67.830  1.00  0.00    -0.103 C  
BRANCH   9  10
HETATM   10  C   UNK A   1      -8.384   6.343  67.300  1.00  0.00    -0.112 C  
HETATM   11  N   UNK A   1      -9.448   6.687  66.493  1.00  0.00    -0.195 N  
HETATM   12  O   UNK A   1      -7.448   7.102  67.539  1.00  0.00    -0.096 OA 
HETATM   13  H   UNK A   1     -10.171   6.001  66.278  1.00  0.00     0.000 HD 
BRANCH  11  14
HETATM   14  C   UNK A   1      -9.533   8.047  65.945  1.00  0.00     0.034 C  
BRANCH  14  15
HETATM   15  C   UNK A   1      -8.105   8.606  65.785  1.00  0.00    -0.114 C  
ATOM     16  H   GLY A   2      -8.857  10.175  64.667  1.00  0.00     0.000 HD 
ATOM     17  N   GLY A   2      -8.009   9.780  65.072  1.00  0.00    -0.124 N  
HETATM   18  O   UNK A   1      -7.122   8.041  66.239  1.00  0.00    -0.065 OA 
BRANCH  17  19
ATOM     19  CA  GLY A   2      -6.752  10.479  64.872  1.00  0.00     0.021 C  
ATOM     20  C   GLY A   2      -6.074  10.196  63.541  1.00  0.00    -0.141 C  
ATOM     21  O   GLY A   2      -6.371   8.983  62.985  1.00  0.00    -0.090 OA 
ATOM     22  OXT GLY A   2      -5.267  10.949  63.016  1.00  0.00    -0.175 OA 
ENDBRANCH  17  19
ENDBRANCH  14  15
BRANCH  14  23
HETATM   23  C   UNK A   1     -10.391   8.946  66.852  1.00  0.00    -0.262 C  
BRANCH  23  24
HETATM   24  S   UNK A   1      -9.659   9.389  68.459  1.00  0.00    -0.148 SA 
BRANCH  24  25
HETATM   25  S   UNK A   1      -8.327  10.855  67.930  1.00  0.00    -0.122 SA 
BRANCH  25  26
HETATM   26  C   UNK A   1      -9.417  12.111  67.171  1.00  0.00    -0.190 C  
BRANCH  26  27
HETATM   27  C   UNK A   1     -10.339  12.862  68.150  1.00  0.00    -0.240 C  
BRANCH  27  28
HETATM   28  C   UNK A   1     -11.067  14.035  67.427  1.00  0.00    -0.303 C  
ATOM     29  H   GLY A   2      -9.553  14.187  65.997  1.00  0.00     0.000 HD 
ATOM     30  N   GLY A   2     -10.469  14.530  66.286  1.00  0.00    -0.293 N  
HETATM   31  O   UNK A   1     -12.182  14.429  67.765  1.00  0.00    -0.314 OA 
BRANCH  30  32
ATOM     32  CA  GLY A   2     -11.154  15.547  65.499  1.00  0.00    -0.262 C  
ATOM     33  OXT GLY A   2     -12.274  15.773  63.340  1.00  0.00    -0.070 OA 
ATOM     34  C   GLY A   2     -12.030  15.087  64.325  1.00  0.00    -0.295 C  
ATOM     35  O   GLY A   2     -12.699  13.939  64.545  1.00  0.00    -0.649 OA 
ENDBRANCH  30  32
ENDBRANCH  27  28
BRANCH  27  36
HETATM   36  N   UNK A   1     -11.127  11.993  69.050  1.00  0.00    -0.244 N  
HETATM   37  H   UNK A   1     -11.219  11.003  68.825  1.00  0.00     0.000 HD 
HETATM   38  O   UNK A   1     -11.573  13.615  70.606  1.00  0.00    -0.121 OA 
HETATM   39  C   UNK A   1     -11.741  12.476  70.182  1.00  0.00    -0.175 C  
BRANCH  39  40
HETATM   40  C   UNK A   1     -12.553  11.473  70.988  1.00  0.00    -0.457 C  
BRANCH  40  41
HETATM   41  C   UNK A   1     -12.428   9.992  70.581  1.00  0.00    -0.321 C  
BRANCH  41  42
HETATM   42  C   UNK A   1     -12.269   8.956  71.703  1.00  0.00    -0.343 C  
HETATM   43  N   UNK A   1     -11.564   7.730  71.244  1.00  0.00    -0.272 NA 
HETATM   44  C   UNK A   1     -13.636   8.530  72.204  1.00  0.00    -0.364 C  
HETATM   45  O   UNK A   1     -14.381   9.115  72.970  1.00  0.00    -0.439 OA 
HETATM   46  O   UNK A   1     -13.982   7.369  71.601  1.00  0.00    -0.400 OA 
HETATM   47  H2  UNK A   1     -10.664   7.958  70.824  1.00  0.00     0.000 HD 
HETATM   48  H1  UNK A   1     -11.459   7.041  71.989  1.00  0.00     0.000 HD 
ENDBRANCH  41  42
ENDBRANCH  40  41
ENDBRANCH  39  40
ENDBRANCH  27  36
ENDBRANCH  26  27
ENDBRANCH  25  26
ENDBRANCH  24  25
ENDBRANCH  23  24
ENDBRANCH  14  23
ENDBRANCH  11  14
ENDBRANCH   9  10
ENDBRANCH   8   9
ENDBRANCH   4   8
TORSDOF 17
ENDMDL
MODEL      321
REMARK 921   NORMALIZED FREE ENERGY PREDICTED BY IDOCK:    1.13 KCAL/MOL
REMARK 922        TOTAL FREE ENERGY PREDICTED BY IDOCK:   -0.71 KCAL/MOL
REMARK 923 INTER-LIGAND FREE ENERGY PREDICTED BY IDOCK:   -3.06 KCAL/MOL
REMARK 924 INTRA-LIGAND FREE ENERGY PREDICTED BY IDOCK:    2.35 KCAL/MOL
REMARK 927      BINDING AFFINITY PREDICTED BY RF-SCORE:    0.00 PKD
ROOT
HETATM    1  N   UNK A   1     -11.024   9.640  64.981  1.00  0.00     1.434 NA 
HETATM    2  H1  UNK A   1     -11.257  10.559  64.605  1.00  0.00     0.000 HD 
HETATM    3  H2  UNK A   1     -11.816   9.249  65.492  1.00  0.00     0.000 HD 
HETATM    4  C   UNK A   1      -9.799   9.635  65.825  1.00  0.00    -0.302 C  
HETATM    5  O   UNK A   1      -7.454  10.053  65.227  1.00  0.00    -0.125 OA 
HETATM    6  C   UNK A   1      -8.641  10.246  65.018  1.00  0.00    -0.180 C  
HETATM    7  O   UNK A   1      -9.109  11.043  64.024  1.00  0.00    -0.179 OA 
ENDROOT
BRANCH   4   8
HETATM    8  C   UNK A   1      -9.451   8.257  66.390  1.00  0.00    -0.287 C  
BRANCH   8   9
HETATM    9  C   UNK A   1      -9.281   8.204  67.909  1.00  0.00    -0.138 C  
BRANCH   9  10
HETATM   10  C   UNK A   1      -7.843   8.487  68.274  1.00  0.00    -0.106 C  
HETATM   11  N   UNK A   1      -7.653   9.657  68.979  1.00  0.00    -0.074 N  
HETATM   12  O   UNK A   1      -6.922   7.752  67.931  1.00  0.00    -0.072 OA 
HETATM   13  H   UNK A   1      -8.446  10.262  69.190  1.00  0.00     0.000 HD 
BRANCH  11  14
HETATM   14  C   UNK A   1      -6.303  10.025  69.424  1.00  0.00    -0.046 C  
BRANCH  14  15
HETATM   15  C   UNK A   1      -6.246   9.933  70.963  1.00  0.00    -0.032 C  
ATOM     16  H   GLY A   2      -7.004   8.010  70.863  1.00  0.00     0.000 HD 
ATOM     17  N   GLY A   2      -6.657   8.731  71.495  1.00  0.00    -0.075 N  
HETATM   18  O   UNK A   1      -5.884  10.864  71.665  1.00  0.00    -0.308 OA 
BRANCH  17  19
ATOM     19  CA  GLY A   2      -6.617   8.447  72.919  1.00  0.00    -0.092 C  
ATOM     20  C   GLY A   2      -5.640   7.353  73.319  1.00  0.00    -0.045 C  
ATOM     21  O   GLY A   2      -5.373   6.429  72.348  1.00  0.00    -0.030 OA 
ATOM     22  OXT GLY A   2      -5.165   7.244  74.440  1.00  0.00    -0.049 OA 
ENDBRANCH  17  19
ENDBRANCH  14  15
BRANCH  14  23
HETATM   23  C   UNK A   1      -5.934  11.435  68.931  1.00  0.00    -0.048 C  
BRANCH  23  24
HETATM   24  S   UNK A   1      -7.269  12.672  68.980  1.00  0.00     0.078 SA 
BRANCH  24  25
HETATM   25  S   UNK A   1      -8.929  11.497  69.235  1.00  0.00     0.630 SA 
BRANCH  25  26
HETATM   26  C   UNK A   1     -10.133  12.678  69.939  1.00  0.00     1.950 C  
BRANCH  26  27
HETATM   27  C   UNK A   1     -11.611  12.379  69.625  1.00  0.00    -0.260 C  
BRANCH  27  28
HETATM   28  C   UNK A   1     -11.866  12.429  68.089  1.00  0.00    -0.315 C  
ATOM     29  H   GLY A   2     -11.812  14.517  68.078  1.00  0.00     0.000 HD 
ATOM     30  N   GLY A   2     -11.882  13.679  67.502  1.00  0.00    -0.371 N  
HETATM   31  O   UNK A   1     -11.926  11.415  67.395  1.00  0.00    -0.606 OA 
BRANCH  30  32
ATOM     32  CA  GLY A   2     -12.000  13.790  66.053  1.00  0.00    -0.414 C  
ATOM     33  OXT GLY A   2     -10.689  14.564  64.143  1.00  0.00     0.073 OA 
ATOM     34  C   GLY A   2     -10.719  14.010  65.236  1.00  0.00    -0.358 C  
ATOM     35  O   GLY A   2      -9.639  13.359  65.707  1.00  0.00    -0.179 OA 
ENDBRANCH  30  32
ENDBRANCH  27  28
BRANCH  27  36
HETATM   36  N   UNK A   1     -12.196  11.262  70.399  1.00  0.00    -0.351 N  
HETATM   37  H   UNK A   1     -12.963  11.455  71.042  1.00  0.00     0.000 HD 
HETATM   38  O   UNK A   1     -10.919   9.620  69.438  1.00  0.00    -0.231 OA 
HETATM   39  C   UNK A   1     -11.738   9.970  70.280  1.00  0.00    -0.251 C  
BRANCH  39  40
HETATM   40  C   UNK A   1     -12.407   8.935  71.171  1.00  0.00    -0.282 C  
BRANCH  40  41
HETATM   41  C   UNK A   1     -11.576   8.391  72.349  1.00  0.00    -0.450 C  
BRANCH  41  42
HETATM   42  C   UNK A   1     -10.162   7.875  72.045  1.00  0.00    -0.211 C  
HETATM   43  N   UNK A   1     -10.164   6.786  71.032  1.00  0.00    -0.197 NA 
HETATM   44  C   UNK A   1      -9.538   7.314  73.309  1.00  0.00    -0.212 C  
HETATM   45  O   UNK A   1      -9.024   7.917  74.234  1.00  0.00    -0.195 OA 
HETATM   46  O   UNK A   1      -9.694   5.971  73.316  1.00  0.00    -0.153 OA 
HETATM   47  H2  UNK A   1     -10.641   7.076  70.179  1.00  0.00     0.000 HD 
HETATM   48  H1  UNK A   1      -9.225   6.443  70.830  1.00  0.00     0.000 HD 
ENDBRANCH  41  42
ENDBRANCH  40  41
ENDBRANCH  39  40
ENDBRANCH  27  36
ENDBRANCH  26  27
ENDBRANCH  25  26
ENDBRANCH  24  25
ENDBRANCH  23  24
ENDBRANCH  14  23
ENDBRANCH  11  14
ENDBRANCH   9  10
ENDBRANCH   8   9
ENDBRANCH   4   8
TORSDOF 17
ENDMDL
MODEL      322
REMARK 921   NORMALIZED FREE ENERGY PREDICTED BY IDOCK:    2.03 KCAL/MOL
REMARK 922        TOTAL FREE ENERGY PREDICTED BY IDOCK:    1.07 KCAL/MOL
REMARK 923 INTER-LIGAND FREE ENERGY PREDICTED BY IDOCK:    0.59 KCAL/MOL
REMARK 924 INTRA-LIGAND FREE ENERGY PREDICTED BY IDOCK:    0.48 KCAL/MOL
REMARK 927      BINDING AFFINITY PREDICTED BY RF-SCORE:    0.00 PKD
ROOT
HETATM    1  N   UNK A   1     -10.103  16.208  71.952  1.00  0.00     3.178 NA 
HETATM    2  H1  UNK A   1      -9.973  16.713  72.829  1.00  0.00     0.000 HD 
HETATM    3  H2  UNK A   1      -9.612  16.676  71.190  1.00  0.00     0.000 HD 
HETATM    4  C   UNK A   1     -11.531  15.985  71.601  1.00  0.00    -0.362 C  
HETATM    5  O   UNK A   1     -13.250  14.627  72.712  1.00  0.00    -0.430 OA 
HETATM    6  C   UNK A   1     -12.229  15.292  72.784  1.00  0.00    -0.408 C  
HETATM    7  O   UNK A   1     -11.557  15.516  73.942  1.00  0.00    -0.121 OA 
ENDROOT
BRANCH   4   8
HETATM    8  C   UNK A   1     -11.726  15.227  70.286  1.00  0.00    -0.341 C  
BRANCH   8   9
HETATM    9  C   UNK A   1     -12.862  14.202  70.293  1.00  0.00    -0.183 C  
BRANCH   9  10
HETATM   10  C   UNK A   1     -12.317  12.837  70.644  1.00  0.00    -0.297 C  
HETATM   11  N   UNK A   1     -11.078  12.562  70.104  1.00  0.00    -0.139 N  
HETATM   12  O   UNK A   1     -12.951  12.031  71.319  1.00  0.00    -0.334 OA 
HETATM   13  H   UNK A   1     -10.619  13.244  69.501  1.00  0.00     0.000 HD 
BRANCH  11  14
HETATM   14  C   UNK A   1     -10.426  11.280  70.401  1.00  0.00     1.426 C  
BRANCH  14  15
HETATM   15  C   UNK A   1      -9.007  11.295  69.795  1.00  0.00     1.168 C  
ATOM     16  H   GLY A   2      -9.481  13.025  68.763  1.00  0.00     0.000 HD 
ATOM     17  N   GLY A   2      -8.737  12.356  68.960  1.00  0.00     0.334 N  
HETATM   18  O   UNK A   1      -8.186  10.421  70.021  1.00  0.00    -0.054 OA 
BRANCH  17  19
ATOM     19  CA  GLY A   2      -7.436  12.563  68.347  1.00  0.00    -0.127 C  
ATOM     20  C   GLY A   2      -6.843  13.945  68.570  1.00  0.00    -0.098 C  
ATOM     21  O   GLY A   2      -7.755  14.941  68.780  1.00  0.00    -0.122 OA 
ATOM     22  OXT GLY A   2      -5.647  14.189  68.504  1.00  0.00    -0.084 OA 
ENDBRANCH  17  19
ENDBRANCH  14  15
BRANCH  14  23
HETATM   23  C   UNK A   1     -11.258  10.107  69.856  1.00  0.00    -0.287 C  
BRANCH  23  24
HETATM   24  S   UNK A   1     -12.008  10.356  68.215  1.00  0.00     1.006 SA 
BRANCH  24  25
HETATM   25  S   UNK A   1     -10.592   9.548  66.973  1.00  0.00    -0.154 SA 
BRANCH  25  26
HETATM   26  C   UNK A   1     -10.933  10.401  65.392  1.00  0.00     0.483 C  
BRANCH  26  27
HETATM   27  C   UNK A   1      -9.947  11.525  65.024  1.00  0.00    -0.263 C  
BRANCH  27  28
HETATM   28  C   UNK A   1      -8.957  11.047  63.920  1.00  0.00    -0.051 C  
ATOM     29  H   GLY A   2      -8.008   9.736  65.241  1.00  0.00     0.000 HD 
ATOM     30  N   GLY A   2      -8.059  10.060  64.275  1.00  0.00    -0.151 N  
HETATM   31  O   UNK A   1      -9.038  11.422  62.752  1.00  0.00    -0.324 OA 
BRANCH  30  32
ATOM     32  CA  GLY A   2      -7.184   9.486  63.260  1.00  0.00    -0.105 C  
ATOM     33  OXT GLY A   2      -6.035   7.385  62.781  1.00  0.00    -0.049 OA 
ATOM     34  C   GLY A   2      -7.023   7.960  63.221  1.00  0.00    -0.080 C  
ATOM     35  O   GLY A   2      -8.145   7.273  63.511  1.00  0.00    -0.100 OA 
ENDBRANCH  30  32
ENDBRANCH  27  28
BRANCH  27  36
HETATM   36  N   UNK A   1     -10.558  12.865  64.888  1.00  0.00    -0.309 N  
HETATM   37  H   UNK A   1     -11.433  12.959  64.374  1.00  0.00     0.000 HD 
HETATM   38  O   UNK A   1      -9.012  13.956  66.180  1.00  0.00    -0.004 OA 
HETATM   39  C   UNK A   1      -9.983  13.990  65.433  1.00  0.00    -0.263 C  
BRANCH  39  40
HETATM   40  C   UNK A   1     -10.703  15.305  65.175  1.00  0.00    -0.455 C  
BRANCH  40  41
HETATM   41  C   UNK A   1     -11.040  16.165  66.408  1.00  0.00     0.085 C  
BRANCH  41  42
HETATM   42  C   UNK A   1     -10.467  17.589  66.462  1.00  0.00    -0.270 C  
HETATM   43  N   UNK A   1     -10.484  18.256  65.133  1.00  0.00    -0.105 NA 
HETATM   44  C   UNK A   1      -9.022  17.542  66.923  1.00  0.00    -0.251 C  
HETATM   45  O   UNK A   1      -8.590  17.420  68.055  1.00  0.00    -0.227 OA 
HETATM   46  O   UNK A   1      -8.213  17.588  65.840  1.00  0.00    -0.538 OA 
HETATM   47  H2  UNK A   1     -11.421  18.251  64.731  1.00  0.00     0.000 HD 
HETATM   48  H1  UNK A   1     -10.103  19.201  65.168  1.00  0.00     0.000 HD 
ENDBRANCH  41  42
ENDBRANCH  40  41
ENDBRANCH  39  40
ENDBRANCH  27  36
ENDBRANCH  26  27
ENDBRANCH  25  26
ENDBRANCH  24  25
ENDBRANCH  23  24
ENDBRANCH  14  23
ENDBRANCH  11  14
ENDBRANCH   9  10
ENDBRANCH   8   9
ENDBRANCH   4   8
TORSDOF 17
ENDMDL
MODEL      323
REMARK 921   NORMALIZED FREE ENERGY PREDICTED BY IDOCK:    3.91 KCAL/MOL
REMARK 922        TOTAL FREE ENERGY PREDICTED BY IDOCK:    4.83 KCAL/MOL
REMARK 923 INTER-LIGAND FREE ENERGY PREDICTED BY IDOCK:    1.29 KCAL/MOL
REMARK 924 INTRA-LIGAND FREE ENERGY PREDICTED BY IDOCK:    3.54 KCAL/MOL
REMARK 927      BINDING AFFINITY PREDICTED BY RF-SCORE:    0.00 PKD
ROOT
HETATM    1  N   UNK A   1      -9.858   4.209  64.819  1.00  0.00    -0.187 NA 
HETATM    2  H1  UNK A   1      -9.458   3.661  64.058  1.00  0.00     0.000 HD 
HETATM    3  H2  UNK A   1     -10.863   4.326  64.690  1.00  0.00     0.000 HD 
HETATM    4  C   UNK A   1      -9.195   5.526  65.016  1.00  0.00     0.170 C  
HETATM    5  O   UNK A   1      -6.911   6.065  65.743  1.00  0.00    -0.058 OA 
HETATM    6  C   UNK A   1      -7.683   5.297  65.192  1.00  0.00    -0.085 C  
HETATM    7  O   UNK A   1      -7.305   4.113  64.646  1.00  0.00    -0.068 OA 
ENDROOT
BRANCH   4   8
HETATM    8  C   UNK A   1      -9.795   6.348  66.159  1.00  0.00     0.044 C  
BRANCH   8   9
HETATM    9  C   UNK A   1     -10.643   5.551  67.152  1.00  0.00    -0.313 C  
BRANCH   9  10
HETATM   10  C   UNK A   1      -9.880   5.362  68.442  1.00  0.00    -0.147 C  
HETATM   11  N   UNK A   1      -8.640   5.967  68.464  1.00  0.00    -0.111 N  
HETATM   12  O   UNK A   1     -10.317   4.689  69.371  1.00  0.00    -0.127 OA 
HETATM   13  H   UNK A   1      -8.299   6.467  67.644  1.00  0.00     0.000 HD 
BRANCH  11  14
HETATM   14  C   UNK A   1      -7.815   5.885  69.677  1.00  0.00    -0.097 C  
BRANCH  14  15
HETATM   15  C   UNK A   1      -8.679   6.285  70.890  1.00  0.00    -0.136 C  
ATOM     16  H   GLY A   2     -10.384   6.028  69.745  1.00  0.00     0.000 HD 
ATOM     17  N   GLY A   2     -10.040   6.260  70.677  1.00  0.00    -0.186 N  
HETATM   18  O   UNK A   1      -8.197   6.620  71.961  1.00  0.00    -0.106 OA 
BRANCH  17  19
ATOM     19  CA  GLY A   2     -11.005   6.550  71.722  1.00  0.00    -0.247 C  
ATOM     20  C   GLY A   2     -11.212   5.426  72.724  1.00  0.00    -0.300 C  
ATOM     21  O   GLY A   2     -10.954   4.171  72.250  1.00  0.00     0.077 OA 
ATOM     22  OXT GLY A   2     -11.639   5.596  73.857  1.00  0.00     0.454 OA 
ENDBRANCH  17  19
ENDBRANCH  14  15
BRANCH  14  23
HETATM   23  C   UNK A   1      -6.573   6.784  69.550  1.00  0.00    -0.048 C  
BRANCH  23  24
HETATM   24  S   UNK A   1      -6.831   8.392  68.735  1.00  0.00    -0.063 SA 
BRANCH  24  25
HETATM   25  S   UNK A   1      -8.262   9.249  69.927  1.00  0.00    -0.164 SA 
BRANCH  25  26
HETATM   26  C   UNK A   1      -7.883  11.030  69.766  1.00  0.00     0.375 C  
BRANCH  26  27
HETATM   27  C   UNK A   1      -8.926  11.858  68.992  1.00  0.00     0.313 C  
BRANCH  27  28
HETATM   28  C   UNK A   1      -8.923  11.471  67.483  1.00  0.00    -0.159 C  
ATOM     29  H   GLY A   2      -6.860  11.764  67.340  1.00  0.00     0.000 HD 
ATOM     30  N   GLY A   2      -7.698  11.454  66.848  1.00  0.00    -0.150 N  
HETATM   31  O   UNK A   1      -9.931  11.075  66.900  1.00  0.00    -0.187 OA 
BRANCH  30  32
ATOM     32  CA  GLY A   2      -7.610  10.990  65.469  1.00  0.00     0.177 C  
ATOM     33  OXT GLY A   2      -5.915  10.571  63.761  1.00  0.00    -0.130 OA 
ATOM     34  C   GLY A   2      -6.241  10.538  64.941  1.00  0.00    -0.050 C  
ATOM     35  O   GLY A   2      -5.480   9.894  65.846  1.00  0.00    -0.042 OA 
ENDBRANCH  30  32
ENDBRANCH  27  28
BRANCH  27  36
HETATM   36  N   UNK A   1     -10.228  12.011  69.677  1.00  0.00     0.063 N  
HETATM   37  H   UNK A   1     -10.413  11.460  70.515  1.00  0.00     0.000 HD 
HETATM   38  O   UNK A   1     -11.016  13.670  68.307  1.00  0.00    -0.238 OA 
HETATM   39  C   UNK A   1     -11.199  12.871  69.220  1.00  0.00    -0.190 C  
BRANCH  39  40
HETATM   40  C   UNK A   1     -12.504  12.890  70.002  1.00  0.00    -0.084 C  
BRANCH  40  41
HETATM   41  C   UNK A   1     -13.056  11.528  70.464  1.00  0.00     0.216 C  
BRANCH  41  42
HETATM   42  C   UNK A   1     -12.118  10.315  70.383  1.00  0.00    -0.286 C  
HETATM   43  N   UNK A   1     -12.699   9.205  69.581  1.00  0.00     1.169 NA 
HETATM   44  C   UNK A   1     -11.858   9.775  71.777  1.00  0.00    -0.262 C  
HETATM   45  O   UNK A   1     -11.093  10.199  72.625  1.00  0.00     2.793 OA 
HETATM   46  O   UNK A   1     -12.687   8.731  72.006  1.00  0.00    -0.338 OA 
HETATM   47  H2  UNK A   1     -12.968   9.524  68.651  1.00  0.00     0.000 HD 
HETATM   48  H1  UNK A   1     -12.076   8.399  69.528  1.00  0.00     0.000 HD 
ENDBRANCH  41  42
ENDBRANCH  40  41
ENDBRANCH  39  40
ENDBRANCH  27  36
ENDBRANCH  26  27
ENDBRANCH  25  26
ENDBRANCH  24  25
ENDBRANCH  23  24
ENDBRANCH  14  23
ENDBRANCH  11  14
ENDBRANCH   9  10
ENDBRANCH   8   9
ENDBRANCH   4   8
TORSDOF 17
ENDMDL
MODEL      324
REMARK 921   NORMALIZED FREE ENERGY PREDICTED BY IDOCK:    4.46 KCAL/MOL
REMARK 922        TOTAL FREE ENERGY PREDICTED BY IDOCK:    5.93 KCAL/MOL
REMARK 923 INTER-LIGAND FREE ENERGY PREDICTED BY IDOCK:    2.53 KCAL/MOL
REMARK 924 INTRA-LIGAND FREE ENERGY PREDICTED BY IDOCK:    3.40 KCAL/MOL
REMARK 927      BINDING AFFINITY PREDICTED BY RF-SCORE:    0.00 PKD
ROOT
HETATM    1  N   UNK A   1      -9.635  10.427  67.824  1.00  0.00    -0.151 NA 
HETATM    2  H1  UNK A   1     -10.332   9.815  67.402  1.00  0.00     0.000 HD 
HETATM    3  H2  UNK A   1      -8.717  10.273  67.405  1.00  0.00     0.000 HD 
HETATM    4  C   UNK A   1      -9.563  10.314  69.306  1.00  0.00    -0.224 C  
HETATM    5  O   UNK A   1     -11.213  10.900  71.029  1.00  0.00     0.169 OA 
HETATM    6  C   UNK A   1     -10.969  10.541  69.888  1.00  0.00    -0.298 C  
HETATM    7  O   UNK A   1     -11.925  10.285  68.959  1.00  0.00    -0.068 OA 
ENDROOT
BRANCH   4   8
HETATM    8  C   UNK A   1      -8.517  11.234  69.939  1.00  0.00     1.339 C  
BRANCH   8   9
HETATM    9  C   UNK A   1      -7.650  12.009  68.945  1.00  0.00    -0.016 C  
BRANCH   9  10
HETATM   10  C   UNK A   1      -8.488  13.045  68.233  1.00  0.00    -0.159 C  
HETATM   11  N   UNK A   1      -9.504  13.579  68.998  1.00  0.00    -0.379 N  
HETATM   12  O   UNK A   1      -8.299  13.349  67.059  1.00  0.00    -0.165 OA 
HETATM   13  H   UNK A   1      -9.655  13.250  69.951  1.00  0.00     0.000 HD 
BRANCH  11  14
HETATM   14  C   UNK A   1     -10.367  14.623  68.430  1.00  0.00    -0.237 C  
BRANCH  14  15
HETATM   15  C   UNK A   1      -9.776  16.002  68.790  1.00  0.00    -0.226 C  
ATOM     16  H   GLY A   2      -8.137  15.598  67.593  1.00  0.00     0.000 HD 
ATOM     17  N   GLY A   2      -8.574  16.301  68.188  1.00  0.00    -0.180 N  
HETATM   18  O   UNK A   1     -10.321  16.769  69.568  1.00  0.00    -0.280 OA 
BRANCH  17  19
ATOM     19  CA  GLY A   2      -7.901  17.576  68.366  1.00  0.00    -0.263 C  
ATOM     20  C   GLY A   2      -7.109  18.048  67.157  1.00  0.00    -0.193 C  
ATOM     21  O   GLY A   2      -6.658  17.055  66.334  1.00  0.00    -0.225 OA 
ATOM     22  OXT GLY A   2      -6.824  19.218  66.948  1.00  0.00    -0.197 OA 
ENDBRANCH  17  19
ENDBRANCH  14  15
BRANCH  14  23
HETATM   23  C   UNK A   1     -11.809  14.477  68.947  1.00  0.00    -0.324 C  
BRANCH  23  24
HETATM   24  S   UNK A   1     -12.611  12.874  68.630  1.00  0.00     1.126 SA 
BRANCH  24  25
HETATM   25  S   UNK A   1     -12.003  12.465  66.716  1.00  0.00    -0.070 SA 
BRANCH  25  26
HETATM   26  C   UNK A   1     -10.951  13.908  66.328  1.00  0.00    -0.298 C  
BRANCH  26  27
HETATM   27  C   UNK A   1     -10.510  14.026  64.857  1.00  0.00    -0.431 C  
BRANCH  27  28
HETATM   28  C   UNK A   1     -10.403  15.522  64.434  1.00  0.00     0.932 C  
ATOM     29  H   GLY A   2      -9.349  16.009  66.170  1.00  0.00     0.000 HD 
ATOM     30  N   GLY A   2      -9.699  16.357  65.278  1.00  0.00     0.209 N  
HETATM   31  O   UNK A   1     -10.806  15.932  63.347  1.00  0.00     1.344 OA 
BRANCH  30  32
ATOM     32  CA  GLY A   2      -9.462  17.741  64.886  1.00  0.00     3.356 C  
ATOM     33  OXT GLY A   2     -10.499  19.939  65.131  1.00  0.00    -0.210 OA 
ATOM     34  C   GLY A   2     -10.236  18.846  65.618  1.00  0.00     0.043 C  
ATOM     35  O   GLY A   2     -10.430  18.615  66.931  1.00  0.00    -0.375 OA 
ENDBRANCH  30  32
ENDBRANCH  27  28
BRANCH  27  36
HETATM   36  N   UNK A   1      -9.424  13.103  64.459  1.00  0.00    -0.113 N  
HETATM   37  H   UNK A   1      -8.457  13.379  64.626  1.00  0.00     0.000 HD 
HETATM   38  O   UNK A   1     -10.803  11.413  63.758  1.00  0.00    -0.373 OA 
HETATM   39  C   UNK A   1      -9.677  11.886  63.871  1.00  0.00    -0.179 C  
BRANCH  39  40
HETATM   40  C   UNK A   1      -8.459  11.063  63.478  1.00  0.00     0.146 C  
BRANCH  40  41
HETATM   41  C   UNK A   1      -8.721   9.785  62.659  1.00  0.00    -0.230 C  
BRANCH  41  42
HETATM   42  C   UNK A   1      -8.511   8.435  63.360  1.00  0.00     0.018 C  
HETATM   43  N   UNK A   1      -9.232   8.354  64.658  1.00  0.00    -0.068 NA 
HETATM   44  C   UNK A   1      -7.035   8.232  63.651  1.00  0.00    -0.084 C  
HETATM   45  O   UNK A   1      -6.154   7.875  62.890  1.00  0.00    -0.070 OA 
HETATM   46  O   UNK A   1      -6.788   8.587  64.932  1.00  0.00    -0.070 OA 
HETATM   47  H2  UNK A   1     -10.224   8.558  64.542  1.00  0.00     0.000 HD 
HETATM   48  H1  UNK A   1      -9.092   7.457  65.124  1.00  0.00     0.000 HD 
ENDBRANCH  41  42
ENDBRANCH  40  41
ENDBRANCH  39  40
ENDBRANCH  27  36
ENDBRANCH  26  27
ENDBRANCH  25  26
ENDBRANCH  24  25
ENDBRANCH  23  24
ENDBRANCH  14  23
ENDBRANCH  11  14
ENDBRANCH   9  10
ENDBRANCH   8   9
ENDBRANCH   4   8
TORSDOF 17
ENDMDL
MODEL      325
REMARK 921   NORMALIZED FREE ENERGY PREDICTED BY IDOCK:    5.68 KCAL/MOL
REMARK 922        TOTAL FREE ENERGY PREDICTED BY IDOCK:    8.36 KCAL/MOL
REMARK 923 INTER-LIGAND FREE ENERGY PREDICTED BY IDOCK:    3.09 KCAL/MOL
REMARK 924 INTRA-LIGAND FREE ENERGY PREDICTED BY IDOCK:    5.27 KCAL/MOL
REMARK 927      BINDING AFFINITY PREDICTED BY RF-SCORE:    0.00 PKD
ROOT
HETATM    1  N   UNK A   1      -8.324  17.010  65.864  1.00  0.00    -0.512 NA 
HETATM    2  H1  UNK A   1      -7.463  17.538  66.007  1.00  0.00     0.000 HD 
HETATM    3  H2  UNK A   1      -8.444  16.777  64.878  1.00  0.00     0.000 HD 
HETATM    4  C   UNK A   1      -9.535  17.691  66.395  1.00  0.00    -0.259 C  
HETATM    5  O   UNK A   1     -10.175  18.228  68.705  1.00  0.00    -0.380 OA 
HETATM    6  C   UNK A   1      -9.300  18.034  67.876  1.00  0.00    -0.264 C  
HETATM    7  O   UNK A   1      -7.973  18.098  68.154  1.00  0.00    -0.265 OA 
ENDROOT
BRANCH   4   8
HETATM    8  C   UNK A   1     -10.826  16.899  66.180  1.00  0.00     0.009 C  
BRANCH   8   9
HETATM    9  C   UNK A   1     -10.895  16.118  64.866  1.00  0.00    -0.353 C  
BRANCH   9  10
HETATM   10  C   UNK A   1      -9.806  15.070  64.836  1.00  0.00     0.132 C  
HETATM   11  N   UNK A   1     -10.183  13.844  65.342  1.00  0.00    -0.373 N  
HETATM   12  O   UNK A   1      -8.673  15.312  64.432  1.00  0.00     4.191 OA 
HETATM   13  H   UNK A   1     -11.120  13.710  65.719  1.00  0.00     0.000 HD 
BRANCH  11  14
HETATM   14  C   UNK A   1      -9.224  12.731  65.334  1.00  0.00     0.466 C  
BRANCH  14  15
HETATM   15  C   UNK A   1      -9.920  11.483  64.754  1.00  0.00    -0.260 C  
ATOM     16  H   GLY A   2      -8.969  10.310  66.170  1.00  0.00     0.000 HD 
ATOM     17  N   GLY A   2      -9.635  10.299  65.398  1.00  0.00    -0.229 N  
HETATM   18  O   UNK A   1     -10.655  11.531  63.781  1.00  0.00    -0.335 OA 
BRANCH  17  19
ATOM     19  CA  GLY A   2     -10.245   9.034  65.025  1.00  0.00     1.713 C  
ATOM     20  C   GLY A   2      -9.832   7.853  65.887  1.00  0.00     0.372 C  
ATOM     21  O   GLY A   2      -8.602   7.964  66.474  1.00  0.00    -0.129 OA 
ATOM     22  OXT GLY A   2     -10.499   6.836  66.011  1.00  0.00     0.398 OA 
ENDBRANCH  17  19
ENDBRANCH  14  15
BRANCH  14  23
HETATM   23  C   UNK A   1      -8.686  12.467  66.751  1.00  0.00    -0.147 C  
BRANCH  23  24
HETATM   24  S   UNK A   1      -8.965  10.794  67.413  1.00  0.00    -0.139 SA 
BRANCH  24  25
HETATM   25  S   UNK A   1      -7.115  10.316  68.155  1.00  0.00    -0.083 SA 
BRANCH  25  26
HETATM   26  C   UNK A   1      -7.350  10.541  69.953  1.00  0.00    -0.108 C  
BRANCH  26  27
HETATM   27  C   UNK A   1      -8.327   9.554  70.619  1.00  0.00    -0.112 C  
BRANCH  27  28
HETATM   28  C   UNK A   1      -9.737   9.653  69.964  1.00  0.00    -0.241 C  
ATOM     29  H   GLY A   2      -9.940  11.651  70.537  1.00  0.00     0.000 HD 
ATOM     30  N   GLY A   2     -10.362  10.883  70.016  1.00  0.00     0.157 N  
HETATM   31  O   UNK A   1     -10.231   8.731  69.317  1.00  0.00    -0.200 OA 
BRANCH  30  32
ATOM     32  CA  GLY A   2     -11.630  11.074  69.322  1.00  0.00    -0.314 C  
ATOM     33  OXT GLY A   2     -13.253  12.846  68.887  1.00  0.00     1.891 OA 
ATOM     34  C   GLY A   2     -12.083  12.509  69.022  1.00  0.00    -0.135 C  
ATOM     35  O   GLY A   2     -11.084  13.353  68.700  1.00  0.00    -0.242 OA 
ENDBRANCH  30  32
ENDBRANCH  27  28
BRANCH  27  36
HETATM   36  N   UNK A   1      -7.768   8.211  70.885  1.00  0.00    -0.081 N  
HETATM   37  H   UNK A   1      -7.169   7.778  70.183  1.00  0.00     0.000 HD 
HETATM   38  O   UNK A   1      -8.619   8.021  73.004  1.00  0.00    -0.163 OA 
HETATM   39  C   UNK A   1      -8.028   7.527  72.049  1.00  0.00    -0.094 C  
BRANCH  39  40
HETATM   40  C   UNK A   1      -7.419   6.138  72.165  1.00  0.00    -0.095 C  
BRANCH  40  41
HETATM   41  C   UNK A   1      -8.003   5.211  73.248  1.00  0.00    -0.107 C  
BRANCH  41  42
HETATM   42  C   UNK A   1      -9.277   4.427  72.904  1.00  0.00    -0.119 C  
HETATM   43  N   UNK A   1      -9.247   3.038  73.435  1.00  0.00    -0.085 NA 
HETATM   44  C   UNK A   1      -9.427   4.329  71.397  1.00  0.00    -0.158 C  
HETATM   45  O   UNK A   1      -9.840   5.170  70.619  1.00  0.00    -0.177 OA 
HETATM   46  O   UNK A   1      -8.949   3.134  70.984  1.00  0.00    -0.082 OA 
HETATM   47  H2  UNK A   1      -9.071   3.032  74.439  1.00  0.00     0.000 HD 
HETATM   48  H1  UNK A   1     -10.093   2.517  73.206  1.00  0.00     0.000 HD 
ENDBRANCH  41  42
ENDBRANCH  40  41
ENDBRANCH  39  40
ENDBRANCH  27  36
ENDBRANCH  26  27
ENDBRANCH  25  26
ENDBRANCH  24  25
ENDBRANCH  23  24
ENDBRANCH  14  23
ENDBRANCH  11  14
ENDBRANCH   9  10
ENDBRANCH   8   9
ENDBRANCH   4   8
TORSDOF 17
ENDMDL
MODEL      326
REMARK 921   NORMALIZED FREE ENERGY PREDICTED BY IDOCK:    6.44 KCAL/MOL
REMARK 922        TOTAL FREE ENERGY PREDICTED BY IDOCK:    9.88 KCAL/MOL
REMARK 923 INTER-LIGAND FREE ENERGY PREDICTED BY IDOCK:    3.88 KCAL/MOL
REMARK 924 INTRA-LIGAND FREE ENERGY PREDICTED BY IDOCK:    5.99 KCAL/MOL
REMARK 927      BINDING AFFINITY PREDICTED BY RF-SCORE:    0.00 PKD
ROOT
HETATM    1  N   UNK A   1      -9.866   4.277  64.782  1.00  0.00    -0.247 NA 
HETATM    2  H1  UNK A   1      -9.555   3.606  64.079  1.00  0.00     0.000 HD 
HETATM    3  H2  UNK A   1     -10.884   4.344  64.790  1.00  0.00     0.000 HD 
HETATM    4  C   UNK A   1      -9.250   5.623  64.634  1.00  0.00     0.439 C  
HETATM    5  O   UNK A   1      -6.916   6.342  64.891  1.00  0.00    -0.049 OA 
HETATM    6  C   UNK A   1      -7.720   5.467  64.613  1.00  0.00    -0.090 C  
HETATM    7  O   UNK A   1      -7.366   4.211  64.237  1.00  0.00    -0.067 OA 
ENDROOT
BRANCH   4   8
HETATM    8  C   UNK A   1      -9.718   6.628  65.688  1.00  0.00     0.585 C  
BRANCH   8   9
HETATM    9  C   UNK A   1     -10.325   6.009  66.948  1.00  0.00    -0.303 C  
BRANCH   9  10
HETATM   10  C   UNK A   1      -9.267   5.883  68.019  1.00  0.00    -0.112 C  
HETATM   11  N   UNK A   1      -7.995   6.221  67.605  1.00  0.00    -0.112 N  
HETATM   12  O   UNK A   1      -9.520   5.474  69.148  1.00  0.00    -0.120 OA 
HETATM   13  H   UNK A   1      -7.828   6.500  66.639  1.00  0.00     0.000 HD 
BRANCH  11  14
HETATM   14  C   UNK A   1      -6.884   6.175  68.565  1.00  0.00    -0.074 C  
BRANCH  14  15
HETATM   15  C   UNK A   1      -7.392   6.673  69.933  1.00  0.00    -0.086 C  
ATOM     16  H   GLY A   2      -9.340   6.361  69.310  1.00  0.00     0.000 HD 
ATOM     17  N   GLY A   2      -8.760   6.654  70.095  1.00  0.00    -0.140 N  
HETATM   18  O   UNK A   1      -6.641   7.077  70.807  1.00  0.00    -0.050 OA 
BRANCH  17  19
ATOM     19  CA  GLY A   2      -9.410   7.033  71.337  1.00  0.00    -0.155 C  
ATOM     20  C   GLY A   2      -9.339   5.984  72.435  1.00  0.00    -0.146 C  
ATOM     21  O   GLY A   2      -9.218   4.694  71.999  1.00  0.00    -0.128 OA 
ATOM     22  OXT GLY A   2      -9.448   6.239  73.626  1.00  0.00    -0.140 OA 
ENDBRANCH  17  19
ENDBRANCH  14  15
BRANCH  14  23
HETATM   23  C   UNK A   1      -5.698   7.017  68.064  1.00  0.00    -0.021 C  
BRANCH  23  24
HETATM   24  S   UNK A   1      -6.100   8.697  67.488  1.00  0.00    -0.052 SA 
BRANCH  24  25
HETATM   25  S   UNK A   1      -7.060   9.488  69.117  1.00  0.00    -0.064 SA 
BRANCH  25  26
HETATM   26  C   UNK A   1      -6.420  11.199  69.151  1.00  0.00    -0.074 C  
BRANCH  26  27
HETATM   27  C   UNK A   1      -7.256  12.232  68.373  1.00  0.00    -0.102 C  
BRANCH  27  28
HETATM   28  C   UNK A   1      -7.485  11.760  66.906  1.00  0.00    -0.106 C  
ATOM     29  H   GLY A   2      -9.517  11.426  67.257  1.00  0.00     0.000 HD 
ATOM     30  N   GLY A   2      -8.779  11.433  66.553  1.00  0.00    -0.178 N  
HETATM   31  O   UNK A   1      -6.598  11.792  66.055  1.00  0.00     0.271 OA 
BRANCH  30  32
ATOM     32  CA  GLY A   2      -9.082  11.095  65.168  1.00  0.00    -0.144 C  
ATOM     33  OXT GLY A   2     -11.025  10.802  63.716  1.00  0.00    -0.026 OA 
ATOM     34  C   GLY A   2     -10.488  11.408  64.636  1.00  0.00    -0.315 C  
ATOM     35  O   GLY A   2     -11.023  12.548  65.112  1.00  0.00    -0.283 OA 
ENDBRANCH  30  32
ENDBRANCH  27  28
BRANCH  27  36
HETATM   36  N   UNK A   1      -8.406  12.789  69.120  1.00  0.00    -0.122 N  
HETATM   37  H   UNK A   1      -8.687  12.345  69.994  1.00  0.00     0.000 HD 
HETATM   38  O   UNK A   1      -8.760  14.562  67.714  1.00  0.00    -0.160 OA 
HETATM   39  C   UNK A   1      -9.108  13.884  68.675  1.00  0.00    -0.085 C  
BRANCH  39  40
HETATM   40  C   UNK A   1     -10.291  14.317  69.526  1.00  0.00     0.089 C  
BRANCH  40  41
HETATM   41  C   UNK A   1     -11.265  13.210  69.975  1.00  0.00     0.174 C  
BRANCH  41  42
HETATM   42  C   UNK A   1     -10.924  11.763  69.591  1.00  0.00     0.010 C  
HETATM   43  N   UNK A   1     -12.100  11.029  69.052  1.00  0.00    -0.608 NA 
HETATM   44  C   UNK A   1     -10.444  11.007  70.816  1.00  0.00     1.930 C  
HETATM   45  O   UNK A   1      -9.347  11.033  71.343  1.00  0.00     5.062 OA 
HETATM   46  O   UNK A   1     -11.478  10.302  71.330  1.00  0.00    -0.318 OA 
HETATM   47  H2  UNK A   1     -12.518  11.529  68.268  1.00  0.00     0.000 HD 
HETATM   48  H1  UNK A   1     -11.873  10.068  68.797  1.00  0.00     0.000 HD 
ENDBRANCH  41  42
ENDBRANCH  40  41
ENDBRANCH  39  40
ENDBRANCH  27  36
ENDBRANCH  26  27
ENDBRANCH  25  26
ENDBRANCH  24  25
ENDBRANCH  23  24
ENDBRANCH  14  23
ENDBRANCH  11  14
ENDBRANCH   9  10
ENDBRANCH   8   9
ENDBRANCH   4   8
TORSDOF 17
ENDMDL
MODEL      327
REMARK 921   NORMALIZED FREE ENERGY PREDICTED BY IDOCK:    8.25 KCAL/MOL
REMARK 922        TOTAL FREE ENERGY PREDICTED BY IDOCK:   13.48 KCAL/MOL
REMARK 923 INTER-LIGAND FREE ENERGY PREDICTED BY IDOCK:    9.61 KCAL/MOL
REMARK 924 INTRA-LIGAND FREE ENERGY PREDICTED BY IDOCK:    3.87 KCAL/MOL
REMARK 927      BINDING AFFINITY PREDICTED BY RF-SCORE:    0.00 PKD
ROOT
HETATM    1  N   UNK A   1      -9.845  15.274  67.130  1.00  0.00    -0.223 NA 
HETATM    2  H1  UNK A   1      -8.950  15.571  66.742  1.00  0.00     0.000 HD 
HETATM    3  H2  UNK A   1      -9.790  15.197  68.146  1.00  0.00     0.000 HD 
HETATM    4  C   UNK A   1     -10.362  14.012  66.534  1.00  0.00    -0.285 C  
HETATM    5  O   UNK A   1     -11.120  13.525  64.249  1.00  0.00    -0.381 OA 
HETATM    6  C   UNK A   1     -10.412  14.173  65.005  1.00  0.00    -0.425 C  
HETATM    7  O   UNK A   1      -9.556  15.140  64.590  1.00  0.00     0.213 OA 
ENDROOT
BRANCH   4   8
HETATM    8  C   UNK A   1     -11.704  13.566  67.117  1.00  0.00    -0.419 C  
BRANCH   8   9
HETATM    9  C   UNK A   1     -11.987  12.066  67.015  1.00  0.00    -0.099 C  
BRANCH   9  10
HETATM   10  C   UNK A   1     -12.234  11.497  68.392  1.00  0.00     0.175 C  
HETATM   11  N   UNK A   1     -11.850  10.181  68.542  1.00  0.00    -0.357 N  
HETATM   12  O   UNK A   1     -12.771  12.146  69.285  1.00  0.00     0.379 OA 
HETATM   13  H   UNK A   1     -11.461   9.667  67.751  1.00  0.00     0.000 HD 
BRANCH  11  14
HETATM   14  C   UNK A   1     -12.005   9.523  69.846  1.00  0.00     0.278 C  
BRANCH  14  15
HETATM   15  C   UNK A   1     -10.665   9.608  70.605  1.00  0.00    -0.322 C  
ATOM     16  H   GLY A   2     -11.518   8.603  72.199  1.00  0.00     0.000 HD 
ATOM     17  N   GLY A   2     -10.654   9.013  71.847  1.00  0.00    -0.349 N  
HETATM   18  O   UNK A   1      -9.686  10.179  70.150  1.00  0.00    -0.190 OA 
BRANCH  17  19
ATOM     19  CA  GLY A   2      -9.464   8.947  72.677  1.00  0.00     0.341 C  
ATOM     20  C   GLY A   2      -9.538   7.938  73.811  1.00  0.00    -0.003 C  
ATOM     21  O   GLY A   2     -10.799   7.660  74.260  1.00  0.00     0.605 OA 
ATOM     22  OXT GLY A   2      -8.556   7.445  74.347  1.00  0.00    -0.199 OA 
ENDBRANCH  17  19
ENDBRANCH  14  15
BRANCH  14  23
HETATM   23  C   UNK A   1     -12.459   8.064  69.669  1.00  0.00     2.123 C  
BRANCH  23  24
HETATM   24  S   UNK A   1     -11.189   6.898  69.085  1.00  0.00    -0.047 SA 
BRANCH  24  25
HETATM   25  S   UNK A   1     -12.050   6.147  67.383  1.00  0.00     4.465 SA 
BRANCH  25  26
HETATM   26  C   UNK A   1     -11.624   7.419  66.141  1.00  0.00     4.202 C  
BRANCH  26  27
HETATM   27  C   UNK A   1     -10.213   7.301  65.535  1.00  0.00     2.113 C  
BRANCH  27  28
HETATM   28  C   UNK A   1      -9.529   8.699  65.462  1.00  0.00     0.052 C  
ATOM     29  H   GLY A   2      -7.753   7.948  66.264  1.00  0.00     0.000 HD 
ATOM     30  N   GLY A   2      -8.210   8.767  65.863  1.00  0.00    -0.112 N  
HETATM   31  O   UNK A   1     -10.077   9.677  64.956  1.00  0.00    -0.136 OA 
BRANCH  30  32
ATOM     32  CA  GLY A   2      -7.477  10.018  65.711  1.00  0.00    -0.121 C  
ATOM     33  OXT GLY A   2      -5.173  10.797  65.487  1.00  0.00    -0.112 OA 
ATOM     34  C   GLY A   2      -6.021   9.951  65.230  1.00  0.00    -0.084 C  
ATOM     35  O   GLY A   2      -5.779   8.993  64.315  1.00  0.00    -0.067 OA 
ENDBRANCH  30  32
ENDBRANCH  27  28
BRANCH  27  36
HETATM   36  N   UNK A   1      -9.420   6.155  66.029  1.00  0.00    -0.345 N  
HETATM   37  H   UNK A   1      -8.508   6.331  66.451  1.00  0.00     0.000 HD 
HETATM   38  O   UNK A   1     -11.004   4.563  65.575  1.00  0.00    -0.247 OA 
HETATM   39  C   UNK A   1      -9.871   4.858  65.937  1.00  0.00    -0.191 C  
BRANCH  39  40
HETATM   40  C   UNK A   1      -8.927   3.780  66.448  1.00  0.00    -0.139 C  
BRANCH  40  41
HETATM   41  C   UNK A   1      -8.869   3.575  67.974  1.00  0.00    -0.150 C  
BRANCH  41  42
HETATM   42  C   UNK A   1      -8.530   4.794  68.844  1.00  0.00    -0.081 C  
HETATM   43  N   UNK A   1      -9.114   6.052  68.306  1.00  0.00    -0.112 NA 
HETATM   44  C   UNK A   1      -7.025   4.982  68.899  1.00  0.00    -0.052 C  
HETATM   45  O   UNK A   1      -6.209   4.383  69.575  1.00  0.00    -0.025 OA 
HETATM   46  O   UNK A   1      -6.667   5.918  67.990  1.00  0.00    -0.057 OA 
HETATM   47  H2  UNK A   1     -10.120   5.963  68.173  1.00  0.00     0.000 HD 
HETATM   48  H1  UNK A   1      -8.889   6.861  68.884  1.00  0.00     0.000 HD 
ENDBRANCH  41  42
ENDBRANCH  40  41
ENDBRANCH  39  40
ENDBRANCH  27  36
ENDBRANCH  26  27
ENDBRANCH  25  26
ENDBRANCH  24  25
ENDBRANCH  23  24
ENDBRANCH  14  23
ENDBRANCH  11  14
ENDBRANCH   9  10
ENDBRANCH   8   9
ENDBRANCH   4   8
TORSDOF 17
ENDMDL
MODEL      328
REMARK 921   NORMALIZED FREE ENERGY PREDICTED BY IDOCK:   11.49 KCAL/MOL
REMARK 922        TOTAL FREE ENERGY PREDICTED BY IDOCK:   19.95 KCAL/MOL
REMARK 923 INTER-LIGAND FREE ENERGY PREDICTED BY IDOCK:   11.37 KCAL/MOL
REMARK 924 INTRA-LIGAND FREE ENERGY PREDICTED BY IDOCK:    8.57 KCAL/MOL
REMARK 927      BINDING AFFINITY PREDICTED BY RF-SCORE:    0.00 PKD
ROOT
HETATM    1  N   UNK A   1      -6.712  10.493  69.245  1.00  0.00    -0.061 NA 
HETATM    2  H1  UNK A   1      -6.524   9.535  69.539  1.00  0.00     0.000 HD 
HETATM    3  H2  UNK A   1      -5.982  11.123  69.578  1.00  0.00     0.000 HD 
HETATM    4  C   UNK A   1      -8.056  10.986  69.649  1.00  0.00     0.347 C  
HETATM    5  O   UNK A   1     -10.295  10.262  68.942  1.00  0.00    -0.182 OA 
HETATM    6  C   UNK A   1      -9.119   9.998  69.137  1.00  0.00    -0.184 C  
HETATM    7  O   UNK A   1      -8.579   8.771  68.926  1.00  0.00    -0.133 OA 
ENDROOT
BRANCH   4   8
HETATM    8  C   UNK A   1      -8.339  12.423  69.207  1.00  0.00     0.774 C  
BRANCH   8   9
HETATM    9  C   UNK A   1      -7.526  13.495  69.936  1.00  0.00     0.944 C  
BRANCH   9  10
HETATM   10  C   UNK A   1      -7.917  14.865  69.433  1.00  0.00    -0.123 C  
HETATM   11  N   UNK A   1      -7.022  15.423  68.545  1.00  0.00    -0.110 N  
HETATM   12  O   UNK A   1      -8.929  15.442  69.820  1.00  0.00    -0.226 OA 
HETATM   13  H   UNK A   1      -6.166  14.926  68.299  1.00  0.00     0.000 HD 
BRANCH  11  14
HETATM   14  C   UNK A   1      -7.308  16.738  67.957  1.00  0.00    -0.161 C  
BRANCH  14  15
HETATM   15  C   UNK A   1      -7.985  17.621  69.025  1.00  0.00    -0.081 C  
ATOM     16  H   GLY A   2      -6.164  18.519  69.420  1.00  0.00     0.000 HD 
ATOM     17  N   GLY A   2      -7.155  18.520  69.657  1.00  0.00     0.049 N  
HETATM   18  O   UNK A   1      -9.169  17.520  69.308  1.00  0.00    -0.019 OA 
BRANCH  17  19
ATOM     19  CA  GLY A   2      -7.633  19.469  70.648  1.00  0.00     1.391 C  
ATOM     20  C   GLY A   2      -9.057  19.952  70.427  1.00  0.00     1.406 C  
ATOM     21  O   GLY A   2      -9.487  19.921  69.130  1.00  0.00    -0.222 OA 
ATOM     22  OXT GLY A   2      -9.765  20.404  71.315  1.00  0.00     1.329 OA 
ENDBRANCH  17  19
ENDBRANCH  14  15
BRANCH  14  23
HETATM   23  C   UNK A   1      -8.190  16.593  66.705  1.00  0.00    -0.266 C  
BRANCH  23  24
HETATM   24  S   UNK A   1      -7.662  15.337  65.497  1.00  0.00     5.710 SA 
BRANCH  24  25
HETATM   25  S   UNK A   1      -8.935  13.785  65.914  1.00  0.00     0.777 SA 
BRANCH  25  26
HETATM   26  C   UNK A   1     -10.169  14.579  67.004  1.00  0.00    -0.262 C  
BRANCH  26  27
HETATM   27  C   UNK A   1     -11.518  13.844  67.118  1.00  0.00    -0.347 C  
BRANCH  27  28
HETATM   28  C   UNK A   1     -11.798  13.010  65.833  1.00  0.00    -0.416 C  
ATOM     29  H   GLY A   2     -10.060  13.712  64.912  1.00  0.00     0.000 HD 
ATOM     30  N   GLY A   2     -10.853  13.076  64.830  1.00  0.00    -0.319 N  
HETATM   31  O   UNK A   1     -12.742  12.226  65.747  1.00  0.00    -0.294 OA 
BRANCH  30  32
ATOM     32  CA  GLY A   2     -10.996  12.230  63.651  1.00  0.00    -0.471 C  
ATOM     33  OXT GLY A   2      -9.752  10.508  62.446  1.00  0.00    -0.214 OA 
ATOM     34  C   GLY A   2     -10.072  11.012  63.516  1.00  0.00    -0.373 C  
ATOM     35  O   GLY A   2      -9.798  10.388  64.677  1.00  0.00    -0.299 OA 
ENDBRANCH  30  32
ENDBRANCH  27  28
BRANCH  27  36
HETATM   36  N   UNK A   1     -11.773  13.218  68.433  1.00  0.00    -0.334 N  
HETATM   37  H   UNK A   1     -11.137  12.494  68.767  1.00  0.00     0.000 HD 
HETATM   38  O   UNK A   1     -13.574  14.529  68.968  1.00  0.00     2.597 OA 
HETATM   39  C   UNK A   1     -12.841  13.580  69.221  1.00  0.00     0.947 C  
BRANCH  39  40
HETATM   40  C   UNK A   1     -13.000  12.819  70.529  1.00  0.00     0.207 C  
BRANCH  40  41
HETATM   41  C   UNK A   1     -12.022  13.176  71.664  1.00  0.00     0.901 C  
BRANCH  41  42
HETATM   42  C   UNK A   1     -11.550  14.634  71.765  1.00  0.00    -0.030 C  
HETATM   43  N   UNK A   1     -11.211  15.023  73.159  1.00  0.00     0.253 NA 
HETATM   44  C   UNK A   1     -12.654  15.563  71.294  1.00  0.00    -0.447 C  
HETATM   45  O   UNK A   1     -12.979  15.840  70.154  1.00  0.00    -0.266 OA 
HETATM   46  O   UNK A   1     -13.325  16.029  72.372  1.00  0.00    -0.420 OA 
HETATM   47  H2  UNK A   1     -10.524  14.386  73.563  1.00  0.00     0.000 HD 
HETATM   48  H1  UNK A   1     -10.897  15.991  73.227  1.00  0.00     0.000 HD 
ENDBRANCH  41  42
ENDBRANCH  40  41
ENDBRANCH  39  40
ENDBRANCH  27  36
ENDBRANCH  26  27
ENDBRANCH  25  26
ENDBRANCH  24  25
ENDBRANCH  23  24
ENDBRANCH  14  23
ENDBRANCH  11  14
ENDBRANCH   9  10
ENDBRANCH   8   9
ENDBRANCH   4   8
TORSDOF 17
ENDMDL
MODEL      329
REMARK 921   NORMALIZED FREE ENERGY PREDICTED BY IDOCK:   14.57 KCAL/MOL
REMARK 922        TOTAL FREE ENERGY PREDICTED BY IDOCK:   26.09 KCAL/MOL
REMARK 923 INTER-LIGAND FREE ENERGY PREDICTED BY IDOCK:   13.87 KCAL/MOL
REMARK 924 INTRA-LIGAND FREE ENERGY PREDICTED BY IDOCK:   12.22 KCAL/MOL
REMARK 927      BINDING AFFINITY PREDICTED BY RF-SCORE:    0.00 PKD
ROOT
HETATM    1  N   UNK A   1      -9.835  15.324  67.064  1.00  0.00    -0.227 NA 
HETATM    2  H1  UNK A   1      -8.886  15.600  66.810  1.00  0.00     0.000 HD 
HETATM    3  H2  UNK A   1      -9.897  15.120  68.061  1.00  0.00     0.000 HD 
HETATM    4  C   UNK A   1     -10.359  14.186  66.261  1.00  0.00    -0.292 C  
HETATM    5  O   UNK A   1     -10.890  14.039  63.867  1.00  0.00     0.121 OA 
HETATM    6  C   UNK A   1     -10.232  14.535  64.768  1.00  0.00    -0.199 C  
HETATM    7  O   UNK A   1      -9.277  15.480  64.570  1.00  0.00     1.465 OA 
ENDROOT
BRANCH   4   8
HETATM    8  C   UNK A   1     -11.782  13.774  66.642  1.00  0.00    -0.421 C  
BRANCH   8   9
HETATM    9  C   UNK A   1     -12.124  12.307  66.374  1.00  0.00    -0.123 C  
BRANCH   9  10
HETATM   10  C   UNK A   1     -12.573  11.643  67.655  1.00  0.00     2.095 C  
HETATM   11  N   UNK A   1     -12.103  10.358  67.826  1.00  0.00     0.690 N  
HETATM   12  O   UNK A   1     -13.328  12.195  68.450  1.00  0.00     3.142 OA 
HETATM   13  H   UNK A   1     -11.524   9.924  67.107  1.00  0.00     0.000 HD 
BRANCH  11  14
HETATM   14  C   UNK A   1     -12.441   9.619  69.050  1.00  0.00     2.189 C  
BRANCH  14  15
HETATM   15  C   UNK A   1     -11.364   9.909  70.115  1.00  0.00    -0.275 C  
ATOM     16  H   GLY A   2     -12.326   8.622  71.419  1.00  0.00     0.000 HD 
ATOM     17  N   GLY A   2     -11.513   9.226  71.302  1.00  0.00    -0.317 N  
HETATM   18  O   UNK A   1     -10.453  10.701  69.932  1.00  0.00    -0.207 OA 
BRANCH  17  19
ATOM     19  CA  GLY A   2     -10.562   9.331  72.395  1.00  0.00     0.742 C  
ATOM     20  C   GLY A   2     -10.653   8.216  73.424  1.00  0.00     0.385 C  
ATOM     21  O   GLY A   2     -11.881   7.627  73.534  1.00  0.00     0.277 OA 
ATOM     22  OXT GLY A   2      -9.731   7.894  74.159  1.00  0.00     0.141 OA 
ENDBRANCH  17  19
ENDBRANCH  14  15
BRANCH  14  23
HETATM   23  C   UNK A   1     -12.555   8.113  68.760  1.00  0.00     5.363 C  
BRANCH  23  24
HETATM   24  S   UNK A   1     -10.987   7.234  68.471  1.00  0.00     0.106 SA 
BRANCH  24  25
HETATM   25  S   UNK A   1     -10.731   7.473  66.452  1.00  0.00     1.033 SA 
BRANCH  25  26
HETATM   26  C   UNK A   1      -9.993   9.142  66.351  1.00  0.00    -0.288 C  
BRANCH  26  27
HETATM   27  C   UNK A   1      -8.571   9.270  66.930  1.00  0.00    -0.127 C  
BRANCH  27  28
HETATM   28  C   UNK A   1      -8.386  10.649  67.630  1.00  0.00    -0.114 C  
ATOM     29  H   GLY A   2      -7.594   9.751  69.342  1.00  0.00     0.000 HD 
ATOM     30  N   GLY A   2      -7.805  10.637  68.883  1.00  0.00    -0.120 N  
HETATM   31  O   UNK A   1      -8.620  11.715  67.064  1.00  0.00    -0.157 OA 
BRANCH  30  32
ATOM     32  CA  GLY A   2      -7.497  11.899  69.544  1.00  0.00     0.386 C  
ATOM     33  OXT GLY A   2      -6.021  12.763  71.287  1.00  0.00    -0.265 OA 
ATOM     34  C   GLY A   2      -6.192  11.998  70.346  1.00  0.00     0.091 C  
ATOM     35  O   GLY A   2      -5.155  11.328  69.808  1.00  0.00    -0.045 OA 
ENDBRANCH  30  32
ENDBRANCH  27  28
BRANCH  27  36
HETATM   36  N   UNK A   1      -8.070   8.059  67.616  1.00  0.00    -0.122 N  
HETATM   37  H   UNK A   1      -7.773   8.131  68.589  1.00  0.00     0.000 HD 
HETATM   38  O   UNK A   1      -8.451   6.628  65.868  1.00  0.00    -0.135 OA 
HETATM   39  C   UNK A   1      -7.991   6.840  66.985  1.00  0.00    -0.109 C  
BRANCH  39  40
HETATM   40  C   UNK A   1      -7.415   5.695  67.804  1.00  0.00    -0.077 C  
BRANCH  40  41
HETATM   41  C   UNK A   1      -8.390   4.947  68.733  1.00  0.00    -0.083 C  
BRANCH  41  42
HETATM   42  C   UNK A   1      -9.349   5.790  69.586  1.00  0.00    -0.139 C  
HETATM   43  N   UNK A   1      -9.874   6.969  68.847  1.00  0.00    -0.148 NA 
HETATM   44  C   UNK A   1      -8.622   6.313  70.810  1.00  0.00    -0.135 C  
HETATM   45  O   UNK A   1      -8.358   5.726  71.845  1.00  0.00    -0.118 OA 
HETATM   46  O   UNK A   1      -8.212   7.579  70.571  1.00  0.00    -0.115 OA 
HETATM   47  H2  UNK A   1     -10.311   6.690  67.969  1.00  0.00     0.000 HD 
HETATM   48  H1  UNK A   1     -10.511   7.530  69.413  1.00  0.00     0.000 HD 
ENDBRANCH  41  42
ENDBRANCH  40  41
ENDBRANCH  39  40
ENDBRANCH  27  36
ENDBRANCH  26  27
ENDBRANCH  25  26
ENDBRANCH  24  25
ENDBRANCH  23  24
ENDBRANCH  14  23
ENDBRANCH  11  14
ENDBRANCH   9  10
ENDBRANCH   8   9
ENDBRANCH   4   8
TORSDOF 17
ENDMDL
MODEL      330
REMARK 921   NORMALIZED FREE ENERGY PREDICTED BY IDOCK:   14.90 KCAL/MOL
REMARK 922        TOTAL FREE ENERGY PREDICTED BY IDOCK:   26.74 KCAL/MOL
REMARK 923 INTER-LIGAND FREE ENERGY PREDICTED BY IDOCK:   23.58 KCAL/MOL
REMARK 924 INTRA-LIGAND FREE ENERGY PREDICTED BY IDOCK:    3.16 KCAL/MOL
REMARK 927      BINDING AFFINITY PREDICTED BY RF-SCORE:    0.00 PKD
ROOT
HETATM    1  N   UNK A   1      -9.841  15.325  67.060  1.00  0.00    -0.227 NA 
HETATM    2  H1  UNK A   1      -8.878  15.566  66.824  1.00  0.00     0.000 HD 
HETATM    3  H2  UNK A   1      -9.928  15.123  68.057  1.00  0.00     0.000 HD 
HETATM    4  C   UNK A   1     -10.392  14.208  66.247  1.00  0.00    -0.292 C  
HETATM    5  O   UNK A   1     -10.884  14.082  63.844  1.00  0.00     0.121 OA 
HETATM    6  C   UNK A   1     -10.225  14.553  64.757  1.00  0.00    -0.199 C  
HETATM    7  O   UNK A   1      -9.233  15.462  64.577  1.00  0.00     1.452 OA 
ENDROOT
BRANCH   4   8
HETATM    8  C   UNK A   1     -11.836  13.847  66.602  1.00  0.00    -0.447 C  
BRANCH   8   9
HETATM    9  C   UNK A   1     -12.225  12.394  66.327  1.00  0.00    -0.062 C  
BRANCH   9  10
HETATM   10  C   UNK A   1     -12.747  11.755  67.593  1.00  0.00     2.647 C  
HETATM   11  N   UNK A   1     -12.337  10.453  67.785  1.00  0.00     1.690 N  
HETATM   12  O   UNK A   1     -13.506  12.341  68.360  1.00  0.00     3.799 OA 
HETATM   13  H   UNK A   1     -11.753   9.991  67.088  1.00  0.00     0.000 HD 
BRANCH  11  14
HETATM   14  C   UNK A   1     -12.748   9.734  68.998  1.00  0.00     2.688 C  
BRANCH  14  15
HETATM   15  C   UNK A   1     -11.699   9.984  70.100  1.00  0.00    -0.215 C  
ATOM     16  H   GLY A   2     -12.766   8.753  71.377  1.00  0.00     0.000 HD 
ATOM     17  N   GLY A   2     -11.923   9.320  71.286  1.00  0.00    -0.319 N  
HETATM   18  O   UNK A   1     -10.747  10.733  69.946  1.00  0.00    -0.236 OA 
BRANCH  17  19
ATOM     19  CA  GLY A   2     -11.009   9.392  72.413  1.00  0.00     0.877 C  
ATOM     20  C   GLY A   2     -11.190   8.293  73.447  1.00  0.00     0.979 C  
ATOM     21  O   GLY A   2     -12.448   7.763  73.517  1.00  0.00     0.990 OA 
ATOM     22  OXT GLY A   2     -10.312   7.936  74.219  1.00  0.00     0.726 OA 
ENDBRANCH  17  19
ENDBRANCH  14  15
BRANCH  14  23
HETATM   23  C   UNK A   1     -12.914   8.232  68.710  1.00  0.00     7.969 C  
BRANCH  23  24
HETATM   24  S   UNK A   1     -11.374   7.290  68.471  1.00  0.00     0.585 SA 
BRANCH  24  25
HETATM   25  S   UNK A   1     -11.049   7.508  66.459  1.00  0.00     1.660 SA 
BRANCH  25  26
HETATM   26  C   UNK A   1     -10.246   9.147  66.372  1.00  0.00    -0.230 C  
BRANCH  26  27
HETATM   27  C   UNK A   1      -8.842   9.227  66.998  1.00  0.00    -0.123 C  
BRANCH  27  28
HETATM   28  C   UNK A   1      -8.627  10.606  67.690  1.00  0.00    -0.118 C  
ATOM     29  H   GLY A   2      -6.550  10.437  67.540  1.00  0.00     0.000 HD 
ATOM     30  N   GLY A   2      -7.323  11.042  67.817  1.00  0.00    -0.091 N  
HETATM   31  O   UNK A   1      -9.562  11.343  68.000  1.00  0.00    -0.172 OA 
BRANCH  30  32
ATOM     32  CA  GLY A   2      -7.059  12.373  68.349  1.00  0.00    -0.106 C  
ATOM     33  OXT GLY A   2      -5.298  14.065  68.314  1.00  0.00    -0.096 OA 
ATOM     34  C   GLY A   2      -5.922  13.192  67.723  1.00  0.00    -0.148 C  
ATOM     35  O   GLY A   2      -5.790  13.036  66.392  1.00  0.00     1.136 OA 
ENDBRANCH  30  32
ENDBRANCH  27  28
BRANCH  27  36
HETATM   36  N   UNK A   1      -8.411   8.006  67.714  1.00  0.00    -0.128 N  
HETATM   37  H   UNK A   1      -8.145   8.078  68.696  1.00  0.00     0.000 HD 
HETATM   38  O   UNK A   1      -8.787   6.570  65.969  1.00  0.00    -0.152 OA 
HETATM   39  C   UNK A   1      -8.357   6.777  67.099  1.00  0.00    -0.121 C  
BRANCH  39  40
HETATM   40  C   UNK A   1      -7.854   5.621  67.949  1.00  0.00    -0.097 C  
BRANCH  40  41
HETATM   41  C   UNK A   1      -6.331   5.394  67.981  1.00  0.00    -0.039 C  
BRANCH  41  42
HETATM   42  C   UNK A   1      -5.573   5.456  66.647  1.00  0.00    -0.017 C  
HETATM   43  N   UNK A   1      -6.088   6.528  65.754  1.00  0.00    -0.029 NA 
HETATM   44  C   UNK A   1      -5.730   4.140  65.907  1.00  0.00    -0.022 C  
HETATM   45  O   UNK A   1      -5.142   3.090  66.092  1.00  0.00    -0.007 OA 
HETATM   46  O   UNK A   1      -6.723   4.264  64.997  1.00  0.00    -0.046 OA 
HETATM   47  H2  UNK A   1      -6.081   7.433  66.224  1.00  0.00     0.000 HD 
HETATM   48  H1  UNK A   1      -5.585   6.570  64.868  1.00  0.00     0.000 HD 
ENDBRANCH  41  42
ENDBRANCH  40  41
ENDBRANCH  39  40
ENDBRANCH  27  36
ENDBRANCH  26  27
ENDBRANCH  25  26
ENDBRANCH  24  25
ENDBRANCH  23  24
ENDBRANCH  14  23
ENDBRANCH  11  14
ENDBRANCH   9  10
ENDBRANCH   8   9
ENDBRANCH   4   8
TORSDOF 17
ENDMDL
MODEL      331
REMARK 921   NORMALIZED FREE ENERGY PREDICTED BY IDOCK:   16.93 KCAL/MOL
REMARK 922        TOTAL FREE ENERGY PREDICTED BY IDOCK:   30.78 KCAL/MOL
REMARK 923 INTER-LIGAND FREE ENERGY PREDICTED BY IDOCK:   22.94 KCAL/MOL
REMARK 924 INTRA-LIGAND FREE ENERGY PREDICTED BY IDOCK:    7.84 KCAL/MOL
REMARK 927      BINDING AFFINITY PREDICTED BY RF-SCORE:    0.00 PKD
ROOT
HETATM    1  N   UNK A   1      -6.820  11.265  69.357  1.00  0.00    -0.117 NA 
HETATM    2  H1  UNK A   1      -6.674  10.309  69.681  1.00  0.00     0.000 HD 
HETATM    3  H2  UNK A   1      -6.054  11.869  69.656  1.00  0.00     0.000 HD 
HETATM    4  C   UNK A   1      -8.131  11.838  69.766  1.00  0.00     1.411 C  
HETATM    5  O   UNK A   1     -10.415  11.204  69.123  1.00  0.00    -0.213 OA 
HETATM    6  C   UNK A   1      -9.250  10.888  69.307  1.00  0.00     0.014 C  
HETATM    7  O   UNK A   1      -8.775   9.629  69.129  1.00  0.00    -0.135 OA 
ENDROOT
BRANCH   4   8
HETATM    8  C   UNK A   1      -8.350  13.272  69.280  1.00  0.00     0.731 C  
BRANCH   8   9
HETATM    9  C   UNK A   1      -7.600  14.345  70.072  1.00  0.00     0.456 C  
BRANCH   9  10
HETATM   10  C   UNK A   1      -7.195  15.472  69.151  1.00  0.00    -0.174 C  
HETATM   11  N   UNK A   1      -5.932  15.343  68.614  1.00  0.00    -0.091 N  
HETATM   12  O   UNK A   1      -7.921  16.439  68.938  1.00  0.00    -0.214 OA 
HETATM   13  H   UNK A   1      -5.345  14.549  68.868  1.00  0.00     0.000 HD 
BRANCH  11  14
HETATM   14  C   UNK A   1      -5.436  16.357  67.674  1.00  0.00    -0.143 C  
BRANCH  14  15
HETATM   15  C   UNK A   1      -5.999  17.732  68.088  1.00  0.00    -0.165 C  
ATOM     16  H   GLY A   2      -4.211  18.164  69.037  1.00  0.00     0.000 HD 
ATOM     17  N   GLY A   2      -5.131  18.533  68.797  1.00  0.00    -0.180 N  
HETATM   18  O   UNK A   1      -7.139  18.083  67.827  1.00  0.00    -0.200 OA 
BRANCH  17  19
ATOM     19  CA  GLY A   2      -5.471  19.881  69.219  1.00  0.00    -0.213 C  
ATOM     20  C   GLY A   2      -6.684  20.476  68.522  1.00  0.00    -0.189 C  
ATOM     21  O   GLY A   2      -6.938  19.978  67.274  1.00  0.00    -0.216 OA 
ATOM     22  OXT GLY A   2      -7.359  21.380  68.989  1.00  0.00     1.841 OA 
ENDBRANCH  17  19
ENDBRANCH  14  15
BRANCH  14  23
HETATM   23  C   UNK A   1      -5.831  16.000  66.230  1.00  0.00     1.940 C  
BRANCH  23  24
HETATM   24  S   UNK A   1      -6.169  14.240  65.908  1.00  0.00     8.762 SA 
BRANCH  24  25
HETATM   25  S   UNK A   1      -8.217  14.206  65.835  1.00  0.00     2.690 SA 
BRANCH  25  26
HETATM   26  C   UNK A   1      -8.634  15.985  65.872  1.00  0.00     0.042 C  
BRANCH  26  27
HETATM   27  C   UNK A   1     -10.065  16.336  65.422  1.00  0.00    -0.145 C  
BRANCH  27  28
HETATM   28  C   UNK A   1     -10.806  15.066  64.909  1.00  0.00    -0.411 C  
ATOM     29  H   GLY A   2      -9.190  13.838  65.403  1.00  0.00     0.000 HD 
ATOM     30  N   GLY A   2     -10.148  13.861  65.053  1.00  0.00    -0.338 N  
HETATM   31  O   UNK A   1     -11.970  15.095  64.511  1.00  0.00    -0.416 OA 
BRANCH  30  32
ATOM     32  CA  GLY A   2     -10.831  12.622  64.701  1.00  0.00    -0.319 C  
ATOM     33  OXT GLY A   2     -11.612  10.570  65.771  1.00  0.00     0.662 OA 
ATOM     34  C   GLY A   2     -11.437  11.781  65.833  1.00  0.00    -0.207 C  
ATOM     35  O   GLY A   2     -11.970  12.501  66.838  1.00  0.00    -0.507 OA 
ENDBRANCH  30  32
ENDBRANCH  27  28
BRANCH  27  36
HETATM   36  N   UNK A   1     -10.790  17.257  66.325  1.00  0.00    -0.050 N  
HETATM   37  H   UNK A   1     -10.846  17.032  67.318  1.00  0.00     0.000 HD 
HETATM   38  O   UNK A   1     -11.259  18.828  64.724  1.00  0.00    -0.118 OA 
HETATM   39  C   UNK A   1     -11.391  18.407  65.869  1.00  0.00     1.255 C  
BRANCH  39  40
HETATM   40  C   UNK A   1     -12.137  19.234  66.906  1.00  0.00     2.790 C  
BRANCH  40  41
HETATM   41  C   UNK A   1     -11.278  20.060  67.882  1.00  0.00     0.524 C  
BRANCH  41  42
HETATM   42  C   UNK A   1     -10.908  19.416  69.226  1.00  0.00     1.257 C  
HETATM   43  N   UNK A   1      -9.463  19.569  69.546  1.00  0.00    -0.061 NA 
HETATM   44  C   UNK A   1     -11.204  17.928  69.180  1.00  0.00     1.444 C  
HETATM   45  O   UNK A   1     -12.275  17.363  69.304  1.00  0.00     2.250 OA 
HETATM   46  O   UNK A   1     -10.062  17.262  68.895  1.00  0.00    -0.308 OA 
HETATM   47  H2  UNK A   1      -9.181  20.548  69.517  1.00  0.00     0.000 HD 
HETATM   48  H1  UNK A   1      -9.217  19.141  70.438  1.00  0.00     0.000 HD 
ENDBRANCH  41  42
ENDBRANCH  40  41
ENDBRANCH  39  40
ENDBRANCH  27  36
ENDBRANCH  26  27
ENDBRANCH  25  26
ENDBRANCH  24  25
ENDBRANCH  23  24
ENDBRANCH  14  23
ENDBRANCH  11  14
ENDBRANCH   9  10
ENDBRANCH   8   9
ENDBRANCH   4   8
TORSDOF 17
ENDMDL
MODEL      332
REMARK 921   NORMALIZED FREE ENERGY PREDICTED BY IDOCK:   30.09 KCAL/MOL
REMARK 922        TOTAL FREE ENERGY PREDICTED BY IDOCK:   57.02 KCAL/MOL
REMARK 923 INTER-LIGAND FREE ENERGY PREDICTED BY IDOCK:   48.90 KCAL/MOL
REMARK 924 INTRA-LIGAND FREE ENERGY PREDICTED BY IDOCK:    8.11 KCAL/MOL
REMARK 927      BINDING AFFINITY PREDICTED BY RF-SCORE:    0.00 PKD
ROOT
HETATM    1  N   UNK A   1     -11.525   7.315  66.799  1.00  0.00    -0.038 NA 
HETATM    2  H1  UNK A   1     -11.774   6.338  66.640  1.00  0.00     0.000 HD 
HETATM    3  H2  UNK A   1     -11.922   7.649  67.677  1.00  0.00     0.000 HD 
HETATM    4  C   UNK A   1     -11.900   8.214  65.675  1.00  0.00     9.588 C  
HETATM    5  O   UNK A   1     -11.063   8.312  63.368  1.00  0.00    12.032 OA 
HETATM    6  C   UNK A   1     -11.291   7.661  64.375  1.00  0.00    15.335 C  
HETATM    7  O   UNK A   1     -11.036   6.332  64.486  1.00  0.00     5.240 OA 
ENDROOT
BRANCH   4   8
HETATM    8  C   UNK A   1     -11.527   9.679  65.914  1.00  0.00     2.944 C  
BRANCH   8   9
HETATM    9  C   UNK A   1     -10.972   9.986  67.306  1.00  0.00    -0.225 C  
BRANCH   9  10
HETATM   10  C   UNK A   1      -9.538  10.450  67.195  1.00  0.00    -0.164 C  
HETATM   11  N   UNK A   1      -8.676   9.513  66.664  1.00  0.00    -0.133 N  
HETATM   12  O   UNK A   1      -9.173  11.554  67.587  1.00  0.00    -0.165 OA 
HETATM   13  H   UNK A   1      -9.019   8.588  66.407  1.00  0.00     0.000 HD 
BRANCH  11  14
HETATM   14  C   UNK A   1      -7.261   9.857  66.471  1.00  0.00    -0.095 C  
BRANCH  14  15
HETATM   15  C   UNK A   1      -7.176  11.255  65.825  1.00  0.00     0.305 C  
ATOM     16  H   GLY A   2      -8.147  12.059  67.465  1.00  0.00     0.000 HD 
ATOM     17  N   GLY A   2      -7.705  12.282  66.573  1.00  0.00     0.195 N  
HETATM   18  O   UNK A   1      -6.692  11.440  64.718  1.00  0.00     0.989 OA 
BRANCH  17  19
ATOM     19  CA  GLY A   2      -7.660  13.670  66.148  1.00  0.00     2.806 C  
ATOM     20  C   GLY A   2      -8.966  14.429  66.319  1.00  0.00     0.004 C  
ATOM     21  O   GLY A   2     -10.093  13.657  66.290  1.00  0.00    -0.284 OA 
ATOM     22  OXT GLY A   2      -9.037  15.645  66.411  1.00  0.00    -0.265 OA 
ENDBRANCH  17  19
ENDBRANCH  14  15
BRANCH  14  23
HETATM   23  C   UNK A   1      -6.556   8.795  65.610  1.00  0.00    -0.064 C  
BRANCH  23  24
HETATM   24  S   UNK A   1      -5.876   7.364  66.507  1.00  0.00    -0.036 SA 
BRANCH  24  25
HETATM   25  S   UNK A   1      -5.277   8.214  68.273  1.00  0.00    -0.034 SA 
BRANCH  25  26
HETATM   26  C   UNK A   1      -6.226   7.254  69.506  1.00  0.00    -0.031 C  
BRANCH  26  27
HETATM   27  C   UNK A   1      -7.757   7.302  69.342  1.00  0.00    -0.107 C  
BRANCH  27  28
HETATM   28  C   UNK A   1      -8.173   6.805  67.925  1.00  0.00    -0.117 C  
ATOM     29  H   GLY A   2      -8.091   4.806  68.526  1.00  0.00     0.000 HD 
ATOM     30  N   GLY A   2      -8.326   5.443  67.764  1.00  0.00    -0.100 N  
HETATM   31  O   UNK A   1      -8.479   7.577  67.018  1.00  0.00    -0.118 OA 
BRANCH  30  32
ATOM     32  CA  GLY A   2      -8.826   4.921  66.498  1.00  0.00    -0.112 C  
ATOM     33  OXT GLY A   2      -8.590   2.939  65.091  1.00  0.00    -0.097 OA 
ATOM     34  C   GLY A   2      -8.658   3.422  66.215  1.00  0.00    -0.119 C  
ATOM     35  O   GLY A   2      -8.803   2.630  67.294  1.00  0.00    -0.116 OA 
ENDBRANCH  30  32
ENDBRANCH  27  28
BRANCH  27  36
HETATM   36  N   UNK A   1      -8.521   6.814  70.511  1.00  0.00    -0.136 N  
HETATM   37  H   UNK A   1      -8.031   6.662  71.392  1.00  0.00     0.000 HD 
HETATM   38  O   UNK A   1     -10.566   6.839  69.478  1.00  0.00    -0.207 OA 
HETATM   39  C   UNK A   1      -9.871   6.557  70.448  1.00  0.00    -0.175 C  
BRANCH  39  40
HETATM   40  C   UNK A   1     -10.513   6.019  71.718  1.00  0.00    -0.268 C  
BRANCH  40  41
HETATM   41  C   UNK A   1     -11.995   5.607  71.625  1.00  0.00     0.436 C  
BRANCH  41  42
HETATM   42  C   UNK A   1     -12.930   6.053  72.758  1.00  0.00     0.838 C  
HETATM   43  N   UNK A   1     -14.363   5.988  72.367  1.00  0.00    -0.495 NA 
HETATM   44  C   UNK A   1     -12.631   7.493  73.133  1.00  0.00     1.311 C  
HETATM   45  O   UNK A   1     -11.728   7.926  73.826  1.00  0.00     0.755 OA 
HETATM   46  O   UNK A   1     -13.512   8.303  72.502  1.00  0.00    -0.172 OA 
HETATM   47  H2  UNK A   1     -14.611   5.058  72.030  1.00  0.00     0.000 HD 
HETATM   48  H1  UNK A   1     -14.985   6.284  73.119  1.00  0.00     0.000 HD 
ENDBRANCH  41  42
ENDBRANCH  40  41
ENDBRANCH  39  40
ENDBRANCH  27  36
ENDBRANCH  26  27
ENDBRANCH  25  26
ENDBRANCH  24  25
ENDBRANCH  23  24
ENDBRANCH  14  23
ENDBRANCH  11  14
ENDBRANCH   9  10
ENDBRANCH   8   9
ENDBRANCH   4   8
TORSDOF 17
ENDMDL
MODEL      333
REMARK 921   NORMALIZED FREE ENERGY PREDICTED BY IDOCK:   30.89 KCAL/MOL
REMARK 922        TOTAL FREE ENERGY PREDICTED BY IDOCK:   58.62 KCAL/MOL
REMARK 923 INTER-LIGAND FREE ENERGY PREDICTED BY IDOCK:   18.05 KCAL/MOL
REMARK 924 INTRA-LIGAND FREE ENERGY PREDICTED BY IDOCK:   40.57 KCAL/MOL
REMARK 927      BINDING AFFINITY PREDICTED BY RF-SCORE:    0.00 PKD
ROOT
HETATM    1  N   UNK A   1      -9.486  18.658  65.809  1.00  0.00    -0.350 NA 
HETATM    2  H1  UNK A   1      -9.492  18.780  64.796  1.00  0.00     0.000 HD 
HETATM    3  H2  UNK A   1     -10.399  18.885  66.205  1.00  0.00     0.000 HD 
HETATM    4  C   UNK A   1      -8.410  19.422  66.494  1.00  0.00    -0.328 C  
HETATM    5  O   UNK A   1      -5.968  19.176  66.387  1.00  0.00    -0.165 OA 
HETATM    6  C   UNK A   1      -7.059  19.057  65.853  1.00  0.00    -0.263 C  
HETATM    7  O   UNK A   1      -7.234  18.578  64.595  1.00  0.00     0.748 OA 
ENDROOT
BRANCH   4   8
HETATM    8  C   UNK A   1      -8.401  19.237  68.013  1.00  0.00    -0.350 C  
BRANCH   8   9
HETATM    9  C   UNK A   1      -7.777  17.929  68.502  1.00  0.00    -0.299 C  
BRANCH   9  10
HETATM   10  C   UNK A   1      -8.862  16.915  68.777  1.00  0.00    -0.255 C  
HETATM   11  N   UNK A   1     -10.037  17.138  68.091  1.00  0.00    -0.294 N  
HETATM   12  O   UNK A   1      -8.715  15.997  69.579  1.00  0.00    -0.216 OA 
HETATM   13  H   UNK A   1     -10.128  17.949  67.480  1.00  0.00     0.000 HD 
BRANCH  11  14
HETATM   14  C   UNK A   1     -11.157  16.200  68.246  1.00  0.00    -0.348 C  
BRANCH  14  15
HETATM   15  C   UNK A   1     -10.795  15.174  69.338  1.00  0.00    -0.262 C  
ATOM     16  H   GLY A   2     -12.077  16.134  70.648  1.00  0.00     0.000 HD 
ATOM     17  N   GLY A   2     -11.446  15.340  70.541  1.00  0.00    -0.284 N  
HETATM   18  O   UNK A   1      -9.974  14.287  69.162  1.00  0.00    -0.153 OA 
BRANCH  17  19
ATOM     19  CA  GLY A   2     -11.271  14.434  71.662  1.00  0.00     0.937 C  
ATOM     20  C   GLY A   2     -11.195  15.113  73.020  1.00  0.00     0.474 C  
ATOM     21  O   GLY A   2     -10.737  16.401  73.000  1.00  0.00     2.413 OA 
ATOM     22  OXT GLY A   2     -11.453  14.552  74.075  1.00  0.00     0.280 OA 
ENDBRANCH  17  19
ENDBRANCH  14  15
BRANCH  14  23
HETATM   23  C   UNK A   1     -11.477  15.509  66.909  1.00  0.00    -0.000 C  
BRANCH  23  24
HETATM   24  S   UNK A   1     -10.047  15.111  65.855  1.00  0.00    -0.352 SA 
BRANCH  24  25
HETATM   25  S   UNK A   1      -8.542  16.166  66.763  1.00  0.00    -0.277 SA 
BRANCH  25  26
HETATM   26  C   UNK A   1      -8.492  15.413  68.428  1.00  0.00    -0.160 C  
BRANCH  26  27
HETATM   27  C   UNK A   1      -8.083  13.929  68.468  1.00  0.00    -0.133 C  
BRANCH  27  28
HETATM   28  C   UNK A   1      -7.823  13.471  69.934  1.00  0.00     1.466 C  
ATOM     29  H   GLY A   2      -7.100  15.357  70.468  1.00  0.00     0.000 HD 
ATOM     30  N   GLY A   2      -7.344  14.427  70.808  1.00  0.00     1.011 N  
HETATM   31  O   UNK A   1      -8.141  12.356  70.345  1.00  0.00     3.093 OA 
BRANCH  30  32
ATOM     32  CA  GLY A   2      -7.189  14.096  72.219  1.00  0.00     4.273 C  
ATOM     33  OXT GLY A   2      -6.351  12.273  73.613  1.00  0.00     2.593 OA 
ATOM     34  C   GLY A   2      -6.243  12.948  72.596  1.00  0.00     2.956 C  
ATOM     35  O   GLY A   2      -5.138  12.862  71.830  1.00  0.00    -0.254 OA 
ENDBRANCH  30  32
ENDBRANCH  27  28
BRANCH  27  36
HETATM   36  N   UNK A   1      -8.873  13.043  67.585  1.00  0.00    -0.179 N  
HETATM   37  H   UNK A   1      -9.490  13.463  66.889  1.00  0.00     0.000 HD 
HETATM   38  O   UNK A   1      -7.993  11.082  68.376  1.00  0.00    -0.116 OA 
HETATM   39  C   UNK A   1      -8.804  11.672  67.670  1.00  0.00    -0.159 C  
BRANCH  39  40
HETATM   40  C   UNK A   1      -9.706  10.893  66.726  1.00  0.00    -0.221 C  
BRANCH  40  41
HETATM   41  C   UNK A   1     -11.175  11.348  66.635  1.00  0.00    -0.298 C  
BRANCH  41  42
HETATM   42  C   UNK A   1     -11.613  12.091  65.364  1.00  0.00    -0.286 C  
HETATM   43  N   UNK A   1     -10.629  13.124  64.946  1.00  0.00    -0.330 NA 
HETATM   44  C   UNK A   1     -12.931  12.799  65.614  1.00  0.00     0.615 C  
HETATM   45  O   UNK A   1     -14.055  12.331  65.622  1.00  0.00     4.013 OA 
HETATM   46  O   UNK A   1     -12.684  14.094  65.915  1.00  0.00    -0.487 OA 
HETATM   47  H2  UNK A   1      -9.698  12.723  64.835  1.00  0.00     0.000 HD 
HETATM   48  H1  UNK A   1     -10.920  13.618  64.102  1.00  0.00     0.000 HD 
ENDBRANCH  41  42
ENDBRANCH  40  41
ENDBRANCH  39  40
ENDBRANCH  27  36
ENDBRANCH  26  27
ENDBRANCH  25  26
ENDBRANCH  24  25
ENDBRANCH  23  24
ENDBRANCH  14  23
ENDBRANCH  11  14
ENDBRANCH   9  10
ENDBRANCH   8   9
ENDBRANCH   4   8
TORSDOF 17
ENDMDL
