MODEL        1
REMARK 921   NORMALIZED FREE ENERGY PREDICTED BY IDOCK:   -7.53 KCAL/MOL
REMARK 922        TOTAL FREE ENERGY PREDICTED BY IDOCK:  -13.90 KCAL/MOL
REMARK 923 INTER-LIGAND FREE ENERGY PREDICTED BY IDOCK:  -11.93 KCAL/MOL
REMARK 924 INTRA-LIGAND FREE ENERGY PREDICTED BY IDOCK:   -1.97 KCAL/MOL
REMARK 927      BINDING AFFINITY PREDICTED BY RF-SCORE:    0.00 PKD
ROOT
HETATM    1  C   UNL     1     -11.298   5.863  72.373  1.00  0.00    -0.307 C  
HETATM    2  O   UNL     1     -11.793   6.519  71.206  1.00  0.00    -0.326 OA 
ENDROOT
BRANCH   2   3
HETATM    3  C   UNL     1     -12.150   7.833  71.368  1.00  0.00    -0.311 A  
HETATM    4  C   UNL     1     -11.289   8.845  70.892  1.00  0.00    -0.336 A  
HETATM    5  C   UNL     1     -11.649  10.193  71.068  1.00  0.00    -0.462 A  
HETATM    6  C   UNL     1     -13.308   8.193  72.075  1.00  0.00    -0.309 A  
HETATM    7 CL   UNL     1     -13.218  12.180  72.005  1.00  0.00    -0.576 Cl 
HETATM    8  C   UNL     1     -13.634   9.534  72.278  1.00  0.00    -0.494 A  
HETATM    9  C   UNL     1     -12.810  10.526  71.764  1.00  0.00    -0.454 A  
BRANCH   4  10
HETATM   10  C   UNL     1     -10.003   8.520  70.190  1.00  0.00    -0.181 C  
HETATM   11  H   UNL     1     -11.013   8.229  68.386  1.00  0.00     0.000 HD 
HETATM   12  O   UNL     1      -8.936   8.469  70.787  1.00  0.00    -0.144 OA 
HETATM   13  N   UNL     1     -10.094   8.290  68.824  1.00  0.00    -0.195 N  
BRANCH  13  14
HETATM   14  C   UNL     1      -8.905   8.135  68.006  1.00  0.00    -0.131 C  
BRANCH  14  15
HETATM   15  C   UNL     1      -8.368   9.460  67.452  1.00  0.00    -0.125 C  
BRANCH  15  16
HETATM   16  C   UNL     1      -9.375  10.318  66.705  1.00  0.00    -0.187 A  
HETATM   17  C   UNL     1      -9.597  10.214  65.322  1.00  0.00    -0.338 A  
HETATM   18  C   UNL     1     -10.481  11.077  64.667  1.00  0.00    -0.398 A  
HETATM   19  C   UNL     1     -11.164  12.051  65.393  1.00  0.00    -0.322 A  
HETATM   20  C   UNL     1     -10.100  11.282  67.425  1.00  0.00    -0.214 A  
HETATM   21  C   UNL     1     -10.979  12.154  66.774  1.00  0.00    -0.325 A  
BRANCH  19  22
HETATM   22  S   UNL     1     -12.150  13.253  64.527  1.00  0.00    -0.419 S  
HETATM   23  O   UNL     1     -13.041  13.856  65.500  1.00  0.00    -0.699 OA 
HETATM   24  O   UNL     1     -12.678  12.656  63.323  1.00  0.00    -0.669 OA 
BRANCH  22  25
HETATM   25  N   UNL     1     -11.079  14.459  64.123  1.00  0.00    -0.549 N  
HETATM   26  H   UNL     1     -10.331  14.235  63.466  1.00  0.00     0.000 HD 
BRANCH  25  27
HETATM   27  C   UNL     1     -11.140  15.748  64.623  1.00  0.00    -0.361 C  
HETATM   28  O   UNL     1     -11.549  16.694  63.976  1.00  0.00    -1.197 OA 
BRANCH  27  29
HETATM   29  N   UNL     1     -10.679  15.848  65.907  1.00  0.00    -0.317 N  
HETATM   30  H   UNL     1     -11.283  15.593  66.689  1.00  0.00     0.000 HD 
BRANCH  29  31
HETATM   31  C   UNL     1      -9.324  16.321  66.156  1.00  0.00    -0.339 C  
HETATM   32  C   UNL     1      -9.313  17.556  67.063  1.00  0.00    -0.262 C  
HETATM   33  C   UNL     1      -9.612  17.221  68.522  1.00  0.00    -0.291 C  
HETATM   34  C   UNL     1      -8.678  16.137  69.046  1.00  0.00    -0.254 C  
HETATM   35  C   UNL     1      -8.726  14.884  68.178  1.00  0.00    -0.164 C  
HETATM   36  C   UNL     1      -8.439  15.201  66.712  1.00  0.00    -0.272 C  
ENDBRANCH  29  31
ENDBRANCH  27  29
ENDBRANCH  25  27
ENDBRANCH  22  25
ENDBRANCH  19  22
ENDBRANCH  15  16
ENDBRANCH  14  15
ENDBRANCH  13  14
ENDBRANCH   4  10
ENDBRANCH   2   3
TORSDOF 10
ENDMDL
MODEL        2
REMARK 921   NORMALIZED FREE ENERGY PREDICTED BY IDOCK:   -7.15 KCAL/MOL
REMARK 922        TOTAL FREE ENERGY PREDICTED BY IDOCK:  -13.30 KCAL/MOL
REMARK 923 INTER-LIGAND FREE ENERGY PREDICTED BY IDOCK:  -11.50 KCAL/MOL
REMARK 924 INTRA-LIGAND FREE ENERGY PREDICTED BY IDOCK:   -1.80 KCAL/MOL
REMARK 927      BINDING AFFINITY PREDICTED BY RF-SCORE:    0.00 PKD
ROOT
HETATM    1  C   UNL     1     -12.224  11.902  70.341  1.00  0.00    -0.314 C  
HETATM    2  O   UNL     1     -11.464  10.792  69.865  1.00  0.00    -0.268 OA 
ENDROOT
BRANCH   2   3
HETATM    3  C   UNL     1     -11.248   9.786  70.771  1.00  0.00    -0.348 A  
HETATM    4  C   UNL     1     -10.029   9.076  70.736  1.00  0.00    -0.307 A  
HETATM    5  C   UNL     1      -9.811   8.036  71.658  1.00  0.00    -0.223 A  
HETATM    6  C   UNL     1     -12.247   9.390  71.675  1.00  0.00    -0.467 A  
HETATM    7 CL   UNL     1     -10.547   6.369  73.648  1.00  0.00    -0.292 Cl 
HETATM    8  C   UNL     1     -12.034   8.331  72.557  1.00  0.00    -0.420 A  
HETATM    9  C   UNL     1     -10.814   7.668  72.552  1.00  0.00    -0.314 A  
BRANCH   4  10
HETATM   10  C   UNL     1      -8.951   9.410  69.746  1.00  0.00    -0.188 C  
HETATM   11  H   UNL     1      -9.565   7.859  68.490  1.00  0.00     0.000 HD 
HETATM   12  O   UNL     1      -8.134  10.296  69.957  1.00  0.00    -0.132 OA 
HETATM   13  N   UNL     1      -8.941   8.662  68.577  1.00  0.00    -0.139 N  
BRANCH  13  14
HETATM   14  C   UNL     1      -8.059   8.999  67.474  1.00  0.00    -0.108 C  
BRANCH  14  15
HETATM   15  C   UNL     1      -8.695   8.780  66.096  1.00  0.00    -0.184 C  
BRANCH  15  16
HETATM   16  C   UNL     1      -9.600   9.896  65.603  1.00  0.00    -0.320 A  
HETATM   17  C   UNL     1      -9.749  10.221  64.245  1.00  0.00    -0.373 A  
HETATM   18  C   UNL     1     -10.536  11.305  63.846  1.00  0.00    -0.455 A  
HETATM   19  C   UNL     1     -11.196  12.074  64.804  1.00  0.00    -0.318 A  
HETATM   20  C   UNL     1     -10.302  10.659  66.551  1.00  0.00    -0.299 A  
HETATM   21  C   UNL     1     -11.084  11.751  66.159  1.00  0.00    -0.358 A  
BRANCH  19  22
HETATM   22  S   UNL     1     -12.050  13.551  64.302  1.00  0.00    -0.422 S  
HETATM   23  O   UNL     1     -12.934  13.925  65.390  1.00  0.00    -0.722 OA 
HETATM   24  O   UNL     1     -12.571  13.368  62.967  1.00  0.00    -0.669 OA 
BRANCH  22  25
HETATM   25  N   UNL     1     -10.876  14.727  64.281  1.00  0.00    -0.508 N  
HETATM   26  H   UNL     1     -10.005  14.526  63.790  1.00  0.00     0.000 HD 
BRANCH  25  27
HETATM   27  C   UNL     1     -11.008  15.964  64.889  1.00  0.00    -0.411 C  
HETATM   28  O   UNL     1     -11.285  16.979  64.278  1.00  0.00    -1.186 OA 
BRANCH  27  29
HETATM   29  N   UNL     1     -10.779  15.927  66.237  1.00  0.00    -0.295 N  
HETATM   30  H   UNL     1     -11.346  16.494  66.867  1.00  0.00     0.000 HD 
BRANCH  29  31
HETATM   31  C   UNL     1      -9.725  15.075  66.770  1.00  0.00    -0.241 C  
HETATM   32  C   UNL     1      -8.348  15.734  66.644  1.00  0.00    -0.319 C  
HETATM   33  C   UNL     1      -8.136  16.861  67.651  1.00  0.00    -0.193 C  
HETATM   34  C   UNL     1      -8.400  16.389  69.076  1.00  0.00    -0.225 C  
HETATM   35  C   UNL     1      -9.791  15.782  69.220  1.00  0.00    -0.265 C  
HETATM   36  C   UNL     1     -10.025  14.658  68.213  1.00  0.00    -0.222 C  
ENDBRANCH  29  31
ENDBRANCH  27  29
ENDBRANCH  25  27
ENDBRANCH  22  25
ENDBRANCH  19  22
ENDBRANCH  15  16
ENDBRANCH  14  15
ENDBRANCH  13  14
ENDBRANCH   4  10
ENDBRANCH   2   3
TORSDOF 10
ENDMDL
MODEL        3
REMARK 921   NORMALIZED FREE ENERGY PREDICTED BY IDOCK:   -7.01 KCAL/MOL
REMARK 922        TOTAL FREE ENERGY PREDICTED BY IDOCK:  -13.08 KCAL/MOL
REMARK 923 INTER-LIGAND FREE ENERGY PREDICTED BY IDOCK:  -12.08 KCAL/MOL
REMARK 924 INTRA-LIGAND FREE ENERGY PREDICTED BY IDOCK:   -1.00 KCAL/MOL
REMARK 927      BINDING AFFINITY PREDICTED BY RF-SCORE:    0.00 PKD
ROOT
HETATM    1  C   UNL     1     -10.686   5.958  68.026  1.00  0.00    -0.252 C  
HETATM    2  O   UNL     1     -11.423   6.514  69.114  1.00  0.00    -0.306 OA 
ENDROOT
BRANCH   2   3
HETATM    3  C   UNL     1     -11.164   5.973  70.347  1.00  0.00    -0.310 A  
HETATM    4  C   UNL     1     -11.738   6.562  71.493  1.00  0.00    -0.376 A  
HETATM    5  C   UNL     1     -11.463   6.014  72.759  1.00  0.00    -0.248 A  
HETATM    6  C   UNL     1     -10.271   4.900  70.500  1.00  0.00    -0.288 A  
HETATM    7 CL   UNL     1     -10.225   4.307  74.443  1.00  0.00    -0.246 Cl 
HETATM    8  C   UNL     1      -9.975   4.391  71.764  1.00  0.00    -0.257 A  
HETATM    9  C   UNL     1     -10.581   4.942  72.885  1.00  0.00    -0.219 A  
BRANCH   4  10
HETATM   10  C   UNL     1     -12.646   7.753  71.397  1.00  0.00    -0.317 C  
HETATM   11  H   UNL     1     -11.010   9.043  71.264  1.00  0.00     0.000 HD 
HETATM   12  O   UNL     1     -13.863   7.645  71.473  1.00  0.00    -0.383 OA 
HETATM   13  N   UNL     1     -12.026   8.981  71.207  1.00  0.00    -0.298 N  
BRANCH  13  14
HETATM   14  C   UNL     1     -12.798  10.179  70.931  1.00  0.00    -0.355 C  
BRANCH  14  15
HETATM   15  C   UNL     1     -11.939  11.445  70.820  1.00  0.00    -0.355 C  
BRANCH  15  16
HETATM   16  C   UNL     1     -11.795  12.023  69.424  1.00  0.00    -0.384 A  
HETATM   17  C   UNL     1     -12.013  13.379  69.128  1.00  0.00    -0.363 A  
HETATM   18  C   UNL     1     -11.941  13.850  67.813  1.00  0.00    -0.390 A  
HETATM   19  C   UNL     1     -11.637  12.969  66.776  1.00  0.00    -0.368 A  
HETATM   20  C   UNL     1     -11.454  11.158  68.371  1.00  0.00    -0.377 A  
HETATM   21  C   UNL     1     -11.389  11.621  67.052  1.00  0.00    -0.373 A  
BRANCH  19  22
HETATM   22  S   UNL     1     -11.720  13.539  65.093  1.00  0.00    -0.338 S  
HETATM   23  O   UNL     1     -13.012  14.174  64.920  1.00  0.00    -0.705 OA 
HETATM   24  O   UNL     1     -11.304  12.474  64.210  1.00  0.00    -0.319 OA 
BRANCH  22  25
HETATM   25  N   UNL     1     -10.618  14.782  65.018  1.00  0.00    -0.414 N  
HETATM   26  H   UNL     1      -9.627  14.548  65.079  1.00  0.00     0.000 HD 
BRANCH  25  27
HETATM   27  C   UNL     1     -10.964  16.115  64.878  1.00  0.00    -0.349 C  
HETATM   28  O   UNL     1     -11.424  16.578  63.851  1.00  0.00    -1.145 OA 
BRANCH  27  29
HETATM   29  N   UNL     1     -10.719  16.855  66.002  1.00  0.00    -0.195 N  
HETATM   30  H   UNL     1     -11.271  16.701  66.846  1.00  0.00     0.000 HD 
BRANCH  29  31
HETATM   31  C   UNL     1      -9.666  17.862  65.992  1.00  0.00    -0.129 C  
HETATM   32  C   UNL     1     -10.204  19.245  66.375  1.00  0.00    -0.533 C  
HETATM   33  C   UNL     1     -10.502  19.372  67.867  1.00  0.00    -0.536 C  
HETATM   34  C   UNL     1      -9.290  18.992  68.709  1.00  0.00    -0.405 C  
HETATM   35  C   UNL     1      -8.784  17.594  68.371  1.00  0.00    -0.284 C  
HETATM   36  C   UNL     1      -8.490  17.445  66.880  1.00  0.00    -0.264 C  
ENDBRANCH  29  31
ENDBRANCH  27  29
ENDBRANCH  25  27
ENDBRANCH  22  25
ENDBRANCH  19  22
ENDBRANCH  15  16
ENDBRANCH  14  15
ENDBRANCH  13  14
ENDBRANCH   4  10
ENDBRANCH   2   3
TORSDOF 10
ENDMDL
MODEL        4
REMARK 921   NORMALIZED FREE ENERGY PREDICTED BY IDOCK:   -7.01 KCAL/MOL
REMARK 922        TOTAL FREE ENERGY PREDICTED BY IDOCK:  -13.08 KCAL/MOL
REMARK 923 INTER-LIGAND FREE ENERGY PREDICTED BY IDOCK:  -11.21 KCAL/MOL
REMARK 924 INTRA-LIGAND FREE ENERGY PREDICTED BY IDOCK:   -1.87 KCAL/MOL
REMARK 927      BINDING AFFINITY PREDICTED BY RF-SCORE:    0.00 PKD
ROOT
HETATM    1  C   UNL     1     -12.397   7.003  71.765  1.00  0.00    -0.354 C  
HETATM    2  O   UNL     1     -11.525   7.716  70.889  1.00  0.00    -0.277 OA 
ENDROOT
BRANCH   2   3
HETATM    3  C   UNL     1     -11.786   9.055  70.749  1.00  0.00    -0.206 A  
HETATM    4  C   UNL     1     -11.161   9.775  69.709  1.00  0.00    -0.242 A  
HETATM    5  C   UNL     1     -11.421  11.150  69.572  1.00  0.00    -0.374 A  
HETATM    6  C   UNL     1     -12.592   9.741  71.671  1.00  0.00    -0.509 A  
HETATM    7 CL   UNL     1     -12.510  13.498  70.336  1.00  0.00    -0.376 Cl 
HETATM    8  C   UNL     1     -12.810  11.113  71.548  1.00  0.00    -0.542 A  
HETATM    9  C   UNL     1     -12.233  11.808  70.494  1.00  0.00    -0.347 A  
BRANCH   4  10
HETATM   10  C   UNL     1     -10.235   9.108  68.735  1.00  0.00    -0.210 C  
HETATM   11  H   UNL     1      -8.699  10.436  69.220  1.00  0.00     0.000 HD 
HETATM   12  O   UNL     1     -10.604   8.183  68.023  1.00  0.00    -0.200 OA 
HETATM   13  N   UNL     1      -8.935   9.594  68.695  1.00  0.00    -0.127 N  
BRANCH  13  14
HETATM   14  C   UNL     1      -7.904   8.926  67.922  1.00  0.00    -0.102 C  
BRANCH  14  15
HETATM   15  C   UNL     1      -7.647   9.578  66.558  1.00  0.00    -0.094 C  
BRANCH  15  16
HETATM   16  C   UNL     1      -8.720  10.539  66.074  1.00  0.00    -0.174 A  
HETATM   17  C   UNL     1      -8.902  11.822  66.615  1.00  0.00    -0.189 A  
HETATM   18  C   UNL     1      -9.950  12.642  66.187  1.00  0.00    -0.269 A  
HETATM   19  C   UNL     1     -10.827  12.189  65.202  1.00  0.00    -0.300 A  
HETATM   20  C   UNL     1      -9.591  10.115  65.057  1.00  0.00    -0.362 A  
HETATM   21  C   UNL     1     -10.648  10.926  64.632  1.00  0.00    -0.332 A  
BRANCH  19  22
HETATM   22  S   UNL     1     -12.257  13.165  64.791  1.00  0.00    -0.436 S  
HETATM   23  O   UNL     1     -12.709  13.797  66.016  1.00  0.00    -0.444 OA 
HETATM   24  O   UNL     1     -13.166  12.365  64.002  1.00  0.00    -0.748 OA 
BRANCH  22  25
HETATM   25  N   UNL     1     -11.663  14.408  63.861  1.00  0.00    -0.657 N  
HETATM   26  H   UNL     1     -11.588  14.259  62.855  1.00  0.00     0.000 HD 
BRANCH  25  27
HETATM   27  C   UNL     1     -11.265  15.632  64.369  1.00  0.00    -0.236 C  
HETATM   28  O   UNL     1     -11.753  16.689  64.015  1.00  0.00    -1.143 OA 
BRANCH  27  29
HETATM   29  N   UNL     1     -10.260  15.530  65.291  1.00  0.00    -0.362 N  
HETATM   30  H   UNL     1      -9.735  14.660  65.380  1.00  0.00     0.000 HD 
BRANCH  29  31
HETATM   31  C   UNL     1      -9.940  16.666  66.144  1.00  0.00    -0.337 C  
HETATM   32  C   UNL     1     -10.673  16.588  67.488  1.00  0.00    -0.283 C  
HETATM   33  C   UNL     1     -10.078  15.541  68.426  1.00  0.00    -0.214 C  
HETATM   34  C   UNL     1      -8.581  15.753  68.618  1.00  0.00    -0.194 C  
HETATM   35  C   UNL     1      -7.839  15.777  67.286  1.00  0.00    -0.226 C  
HETATM   36  C   UNL     1      -8.427  16.813  66.330  1.00  0.00    -0.342 C  
ENDBRANCH  29  31
ENDBRANCH  27  29
ENDBRANCH  25  27
ENDBRANCH  22  25
ENDBRANCH  19  22
ENDBRANCH  15  16
ENDBRANCH  14  15
ENDBRANCH  13  14
ENDBRANCH   4  10
ENDBRANCH   2   3
TORSDOF 10
ENDMDL
MODEL        5
REMARK 921   NORMALIZED FREE ENERGY PREDICTED BY IDOCK:   -7.01 KCAL/MOL
REMARK 922        TOTAL FREE ENERGY PREDICTED BY IDOCK:  -13.08 KCAL/MOL
REMARK 923 INTER-LIGAND FREE ENERGY PREDICTED BY IDOCK:  -11.66 KCAL/MOL
REMARK 924 INTRA-LIGAND FREE ENERGY PREDICTED BY IDOCK:   -1.42 KCAL/MOL
REMARK 927      BINDING AFFINITY PREDICTED BY RF-SCORE:    0.00 PKD
ROOT
HETATM    1  C   UNL     1     -10.194   6.596  74.097  1.00  0.00    -0.363 C  
HETATM    2  O   UNL     1     -11.179   5.949  73.293  1.00  0.00    -0.227 OA 
ENDROOT
BRANCH   2   3
HETATM    3  C   UNL     1     -10.802   5.660  72.007  1.00  0.00    -0.242 A  
HETATM    4  C   UNL     1     -11.386   6.373  70.939  1.00  0.00    -0.398 A  
HETATM    5  C   UNL     1     -11.007   6.068  69.619  1.00  0.00    -0.470 A  
HETATM    6  C   UNL     1      -9.913   4.610  71.726  1.00  0.00    -0.260 A  
HETATM    7 CL   UNL     1      -9.691   4.642  67.744  1.00  0.00    -0.207 Cl 
HETATM    8  C   UNL     1      -9.576   4.291  70.411  1.00  0.00    -0.265 A  
HETATM    9  C   UNL     1     -10.115   5.028  69.366  1.00  0.00    -0.218 A  
BRANCH   4  10
HETATM   10  C   UNL     1     -12.394   7.460  71.175  1.00  0.00    -0.314 C  
HETATM   11  H   UNL     1     -10.906   8.921  71.067  1.00  0.00     0.000 HD 
HETATM   12  O   UNL     1     -13.574   7.212  71.386  1.00  0.00    -0.375 OA 
HETATM   13  N   UNL     1     -11.912   8.761  71.131  1.00  0.00    -0.292 N  
BRANCH  13  14
HETATM   14  C   UNL     1     -12.812   9.900  71.175  1.00  0.00    -0.368 C  
BRANCH  14  15
HETATM   15  C   UNL     1     -12.094  11.248  71.042  1.00  0.00    -0.335 C  
BRANCH  15  16
HETATM   16  C   UNL     1     -11.917  11.763  69.624  1.00  0.00    -0.378 A  
HETATM   17  C   UNL     1     -12.089  13.111  69.269  1.00  0.00    -0.270 A  
HETATM   18  C   UNL     1     -11.987  13.524  67.937  1.00  0.00    -0.372 A  
HETATM   19  C   UNL     1     -11.701  12.591  66.942  1.00  0.00    -0.377 A  
HETATM   20  C   UNL     1     -11.592  10.844  68.612  1.00  0.00    -0.373 A  
HETATM   21  C   UNL     1     -11.499  11.249  67.277  1.00  0.00    -0.265 A  
BRANCH  19  22
HETATM   22  S   UNL     1     -11.747  13.093  65.236  1.00  0.00    -0.366 S  
HETATM   23  O   UNL     1     -12.911  12.467  64.637  1.00  0.00    -0.803 OA 
HETATM   24  O   UNL     1     -10.438  12.911  64.652  1.00  0.00    -0.327 OA 
BRANCH  22  25
HETATM   25  N   UNL     1     -12.110  14.714  65.286  1.00  0.00    -0.318 N  
HETATM   26  H   UNL     1     -13.001  14.993  65.696  1.00  0.00     0.000 HD 
BRANCH  25  27
HETATM   27  C   UNL     1     -11.276  15.708  64.804  1.00  0.00    -0.382 C  
HETATM   28  O   UNL     1     -11.599  16.477  63.918  1.00  0.00    -1.175 OA 
BRANCH  27  29
HETATM   29  N   UNL     1     -10.051  15.724  65.413  1.00  0.00    -0.340 N  
HETATM   30  H   UNL     1      -9.463  14.890  65.400  1.00  0.00     0.000 HD 
BRANCH  29  31
HETATM   31  C   UNL     1      -9.588  16.933  66.081  1.00  0.00    -0.254 C  
HETATM   32  C   UNL     1     -10.472  17.289  67.281  1.00  0.00    -0.319 C  
HETATM   33  C   UNL     1     -10.240  16.373  68.480  1.00  0.00    -0.257 C  
HETATM   34  C   UNL     1      -8.766  16.327  68.867  1.00  0.00    -0.253 C  
HETATM   35  C   UNL     1      -7.887  15.919  67.689  1.00  0.00    -0.164 C  
HETATM   36  C   UNL     1      -8.113  16.818  66.476  1.00  0.00    -0.329 C  
ENDBRANCH  29  31
ENDBRANCH  27  29
ENDBRANCH  25  27
ENDBRANCH  22  25
ENDBRANCH  19  22
ENDBRANCH  15  16
ENDBRANCH  14  15
ENDBRANCH  13  14
ENDBRANCH   4  10
ENDBRANCH   2   3
TORSDOF 10
ENDMDL
MODEL        6
REMARK 921   NORMALIZED FREE ENERGY PREDICTED BY IDOCK:   -6.80 KCAL/MOL
REMARK 922        TOTAL FREE ENERGY PREDICTED BY IDOCK:  -12.74 KCAL/MOL
REMARK 923 INTER-LIGAND FREE ENERGY PREDICTED BY IDOCK:  -11.12 KCAL/MOL
REMARK 924 INTRA-LIGAND FREE ENERGY PREDICTED BY IDOCK:   -1.62 KCAL/MOL
REMARK 927      BINDING AFFINITY PREDICTED BY RF-SCORE:    0.00 PKD
ROOT
HETATM    1  C   UNL     1     -10.214  17.859  66.203  1.00  0.00    -0.343 C  
HETATM    2  O   UNL     1     -10.320  16.436  66.204  1.00  0.00    -0.321 OA 
ENDROOT
BRANCH   2   3
HETATM    3  C   UNL     1     -10.786  15.875  67.365  1.00  0.00    -0.313 A  
HETATM    4  C   UNL     1     -11.599  14.724  67.298  1.00  0.00    -0.385 A  
HETATM    5  C   UNL     1     -12.086  14.155  68.489  1.00  0.00    -0.312 A  
HETATM    6  C   UNL     1     -10.544  16.472  68.613  1.00  0.00    -0.316 A  
HETATM    7 CL   UNL     1     -12.458  14.073  71.160  1.00  0.00    -0.426 Cl 
HETATM    8  C   UNL     1     -11.066  15.921  69.783  1.00  0.00    -0.324 A  
HETATM    9  C   UNL     1     -11.824  14.760  69.716  1.00  0.00    -0.316 A  
BRANCH   4  10
HETATM   10  C   UNL     1     -11.948  14.081  65.987  1.00  0.00    -0.416 C  
HETATM   11  H   UNL     1      -9.937  13.672  65.605  1.00  0.00     0.000 HD 
HETATM   12  O   UNL     1     -13.099  14.046  65.572  1.00  0.00    -0.713 OA 
HETATM   13  N   UNL     1     -10.893  13.522  65.280  1.00  0.00    -0.299 N  
BRANCH  13  14
HETATM   14  C   UNL     1     -11.122  12.727  64.087  1.00  0.00    -0.389 C  
BRANCH  14  15
HETATM   15  C   UNL     1     -10.005  11.715  63.805  1.00  0.00    -0.378 C  
BRANCH  15  16
HETATM   16  C   UNL     1      -9.909  10.551  64.776  1.00  0.00    -0.387 A  
HETATM   17  C   UNL     1     -10.614  10.503  65.990  1.00  0.00    -0.164 A  
HETATM   18  C   UNL     1     -10.435   9.445  66.885  1.00  0.00    -0.281 A  
HETATM   19  C   UNL     1      -9.555   8.411  66.571  1.00  0.00    -0.236 A  
HETATM   20  C   UNL     1      -9.054   9.482  64.460  1.00  0.00    -0.250 A  
HETATM   21  C   UNL     1      -8.864   8.425  65.356  1.00  0.00    -0.146 A  
BRANCH  19  22
HETATM   22  S   UNL     1      -9.203   7.162  67.788  1.00  0.00    -0.124 S  
HETATM   23  O   UNL     1      -8.673   7.841  68.956  1.00  0.00    -0.134 OA 
HETATM   24  O   UNL     1      -8.462   6.089  67.167  1.00  0.00    -0.106 OA 
BRANCH  22  25
HETATM   25  N   UNL     1     -10.697   6.604  68.259  1.00  0.00    -0.242 N  
HETATM   26  H   UNL     1     -11.366   6.354  67.531  1.00  0.00     0.000 HD 
BRANCH  25  27
HETATM   27  C   UNL     1     -11.087   6.457  69.579  1.00  0.00    -0.396 C  
HETATM   28  O   UNL     1     -10.845   5.462  70.237  1.00  0.00    -0.266 OA 
BRANCH  27  29
HETATM   29  N   UNL     1     -11.783   7.533  70.056  1.00  0.00    -0.488 N  
HETATM   30  H   UNL     1     -12.705   7.753  69.679  1.00  0.00     0.000 HD 
BRANCH  29  31
HETATM   31  C   UNL     1     -11.205   8.365  71.104  1.00  0.00    -0.263 C  
HETATM   32  C   UNL     1     -10.985   9.804  70.626  1.00  0.00    -0.398 C  
HETATM   33  C   UNL     1     -12.285  10.598  70.521  1.00  0.00    -0.449 C  
HETATM   34  C   UNL     1     -13.067  10.558  71.829  1.00  0.00    -0.570 C  
HETATM   35  C   UNL     1     -13.337   9.126  72.281  1.00  0.00    -0.540 C  
HETATM   36  C   UNL     1     -12.048   8.313  72.381  1.00  0.00    -0.430 C  
ENDBRANCH  29  31
ENDBRANCH  27  29
ENDBRANCH  25  27
ENDBRANCH  22  25
ENDBRANCH  19  22
ENDBRANCH  15  16
ENDBRANCH  14  15
ENDBRANCH  13  14
ENDBRANCH   4  10
ENDBRANCH   2   3
TORSDOF 10
ENDMDL
MODEL        7
REMARK 921   NORMALIZED FREE ENERGY PREDICTED BY IDOCK:   -6.78 KCAL/MOL
REMARK 922        TOTAL FREE ENERGY PREDICTED BY IDOCK:  -12.72 KCAL/MOL
REMARK 923 INTER-LIGAND FREE ENERGY PREDICTED BY IDOCK:  -11.16 KCAL/MOL
REMARK 924 INTRA-LIGAND FREE ENERGY PREDICTED BY IDOCK:   -1.56 KCAL/MOL
REMARK 927      BINDING AFFINITY PREDICTED BY RF-SCORE:    0.00 PKD
ROOT
HETATM    1  C   UNL     1     -10.470  19.787  66.101  1.00  0.00    -0.509 C  
HETATM    2  O   UNL     1     -10.429  18.399  65.777  1.00  0.00    -0.594 OA 
ENDROOT
BRANCH   2   3
HETATM    3  C   UNL     1      -9.324  17.717  66.218  1.00  0.00    -0.197 A  
HETATM    4  C   UNL     1      -9.428  16.335  66.485  1.00  0.00    -0.289 A  
HETATM    5  C   UNL     1      -8.297  15.638  66.949  1.00  0.00    -0.287 A  
HETATM    6  C   UNL     1      -8.119  18.381  66.493  1.00  0.00    -0.291 A  
HETATM    7 CL   UNL     1      -5.746  15.457  67.808  1.00  0.00    -0.153 Cl 
HETATM    8  C   UNL     1      -7.017  17.686  66.991  1.00  0.00    -0.209 A  
HETATM    9  C   UNL     1      -7.108  16.317  67.205  1.00  0.00    -0.209 A  
BRANCH   4  10
HETATM   10  C   UNL     1     -10.711  15.585  66.275  1.00  0.00    -0.307 C  
HETATM   11  H   UNL     1     -10.496  15.715  64.203  1.00  0.00     0.000 HD 
HETATM   12  O   UNL     1     -11.414  15.234  67.213  1.00  0.00    -0.319 OA 
HETATM   13  N   UNL     1     -11.047  15.307  64.957  1.00  0.00    -0.408 N  
BRANCH  13  14
HETATM   14  C   UNL     1     -12.170  14.445  64.633  1.00  0.00    -0.464 C  
BRANCH  14  15
HETATM   15  C   UNL     1     -11.770  13.199  63.834  1.00  0.00    -0.515 C  
BRANCH  15  16
HETATM   16  C   UNL     1     -11.065  12.109  64.622  1.00  0.00    -0.366 A  
HETATM   17  C   UNL     1     -10.221  11.155  64.029  1.00  0.00    -0.419 A  
HETATM   18  C   UNL     1      -9.653  10.126  64.786  1.00  0.00    -0.378 A  
HETATM   19  C   UNL     1      -9.915  10.044  66.153  1.00  0.00    -0.256 A  
HETATM   20  C   UNL     1     -11.287  12.031  66.007  1.00  0.00    -0.398 A  
HETATM   21  C   UNL     1     -10.730  10.999  66.768  1.00  0.00    -0.319 A  
BRANCH  19  22
HETATM   22  S   UNL     1      -9.332   8.636  67.071  1.00  0.00    -0.170 S  
HETATM   23  O   UNL     1      -8.577   9.144  68.200  1.00  0.00    -0.127 OA 
HETATM   24  O   UNL     1      -8.735   7.689  66.158  1.00  0.00    -0.143 OA 
BRANCH  22  25
HETATM   25  N   UNL     1     -10.704   7.973  67.735  1.00  0.00    -0.464 N  
HETATM   26  H   UNL     1     -11.572   8.032  67.202  1.00  0.00     0.000 HD 
BRANCH  25  27
HETATM   27  C   UNL     1     -10.741   7.346  68.969  1.00  0.00    -0.148 C  
HETATM   28  O   UNL     1     -10.088   6.352  69.229  1.00  0.00    -0.161 OA 
BRANCH  27  29
HETATM   29  N   UNL     1     -11.596   7.946  69.851  1.00  0.00    -0.445 N  
HETATM   30  H   UNL     1     -12.604   7.830  69.745  1.00  0.00     0.000 HD 
BRANCH  29  31
HETATM   31  C   UNL     1     -11.065   8.750  70.944  1.00  0.00    -0.268 C  
HETATM   32  C   UNL     1     -10.873  10.212  70.528  1.00  0.00    -0.340 C  
HETATM   33  C   UNL     1     -12.191  10.975  70.424  1.00  0.00    -0.461 C  
HETATM   34  C   UNL     1     -13.001  10.863  71.710  1.00  0.00    -0.557 C  
HETATM   35  C   UNL     1     -13.242   9.409  72.099  1.00  0.00    -0.541 C  
HETATM   36  C   UNL     1     -11.935   8.626  72.198  1.00  0.00    -0.449 C  
ENDBRANCH  29  31
ENDBRANCH  27  29
ENDBRANCH  25  27
ENDBRANCH  22  25
ENDBRANCH  19  22
ENDBRANCH  15  16
ENDBRANCH  14  15
ENDBRANCH  13  14
ENDBRANCH   4  10
ENDBRANCH   2   3
TORSDOF 10
ENDMDL
MODEL        8
REMARK 921   NORMALIZED FREE ENERGY PREDICTED BY IDOCK:   -6.78 KCAL/MOL
REMARK 922        TOTAL FREE ENERGY PREDICTED BY IDOCK:  -12.71 KCAL/MOL
REMARK 923 INTER-LIGAND FREE ENERGY PREDICTED BY IDOCK:  -11.23 KCAL/MOL
REMARK 924 INTRA-LIGAND FREE ENERGY PREDICTED BY IDOCK:   -1.48 KCAL/MOL
REMARK 927      BINDING AFFINITY PREDICTED BY RF-SCORE:    0.00 PKD
ROOT
HETATM    1  C   UNL     1     -10.240   6.505  67.996  1.00  0.00    -0.164 C  
HETATM    2  O   UNL     1     -11.301   6.200  68.900  1.00  0.00    -0.367 OA 
ENDROOT
BRANCH   2   3
HETATM    3  C   UNL     1     -10.919   5.729  70.129  1.00  0.00    -0.298 A  
HETATM    4  C   UNL     1     -11.319   6.424  71.290  1.00  0.00    -0.361 A  
HETATM    5  C   UNL     1     -10.917   5.946  72.551  1.00  0.00    -0.307 A  
HETATM    6  C   UNL     1     -10.064   4.622  70.253  1.00  0.00    -0.276 A  
HETATM    7 CL   UNL     1      -9.563   4.290  74.196  1.00  0.00    -0.120 Cl 
HETATM    8  C   UNL     1      -9.640   4.182  71.507  1.00  0.00    -0.238 A  
HETATM    9  C   UNL     1     -10.077   4.839  72.649  1.00  0.00    -0.176 A  
BRANCH   4  10
HETATM   10  C   UNL     1     -12.176   7.654  71.216  1.00  0.00    -0.315 C  
HETATM   11  H   UNL     1     -10.493   8.862  70.960  1.00  0.00     0.000 HD 
HETATM   12  O   UNL     1     -13.390   7.604  71.363  1.00  0.00    -0.337 OA 
HETATM   13  N   UNL     1     -11.513   8.847  70.963  1.00  0.00    -0.282 N  
BRANCH  13  14
HETATM   14  C   UNL     1     -12.244  10.073  70.701  1.00  0.00    -0.269 C  
BRANCH  14  15
HETATM   15  C   UNL     1     -11.355  11.215  70.192  1.00  0.00    -0.295 C  
BRANCH  15  16
HETATM   16  C   UNL     1     -11.555  11.607  68.738  1.00  0.00    -0.374 A  
HETATM   17  C   UNL     1     -11.271  10.747  67.664  1.00  0.00    -0.370 A  
HETATM   18  C   UNL     1     -11.400  11.179  66.341  1.00  0.00     0.001 A  
HETATM   19  C   UNL     1     -11.827  12.479  66.075  1.00  0.00    -0.418 A  
HETATM   20  C   UNL     1     -12.019  12.901  68.449  1.00  0.00    -0.289 A  
HETATM   21  C   UNL     1     -12.141  13.343  67.128  1.00  0.00    -0.367 A  
BRANCH  19  22
HETATM   22  S   UNL     1     -11.820  13.074  64.398  1.00  0.00    -0.414 S  
HETATM   23  O   UNL     1     -12.940  12.451  63.719  1.00  0.00    -0.751 OA 
HETATM   24  O   UNL     1     -10.484  12.963  63.861  1.00  0.00    -0.413 OA 
BRANCH  22  25
HETATM   25  N   UNL     1     -12.234  14.680  64.522  1.00  0.00    -0.506 N  
HETATM   26  H   UNL     1     -13.225  14.916  64.567  1.00  0.00     0.000 HD 
BRANCH  25  27
HETATM   27  C   UNL     1     -11.316  15.714  64.568  1.00  0.00    -0.320 C  
HETATM   28  O   UNL     1     -11.479  16.775  63.995  1.00  0.00    -1.198 OA 
BRANCH  27  29
HETATM   29  N   UNL     1     -10.204  15.412  65.305  1.00  0.00    -0.366 N  
HETATM   30  H   UNL     1      -9.881  14.447  65.371  1.00  0.00     0.000 HD 
BRANCH  29  31
HETATM   31  C   UNL     1      -9.481  16.472  65.995  1.00  0.00    -0.282 C  
HETATM   32  C   UNL     1     -10.387  17.235  66.966  1.00  0.00    -0.318 C  
HETATM   33  C   UNL     1     -10.703  16.439  68.230  1.00  0.00    -0.337 C  
HETATM   34  C   UNL     1      -9.429  15.958  68.916  1.00  0.00    -0.234 C  
HETATM   35  C   UNL     1      -8.548  15.152  67.968  1.00  0.00    -0.156 C  
HETATM   36  C   UNL     1      -8.231  15.928  66.692  1.00  0.00    -0.317 C  
ENDBRANCH  29  31
ENDBRANCH  27  29
ENDBRANCH  25  27
ENDBRANCH  22  25
ENDBRANCH  19  22
ENDBRANCH  15  16
ENDBRANCH  14  15
ENDBRANCH  13  14
ENDBRANCH   4  10
ENDBRANCH   2   3
TORSDOF 10
ENDMDL
MODEL        9
REMARK 921   NORMALIZED FREE ENERGY PREDICTED BY IDOCK:   -6.77 KCAL/MOL
REMARK 922        TOTAL FREE ENERGY PREDICTED BY IDOCK:  -12.70 KCAL/MOL
REMARK 923 INTER-LIGAND FREE ENERGY PREDICTED BY IDOCK:  -11.00 KCAL/MOL
REMARK 924 INTRA-LIGAND FREE ENERGY PREDICTED BY IDOCK:   -1.70 KCAL/MOL
REMARK 927      BINDING AFFINITY PREDICTED BY RF-SCORE:    0.00 PKD
ROOT
HETATM    1  C   UNL     1     -10.253   6.597  73.932  1.00  0.00    -0.354 C  
HETATM    2  O   UNL     1     -11.152   5.744  73.224  1.00  0.00    -0.263 OA 
ENDROOT
BRANCH   2   3
HETATM    3  C   UNL     1     -10.589   4.972  72.241  1.00  0.00    -0.206 A  
HETATM    4  C   UNL     1     -10.583   5.444  70.912  1.00  0.00    -0.283 A  
HETATM    5  C   UNL     1     -10.016   4.646  69.901  1.00  0.00    -0.296 A  
HETATM    6  C   UNL     1     -10.100   3.684  72.515  1.00  0.00    -0.237 A  
HETATM    7 CL   UNL     1      -8.872   2.397  68.946  1.00  0.00    -0.133 Cl 
HETATM    8  C   UNL     1      -9.577   2.887  71.498  1.00  0.00    -0.225 A  
HETATM    9  C   UNL     1      -9.527   3.376  70.199  1.00  0.00    -0.173 A  
BRANCH   4  10
HETATM   10  C   UNL     1     -11.154   6.783  70.548  1.00  0.00    -0.298 C  
HETATM   11  H   UNL     1      -9.265   7.666  70.660  1.00  0.00     0.000 HD 
HETATM   12  O   UNL     1     -12.355   6.950  70.382  1.00  0.00    -0.254 OA 
HETATM   13  N   UNL     1     -10.240   7.818  70.402  1.00  0.00    -0.195 N  
BRANCH  13  14
HETATM   14  C   UNL     1     -10.646   9.115  69.890  1.00  0.00    -0.230 C  
BRANCH  14  15
HETATM   15  C   UNL     1      -9.720   9.652  68.792  1.00  0.00    -0.167 C  
BRANCH  15  16
HETATM   16  C   UNL     1     -10.353  10.632  67.819  1.00  0.00    -0.239 A  
HETATM   17  C   UNL     1     -11.284  11.609  68.208  1.00  0.00    -0.320 A  
HETATM   18  C   UNL     1     -11.894  12.439  67.264  1.00  0.00    -0.357 A  
HETATM   19  C   UNL     1     -11.572  12.309  65.914  1.00  0.00    -0.393 A  
HETATM   20  C   UNL     1     -10.014  10.540  66.458  1.00  0.00    -0.266 A  
HETATM   21  C   UNL     1     -10.628  11.362  65.507  1.00  0.00    -0.328 A  
BRANCH  19  22
HETATM   22  S   UNL     1     -12.480  13.247  64.705  1.00  0.00    -0.317 S  
HETATM   23  O   UNL     1     -13.436  14.063  65.427  1.00  0.00    -0.679 OA 
HETATM   24  O   UNL     1     -12.922  12.362  63.652  1.00  0.00    -0.758 OA 
BRANCH  22  25
HETATM   25  N   UNL     1     -11.372  14.325  64.092  1.00  0.00    -0.608 N  
HETATM   26  H   UNL     1     -10.768  14.011  63.333  1.00  0.00     0.000 HD 
BRANCH  25  27
HETATM   27  C   UNL     1     -11.220  15.622  64.551  1.00  0.00    -0.325 C  
HETATM   28  O   UNL     1     -11.505  16.600  63.886  1.00  0.00    -1.186 OA 
BRANCH  27  29
HETATM   29  N   UNL     1     -10.703  15.687  65.816  1.00  0.00    -0.336 N  
HETATM   30  H   UNL     1     -11.319  15.846  66.613  1.00  0.00     0.000 HD 
BRANCH  29  31
HETATM   31  C   UNL     1      -9.269  15.529  66.022  1.00  0.00    -0.326 C  
HETATM   32  C   UNL     1      -8.602  16.857  66.393  1.00  0.00    -0.328 C  
HETATM   33  C   UNL     1      -8.900  17.288  67.827  1.00  0.00    -0.234 C  
HETATM   34  C   UNL     1      -8.547  16.189  68.822  1.00  0.00    -0.236 C  
HETATM   35  C   UNL     1      -9.253  14.879  68.489  1.00  0.00    -0.192 C  
HETATM   36  C   UNL     1      -8.974  14.436  67.054  1.00  0.00    -0.257 C  
ENDBRANCH  29  31
ENDBRANCH  27  29
ENDBRANCH  25  27
ENDBRANCH  22  25
ENDBRANCH  19  22
ENDBRANCH  15  16
ENDBRANCH  14  15
ENDBRANCH  13  14
ENDBRANCH   4  10
ENDBRANCH   2   3
TORSDOF 10
ENDMDL
MODEL       10
REMARK 921   NORMALIZED FREE ENERGY PREDICTED BY IDOCK:   -6.73 KCAL/MOL
REMARK 922        TOTAL FREE ENERGY PREDICTED BY IDOCK:  -12.64 KCAL/MOL
REMARK 923 INTER-LIGAND FREE ENERGY PREDICTED BY IDOCK:  -12.05 KCAL/MOL
REMARK 924 INTRA-LIGAND FREE ENERGY PREDICTED BY IDOCK:   -0.58 KCAL/MOL
REMARK 927      BINDING AFFINITY PREDICTED BY RF-SCORE:    0.00 PKD
ROOT
HETATM    1  C   UNL     1     -11.683   6.178  72.287  1.00  0.00    -0.302 C  
HETATM    2  O   UNL     1     -11.428   6.787  71.022  1.00  0.00    -0.287 OA 
ENDROOT
BRANCH   2   3
HETATM    3  C   UNL     1     -11.705   8.127  70.940  1.00  0.00    -0.244 A  
HETATM    4  C   UNL     1     -11.055   8.907  69.960  1.00  0.00    -0.180 A  
HETATM    5  C   UNL     1     -11.331  10.284  69.882  1.00  0.00    -0.354 A  
HETATM    6  C   UNL     1     -12.553   8.755  71.865  1.00  0.00    -0.428 A  
HETATM    7 CL   UNL     1     -12.483  12.575  70.722  1.00  0.00    -0.410 Cl 
HETATM    8  C   UNL     1     -12.788  10.128  71.803  1.00  0.00    -0.554 A  
HETATM    9  C   UNL     1     -12.186  10.883  70.806  1.00  0.00    -0.383 A  
BRANCH   4  10
HETATM   10  C   UNL     1     -10.086   8.302  68.987  1.00  0.00    -0.202 C  
HETATM   11  H   UNL     1     -11.526   8.319  67.476  1.00  0.00     0.000 HD 
HETATM   12  O   UNL     1      -8.954   7.978  69.321  1.00  0.00    -0.147 OA 
HETATM   13  N   UNL     1     -10.544   8.143  67.686  1.00  0.00    -0.219 N  
BRANCH  13  14
HETATM   14  C   UNL     1      -9.651   7.729  66.618  1.00  0.00    -0.220 C  
BRANCH  14  15
HETATM   15  C   UNL     1      -8.913   8.898  65.954  1.00  0.00    -0.244 C  
BRANCH  15  16
HETATM   16  C   UNL     1      -9.784  10.060  65.509  1.00  0.00    -0.355 A  
HETATM   17  C   UNL     1      -9.906  10.459  64.168  1.00  0.00    -0.379 A  
HETATM   18  C   UNL     1     -10.662  11.581  63.817  1.00  0.00    -0.474 A  
HETATM   19  C   UNL     1     -11.317  12.314  64.806  1.00  0.00    -0.323 A  
HETATM   20  C   UNL     1     -10.480  10.789  66.487  1.00  0.00    -0.299 A  
HETATM   21  C   UNL     1     -11.231  11.919  66.143  1.00  0.00    -0.387 A  
BRANCH  19  22
HETATM   22  S   UNL     1     -12.128  13.837  64.371  1.00  0.00    -0.426 S  
HETATM   23  O   UNL     1     -13.179  14.055  65.347  1.00  0.00    -0.761 OA 
HETATM   24  O   UNL     1     -12.433  13.825  62.959  1.00  0.00    -0.712 OA 
BRANCH  22  25
HETATM   25  N   UNL     1     -11.000  15.017  64.683  1.00  0.00    -0.621 N  
HETATM   26  H   UNL     1     -10.384  15.304  63.923  1.00  0.00     0.000 HD 
BRANCH  25  27
HETATM   27  C   UNL     1     -10.847  15.634  65.913  1.00  0.00    -0.293 C  
HETATM   28  O   UNL     1     -10.975  15.048  66.972  1.00  0.00    -0.307 OA 
BRANCH  27  29
HETATM   29  N   UNL     1     -10.556  16.967  65.813  1.00  0.00    -0.298 N  
HETATM   30  H   UNL     1     -10.568  17.425  64.901  1.00  0.00     0.000 HD 
BRANCH  29  31
HETATM   31  C   UNL     1     -10.230  17.730  67.010  1.00  0.00    -0.346 C  
HETATM   32  C   UNL     1      -8.732  17.675  67.324  1.00  0.00    -0.241 C  
HETATM   33  C   UNL     1      -7.897  18.537  66.380  1.00  0.00    -0.296 C  
HETATM   34  C   UNL     1      -8.406  19.973  66.342  1.00  0.00    -0.338 C  
HETATM   35  C   UNL     1      -9.885  20.037  65.976  1.00  0.00    -0.512 C  
HETATM   36  C   UNL     1     -10.736  19.172  66.903  1.00  0.00    -0.515 C  
ENDBRANCH  29  31
ENDBRANCH  27  29
ENDBRANCH  25  27
ENDBRANCH  22  25
ENDBRANCH  19  22
ENDBRANCH  15  16
ENDBRANCH  14  15
ENDBRANCH  13  14
ENDBRANCH   4  10
ENDBRANCH   2   3
TORSDOF 10
ENDMDL
MODEL       11
REMARK 921   NORMALIZED FREE ENERGY PREDICTED BY IDOCK:   -6.70 KCAL/MOL
REMARK 922        TOTAL FREE ENERGY PREDICTED BY IDOCK:  -12.59 KCAL/MOL
REMARK 923 INTER-LIGAND FREE ENERGY PREDICTED BY IDOCK:  -10.47 KCAL/MOL
REMARK 924 INTRA-LIGAND FREE ENERGY PREDICTED BY IDOCK:   -2.11 KCAL/MOL
REMARK 927      BINDING AFFINITY PREDICTED BY RF-SCORE:    0.00 PKD
ROOT
HETATM    1  C   UNL     1      -7.423   6.296  70.970  1.00  0.00    -0.085 C  
HETATM    2  O   UNL     1      -7.611   7.599  71.521  1.00  0.00    -0.077 OA 
ENDROOT
BRANCH   2   3
HETATM    3  C   UNL     1      -8.912   8.010  71.648  1.00  0.00    -0.150 A  
HETATM    4  C   UNL     1      -9.433   8.947  70.730  1.00  0.00    -0.280 A  
HETATM    5  C   UNL     1     -10.765   9.377  70.867  1.00  0.00    -0.393 A  
HETATM    6  C   UNL     1      -9.710   7.586  72.723  1.00  0.00    -0.239 A  
HETATM    7 CL   UNL     1     -13.156   9.499  72.113  1.00  0.00    -0.508 Cl 
HETATM    8  C   UNL     1     -11.016   8.051  72.871  1.00  0.00    -0.398 A  
HETATM    9  C   UNL     1     -11.541   8.934  71.937  1.00  0.00    -0.371 A  
BRANCH   4  10
HETATM   10  C   UNL     1      -8.605   9.488  69.601  1.00  0.00    -0.183 C  
HETATM   11  H   UNL     1      -9.091   7.848  68.404  1.00  0.00     0.000 HD 
HETATM   12  O   UNL     1      -7.954  10.518  69.714  1.00  0.00    -0.127 OA 
HETATM   13  N   UNL     1      -8.630   8.757  68.420  1.00  0.00    -0.133 N  
BRANCH  13  14
HETATM   14  C   UNL     1      -8.010   9.263  67.209  1.00  0.00    -0.106 C  
BRANCH  14  15
HETATM   15  C   UNL     1      -8.803   8.937  65.937  1.00  0.00    -0.215 C  
BRANCH  15  16
HETATM   16  C   UNL     1      -9.724  10.034  65.435  1.00  0.00    -0.368 A  
HETATM   17  C   UNL     1      -9.879  10.345  64.074  1.00  0.00    -0.355 A  
HETATM   18  C   UNL     1     -10.682  11.413  63.666  1.00  0.00    -0.470 A  
HETATM   19  C   UNL     1     -11.352  12.181  64.617  1.00  0.00    -0.326 A  
HETATM   20  C   UNL     1     -10.436  10.796  66.377  1.00  0.00    -0.293 A  
HETATM   21  C   UNL     1     -11.234  11.873  65.975  1.00  0.00    -0.377 A  
BRANCH  19  22
HETATM   22  S   UNL     1     -12.229  13.641  64.102  1.00  0.00    -0.352 S  
HETATM   23  O   UNL     1     -13.140  13.993  65.174  1.00  0.00    -0.776 OA 
HETATM   24  O   UNL     1     -12.721  13.449  62.757  1.00  0.00    -0.382 OA 
BRANCH  22  25
HETATM   25  N   UNL     1     -11.079  14.842  64.104  1.00  0.00    -0.492 N  
HETATM   26  H   UNL     1     -10.279  14.740  63.480  1.00  0.00     0.000 HD 
BRANCH  25  27
HETATM   27  C   UNL     1     -11.142  15.971  64.902  1.00  0.00    -0.370 C  
HETATM   28  O   UNL     1     -11.241  17.098  64.454  1.00  0.00    -1.143 OA 
BRANCH  27  29
HETATM   29  N   UNL     1     -11.063  15.689  66.238  1.00  0.00    -0.200 N  
HETATM   30  H   UNL     1     -11.804  15.155  66.693  1.00  0.00     0.000 HD 
BRANCH  29  31
HETATM   31  C   UNL     1      -9.919  16.153  67.011  1.00  0.00    -0.258 C  
HETATM   32  C   UNL     1     -10.136  15.958  68.515  1.00  0.00    -0.217 C  
HETATM   33  C   UNL     1     -10.010  14.499  68.947  1.00  0.00    -0.206 C  
HETATM   34  C   UNL     1      -8.686  13.897  68.491  1.00  0.00    -0.134 C  
HETATM   35  C   UNL     1      -8.490  14.040  66.986  1.00  0.00    -0.168 C  
HETATM   36  C   UNL     1      -8.622  15.493  66.534  1.00  0.00    -0.320 C  
ENDBRANCH  29  31
ENDBRANCH  27  29
ENDBRANCH  25  27
ENDBRANCH  22  25
ENDBRANCH  19  22
ENDBRANCH  15  16
ENDBRANCH  14  15
ENDBRANCH  13  14
ENDBRANCH   4  10
ENDBRANCH   2   3
TORSDOF 10
ENDMDL
MODEL       12
REMARK 921   NORMALIZED FREE ENERGY PREDICTED BY IDOCK:   -6.70 KCAL/MOL
REMARK 922        TOTAL FREE ENERGY PREDICTED BY IDOCK:  -12.59 KCAL/MOL
REMARK 923 INTER-LIGAND FREE ENERGY PREDICTED BY IDOCK:  -11.47 KCAL/MOL
REMARK 924 INTRA-LIGAND FREE ENERGY PREDICTED BY IDOCK:   -1.12 KCAL/MOL
REMARK 927      BINDING AFFINITY PREDICTED BY RF-SCORE:    0.00 PKD
ROOT
HETATM    1  C   UNL     1      -7.658   8.695  71.756  1.00  0.00    -0.087 C  
HETATM    2  O   UNL     1      -8.945   8.779  72.365  1.00  0.00    -0.379 OA 
ENDROOT
BRANCH   2   3
HETATM    3  C   UNL     1      -9.547   7.582  72.656  1.00  0.00    -0.170 A  
HETATM    4  C   UNL     1     -10.457   7.025  71.732  1.00  0.00    -0.223 A  
HETATM    5  C   UNL     1     -11.083   5.802  72.035  1.00  0.00    -0.318 A  
HETATM    6  C   UNL     1      -9.344   6.943  73.889  1.00  0.00    -0.241 A  
HETATM    7 CL   UNL     1     -11.659   3.706  73.634  1.00  0.00    -0.170 Cl 
HETATM    8  C   UNL     1     -10.001   5.752  74.195  1.00  0.00    -0.237 A  
HETATM    9  C   UNL     1     -10.857   5.182  73.263  1.00  0.00    -0.295 A  
BRANCH   4  10
HETATM   10  C   UNL     1     -10.766   7.698  70.427  1.00  0.00    -0.236 C  
HETATM   11  H   UNL     1      -9.525   6.369  69.401  1.00  0.00     0.000 HD 
HETATM   12  O   UNL     1     -11.480   8.690  70.365  1.00  0.00    -0.239 OA 
HETATM   13  N   UNL     1     -10.203   7.123  69.295  1.00  0.00    -0.184 N  
BRANCH  13  14
HETATM   14  C   UNL     1     -10.562   7.577  67.963  1.00  0.00    -0.155 C  
BRANCH  14  15
HETATM   15  C   UNL     1      -9.539   8.542  67.352  1.00  0.00    -0.204 C  
BRANCH  15  16
HETATM   16  C   UNL     1     -10.115   9.782  66.692  1.00  0.00    -0.303 A  
HETATM   17  C   UNL     1     -10.870  10.742  67.387  1.00  0.00    -0.345 A  
HETATM   18  C   UNL     1     -11.442  11.829  66.720  1.00  0.00    -0.352 A  
HETATM   19  C   UNL     1     -11.257  11.975  65.346  1.00  0.00    -0.322 A  
HETATM   20  C   UNL     1      -9.909   9.967  65.315  1.00  0.00    -0.373 A  
HETATM   21  C   UNL     1     -10.487  11.047  64.640  1.00  0.00    -0.398 A  
BRANCH  19  22
HETATM   22  S   UNL     1     -12.131  13.260  64.479  1.00  0.00    -0.419 S  
HETATM   23  O   UNL     1     -13.074  13.842  65.415  1.00  0.00    -0.727 OA 
HETATM   24  O   UNL     1     -12.586  12.749  63.206  1.00  0.00    -0.676 OA 
BRANCH  22  25
HETATM   25  N   UNL     1     -10.993  14.444  64.225  1.00  0.00    -0.593 N  
HETATM   26  H   UNL     1     -10.120  14.179  63.768  1.00  0.00     0.000 HD 
BRANCH  25  27
HETATM   27  C   UNL     1     -11.157  15.767  64.597  1.00  0.00    -0.361 C  
HETATM   28  O   UNL     1     -11.624  16.613  63.857  1.00  0.00    -1.204 OA 
BRANCH  27  29
HETATM   29  N   UNL     1     -10.724  16.025  65.868  1.00  0.00    -0.309 N  
HETATM   30  H   UNL     1     -11.192  15.593  66.665  1.00  0.00     0.000 HD 
BRANCH  29  31
HETATM   31  C   UNL     1      -9.594  16.919  66.083  1.00  0.00    -0.254 C  
HETATM   32  C   UNL     1     -10.045  18.377  66.222  1.00  0.00    -0.409 C  
HETATM   33  C   UNL     1     -10.705  18.666  67.568  1.00  0.00    -0.447 C  
HETATM   34  C   UNL     1      -9.810  18.245  68.728  1.00  0.00    -0.377 C  
HETATM   35  C   UNL     1      -9.403  16.779  68.623  1.00  0.00    -0.252 C  
HETATM   36  C   UNL     1      -8.749  16.469  67.278  1.00  0.00    -0.204 C  
ENDBRANCH  29  31
ENDBRANCH  27  29
ENDBRANCH  25  27
ENDBRANCH  22  25
ENDBRANCH  19  22
ENDBRANCH  15  16
ENDBRANCH  14  15
ENDBRANCH  13  14
ENDBRANCH   4  10
ENDBRANCH   2   3
TORSDOF 10
ENDMDL
MODEL       13
REMARK 921   NORMALIZED FREE ENERGY PREDICTED BY IDOCK:   -6.69 KCAL/MOL
REMARK 922        TOTAL FREE ENERGY PREDICTED BY IDOCK:  -12.58 KCAL/MOL
REMARK 923 INTER-LIGAND FREE ENERGY PREDICTED BY IDOCK:  -11.30 KCAL/MOL
REMARK 924 INTRA-LIGAND FREE ENERGY PREDICTED BY IDOCK:   -1.28 KCAL/MOL
REMARK 927      BINDING AFFINITY PREDICTED BY RF-SCORE:    0.00 PKD
ROOT
HETATM    1  C   UNL     1     -11.500  15.982  69.740  1.00  0.00    -0.318 C  
HETATM    2  O   UNL     1     -11.477  16.325  68.355  1.00  0.00    -0.357 OA 
ENDROOT
BRANCH   2   3
HETATM    3  C   UNL     1     -10.558  17.276  67.992  1.00  0.00    -0.394 A  
HETATM    4  C   UNL     1      -9.951  17.200  66.720  1.00  0.00    -0.291 A  
HETATM    5  C   UNL     1      -9.000  18.168  66.353  1.00  0.00    -0.256 A  
HETATM    6  C   UNL     1     -10.143  18.270  68.892  1.00  0.00    -0.358 A  
HETATM    7 CL   UNL     1      -7.419  20.307  66.809  1.00  0.00    -0.320 Cl 
HETATM    8  C   UNL     1      -9.169  19.201  68.530  1.00  0.00    -0.425 A  
HETATM    9  C   UNL     1      -8.612  19.153  67.259  1.00  0.00    -0.282 A  
BRANCH   4  10
HETATM   10  C   UNL     1     -10.305  16.118  65.742  1.00  0.00    -0.378 C  
HETATM   11  H   UNL     1      -9.300  14.693  66.890  1.00  0.00     0.000 HD 
HETATM   12  O   UNL     1     -10.918  16.356  64.710  1.00  0.00    -0.664 OA 
HETATM   13  N   UNL     1      -9.906  14.832  66.081  1.00  0.00    -0.295 N  
BRANCH  13  14
HETATM   14  C   UNL     1     -10.333  13.682  65.306  1.00  0.00    -0.348 C  
BRANCH  14  15
HETATM   15  C   UNL     1     -11.628  13.045  65.824  1.00  0.00    -0.396 C  
BRANCH  15  16
HETATM   16  C   UNL     1     -11.496  12.221  67.093  1.00  0.00    -0.419 A  
HETATM   17  C   UNL     1     -11.034  10.895  67.103  1.00  0.00    -0.334 A  
HETATM   18  C   UNL     1     -11.001  10.153  68.288  1.00  0.00    -0.299 A  
HETATM   19  C   UNL     1     -11.420  10.735  69.483  1.00  0.00    -0.294 A  
HETATM   20  C   UNL     1     -11.880  12.802  68.313  1.00  0.00    -0.357 A  
HETATM   21  C   UNL     1     -11.857  12.062  69.500  1.00  0.00    -0.390 A  
BRANCH  19  22
HETATM   22  S   UNL     1     -11.539   9.733  70.948  1.00  0.00    -0.389 S  
HETATM   23  O   UNL     1     -12.433  10.417  71.863  1.00  0.00    -0.356 OA 
HETATM   24  O   UNL     1     -10.211   9.351  71.372  1.00  0.00    -0.316 OA 
BRANCH  22  25
HETATM   25  N   UNL     1     -12.374   8.380  70.463  1.00  0.00    -0.395 N  
HETATM   26  H   UNL     1     -13.245   8.514  69.949  1.00  0.00     0.000 HD 
BRANCH  25  27
HETATM   27  C   UNL     1     -11.960   7.083  70.714  1.00  0.00    -0.345 C  
HETATM   28  O   UNL     1     -11.885   6.614  71.835  1.00  0.00    -0.303 OA 
BRANCH  27  29
HETATM   29  N   UNL     1     -11.627   6.396  69.579  1.00  0.00    -0.616 N  
HETATM   30  H   UNL     1     -12.281   5.722  69.180  1.00  0.00     0.000 HD 
BRANCH  29  31
HETATM   31  C   UNL     1     -10.339   6.630  68.941  1.00  0.00    -0.193 C  
HETATM   32  C   UNL     1      -9.321   5.545  69.308  1.00  0.00    -0.153 C  
HETATM   33  C   UNL     1      -9.588   4.219  68.599  1.00  0.00    -0.210 C  
HETATM   34  C   UNL     1      -9.683   4.406  67.089  1.00  0.00    -0.230 C  
HETATM   35  C   UNL     1     -10.734   5.446  66.716  1.00  0.00    -0.289 C  
HETATM   36  C   UNL     1     -10.490   6.777  67.424  1.00  0.00    -0.330 C  
ENDBRANCH  29  31
ENDBRANCH  27  29
ENDBRANCH  25  27
ENDBRANCH  22  25
ENDBRANCH  19  22
ENDBRANCH  15  16
ENDBRANCH  14  15
ENDBRANCH  13  14
ENDBRANCH   4  10
ENDBRANCH   2   3
TORSDOF 10
ENDMDL
MODEL       14
REMARK 921   NORMALIZED FREE ENERGY PREDICTED BY IDOCK:   -6.68 KCAL/MOL
REMARK 922        TOTAL FREE ENERGY PREDICTED BY IDOCK:  -12.56 KCAL/MOL
REMARK 923 INTER-LIGAND FREE ENERGY PREDICTED BY IDOCK:  -10.26 KCAL/MOL
REMARK 924 INTRA-LIGAND FREE ENERGY PREDICTED BY IDOCK:   -2.30 KCAL/MOL
REMARK 927      BINDING AFFINITY PREDICTED BY RF-SCORE:    0.00 PKD
ROOT
HETATM    1  C   UNL     1      -8.326   6.645  70.526  1.00  0.00    -0.130 C  
HETATM    2  O   UNL     1      -8.881   7.648  69.677  1.00  0.00    -0.139 OA 
ENDROOT
BRANCH   2   3
HETATM    3  C   UNL     1      -9.936   8.352  70.198  1.00  0.00    -0.187 A  
HETATM    4  C   UNL     1     -10.379   9.518  69.539  1.00  0.00    -0.229 A  
HETATM    5  C   UNL     1     -11.454  10.247  70.079  1.00  0.00    -0.367 A  
HETATM    6  C   UNL     1     -10.525   7.987  71.419  1.00  0.00    -0.257 A  
HETATM    7 CL   UNL     1     -13.319  10.782  71.955  1.00  0.00    -0.506 Cl 
HETATM    8  C   UNL     1     -11.564   8.741  71.965  1.00  0.00    -0.436 A  
HETATM    9  C   UNL     1     -12.031   9.859  71.287  1.00  0.00    -0.402 A  
BRANCH   4  10
HETATM   10  C   UNL     1      -9.742   9.995  68.267  1.00  0.00    -0.141 C  
HETATM   11  H   UNL     1     -11.435   9.460  67.169  1.00  0.00     0.000 HD 
HETATM   12  O   UNL     1      -8.597  10.426  68.240  1.00  0.00    -0.121 OA 
HETATM   13  N   UNL     1     -10.530   9.929  67.126  1.00  0.00    -0.243 N  
BRANCH  13  14
HETATM   14  C   UNL     1     -10.091  10.515  65.872  1.00  0.00    -0.260 C  
BRANCH  14  15
HETATM   15  C   UNL     1     -11.019  11.623  65.359  1.00  0.00    -0.328 C  
BRANCH  15  16
HETATM   16  C   UNL     1     -10.503  13.042  65.521  1.00  0.00    -0.297 A  
HETATM   17  C   UNL     1      -9.433  13.378  66.366  1.00  0.00    -0.230 A  
HETATM   18  C   UNL     1      -9.042  14.709  66.538  1.00  0.00    -0.267 A  
HETATM   19  C   UNL     1      -9.712  15.723  65.855  1.00  0.00    -0.354 A  
HETATM   20  C   UNL     1     -11.142  14.073  64.813  1.00  0.00    -0.391 A  
HETATM   21  C   UNL     1     -10.762  15.408  64.988  1.00  0.00    -0.460 A  
BRANCH  19  22
HETATM   22  S   UNL     1      -9.324  17.422  66.214  1.00  0.00    -0.173 S  
HETATM   23  O   UNL     1     -10.511  18.203  65.922  1.00  0.00    -0.518 OA 
HETATM   24  O   UNL     1      -8.059  17.759  65.603  1.00  0.00    -0.518 OA 
BRANCH  22  25
HETATM   25  N   UNL     1      -9.171  17.477  67.868  1.00  0.00    -0.260 N  
HETATM   26  H   UNL     1      -8.293  17.159  68.279  1.00  0.00     0.000 HD 
BRANCH  25  27
HETATM   27  C   UNL     1     -10.164  17.927  68.722  1.00  0.00    -0.360 C  
HETATM   28  O   UNL     1     -10.213  19.068  69.142  1.00  0.00    -0.314 OA 
BRANCH  27  29
HETATM   29  N   UNL     1     -11.066  16.954  69.057  1.00  0.00    -0.259 N  
HETATM   30  H   UNL     1     -11.965  16.905  68.578  1.00  0.00     0.000 HD 
BRANCH  29  31
HETATM   31  C   UNL     1     -10.740  15.989  70.098  1.00  0.00    -0.312 C  
HETATM   32  C   UNL     1     -11.671  16.125  71.306  1.00  0.00    -0.480 C  
HETATM   33  C   UNL     1     -13.070  15.573  71.041  1.00  0.00    -0.551 C  
HETATM   34  C   UNL     1     -13.013  14.135  70.540  1.00  0.00    -0.227 C  
HETATM   35  C   UNL     1     -12.130  14.003  69.303  1.00  0.00    -0.380 C  
HETATM   36  C   UNL     1     -10.729  14.560  69.547  1.00  0.00    -0.168 C  
ENDBRANCH  29  31
ENDBRANCH  27  29
ENDBRANCH  25  27
ENDBRANCH  22  25
ENDBRANCH  19  22
ENDBRANCH  15  16
ENDBRANCH  14  15
ENDBRANCH  13  14
ENDBRANCH   4  10
ENDBRANCH   2   3
TORSDOF 10
ENDMDL
MODEL       15
REMARK 921   NORMALIZED FREE ENERGY PREDICTED BY IDOCK:   -6.68 KCAL/MOL
REMARK 922        TOTAL FREE ENERGY PREDICTED BY IDOCK:  -12.56 KCAL/MOL
REMARK 923 INTER-LIGAND FREE ENERGY PREDICTED BY IDOCK:  -11.52 KCAL/MOL
REMARK 924 INTRA-LIGAND FREE ENERGY PREDICTED BY IDOCK:   -1.04 KCAL/MOL
REMARK 927      BINDING AFFINITY PREDICTED BY RF-SCORE:    0.00 PKD
ROOT
HETATM    1  C   UNL     1     -12.026  11.606  70.341  1.00  0.00    -0.358 C  
HETATM    2  O   UNL     1     -10.926  10.706  70.215  1.00  0.00    -0.273 OA 
ENDROOT
BRANCH   2   3
HETATM    3  C   UNL     1     -11.069   9.498  70.846  1.00  0.00    -0.336 A  
HETATM    4  C   UNL     1     -10.239   8.421  70.472  1.00  0.00    -0.216 A  
HETATM    5  C   UNL     1     -10.394   7.178  71.112  1.00  0.00    -0.214 A  
HETATM    6  C   UNL     1     -12.083   9.286  71.795  1.00  0.00    -0.457 A  
HETATM    7 CL   UNL     1     -11.602   5.458  72.805  1.00  0.00    -0.345 Cl 
HETATM    8  C   UNL     1     -12.252   8.038  72.394  1.00  0.00    -0.337 A  
HETATM    9  C   UNL     1     -11.400   6.994  72.058  1.00  0.00    -0.264 A  
BRANCH   4  10
HETATM   10  C   UNL     1      -9.184   8.569  69.415  1.00  0.00    -0.153 C  
HETATM   11  H   UNL     1     -10.168   7.203  68.181  1.00  0.00     0.000 HD 
HETATM   12  O   UNL     1      -8.199   9.276  69.581  1.00  0.00    -0.107 OA 
HETATM   13  N   UNL     1      -9.396   7.867  68.236  1.00  0.00    -0.143 N  
BRANCH  13  14
HETATM   14  C   UNL     1      -8.540   8.061  67.080  1.00  0.00    -0.127 C  
BRANCH  14  15
HETATM   15  C   UNL     1      -9.316   8.287  65.777  1.00  0.00    -0.101 C  
BRANCH  15  16
HETATM   16  C   UNL     1      -9.858   9.691  65.569  1.00  0.00    -0.352 A  
HETATM   17  C   UNL     1     -10.501  10.424  66.579  1.00  0.00    -0.262 A  
HETATM   18  C   UNL     1     -11.048  11.684  66.318  1.00  0.00    -0.345 A  
HETATM   19  C   UNL     1     -10.949  12.232  65.040  1.00  0.00    -0.302 A  
HETATM   20  C   UNL     1      -9.735  10.275  64.297  1.00  0.00    -0.373 A  
HETATM   21  C   UNL     1     -10.289  11.531  64.027  1.00  0.00    -0.406 A  
BRANCH  19  22
HETATM   22  S   UNL     1     -11.798  13.752  64.673  1.00  0.00    -0.423 S  
HETATM   23  O   UNL     1     -12.597  14.087  65.837  1.00  0.00    -0.488 OA 
HETATM   24  O   UNL     1     -12.413  13.649  63.370  1.00  0.00    -0.784 OA 
BRANCH  22  25
HETATM   25  N   UNL     1     -10.599  14.902  64.630  1.00  0.00    -0.585 N  
HETATM   26  H   UNL     1      -9.638  14.587  64.497  1.00  0.00     0.000 HD 
BRANCH  25  27
HETATM   27  C   UNL     1     -10.826  16.261  64.764  1.00  0.00    -0.224 C  
HETATM   28  O   UNL     1     -11.603  16.878  64.060  1.00  0.00    -1.123 OA 
BRANCH  27  29
HETATM   29  N   UNL     1     -10.075  16.836  65.753  1.00  0.00    -0.292 N  
HETATM   30  H   UNL     1      -9.067  16.681  65.785  1.00  0.00     0.000 HD 
BRANCH  29  31
HETATM   31  C   UNL     1     -10.717  17.671  66.759  1.00  0.00    -0.129 C  
HETATM   32  C   UNL     1     -10.168  17.390  68.161  1.00  0.00    -0.350 C  
HETATM   33  C   UNL     1      -8.771  17.967  68.376  1.00  0.00    -0.296 C  
HETATM   34  C   UNL     1      -8.728  19.454  68.048  1.00  0.00    -0.362 C  
HETATM   35  C   UNL     1      -9.222  19.734  66.633  1.00  0.00    -0.467 C  
HETATM   36  C   UNL     1     -10.615  19.155  66.396  1.00  0.00    -0.522 C  
ENDBRANCH  29  31
ENDBRANCH  27  29
ENDBRANCH  25  27
ENDBRANCH  22  25
ENDBRANCH  19  22
ENDBRANCH  15  16
ENDBRANCH  14  15
ENDBRANCH  13  14
ENDBRANCH   4  10
ENDBRANCH   2   3
TORSDOF 10
ENDMDL
MODEL       16
REMARK 921   NORMALIZED FREE ENERGY PREDICTED BY IDOCK:   -6.68 KCAL/MOL
REMARK 922        TOTAL FREE ENERGY PREDICTED BY IDOCK:  -12.55 KCAL/MOL
REMARK 923 INTER-LIGAND FREE ENERGY PREDICTED BY IDOCK:  -11.48 KCAL/MOL
REMARK 924 INTRA-LIGAND FREE ENERGY PREDICTED BY IDOCK:   -1.07 KCAL/MOL
REMARK 927      BINDING AFFINITY PREDICTED BY RF-SCORE:    0.00 PKD
ROOT
HETATM    1  C   UNL     1      -9.835   2.636  72.077  1.00  0.00    -0.163 C  
HETATM    2  O   UNL     1      -9.642   4.033  71.865  1.00  0.00    -0.133 OA 
ENDROOT
BRANCH   2   3
HETATM    3  C   UNL     1      -9.840   4.474  70.582  1.00  0.00    -0.222 A  
HETATM    4  C   UNL     1     -10.654   5.605  70.358  1.00  0.00    -0.364 A  
HETATM    5  C   UNL     1     -10.866   6.050  69.041  1.00  0.00    -0.412 A  
HETATM    6  C   UNL     1      -9.324   3.771  69.481  1.00  0.00    -0.249 A  
HETATM    7 CL   UNL     1     -10.635   5.877  66.358  1.00  0.00    -0.230 Cl 
HETATM    8  C   UNL     1      -9.575   4.200  68.178  1.00  0.00    -0.195 A  
HETATM    9  C   UNL     1     -10.335   5.342  67.965  1.00  0.00    -0.152 A  
BRANCH   4  10
HETATM   10  C   UNL     1     -11.289   6.355  71.492  1.00  0.00    -0.294 C  
HETATM   11  H   UNL     1     -10.443   8.147  70.835  1.00  0.00     0.000 HD 
HETATM   12  O   UNL     1     -11.949   5.787  72.353  1.00  0.00    -0.275 OA 
HETATM   13  N   UNL     1     -11.092   7.729  71.503  1.00  0.00    -0.234 N  
BRANCH  13  14
HETATM   14  C   UNL     1     -11.791   8.583  72.446  1.00  0.00    -0.367 C  
BRANCH  14  15
HETATM   15  C   UNL     1     -13.039   9.249  71.855  1.00  0.00    -0.490 C  
BRANCH  15  16
HETATM   16  C   UNL     1     -12.874  10.697  71.426  1.00  0.00    -0.556 A  
HETATM   17  C   UNL     1     -12.094  11.088  70.326  1.00  0.00    -0.448 A  
HETATM   18  C   UNL     1     -11.912  12.439  70.016  1.00  0.00    -0.372 A  
HETATM   19  C   UNL     1     -12.519  13.419  70.800  1.00  0.00    -0.341 A  
HETATM   20  C   UNL     1     -13.507  11.697  72.183  1.00  0.00    -0.238 A  
HETATM   21  C   UNL     1     -13.322  13.051  71.883  1.00  0.00    -0.539 A  
BRANCH  19  22
HETATM   22  S   UNL     1     -12.141  15.132  70.505  1.00  0.00    -0.375 S  
HETATM   23  O   UNL     1     -10.721  15.305  70.748  1.00  0.00    -0.276 OA 
HETATM   24  O   UNL     1     -13.107  15.957  71.193  1.00  0.00    -0.500 OA 
BRANCH  22  25
HETATM   25  N   UNL     1     -12.321  15.324  68.863  1.00  0.00    -0.604 N  
HETATM   26  H   UNL     1     -13.257  15.231  68.470  1.00  0.00     0.000 HD 
BRANCH  25  27
HETATM   27  C   UNL     1     -11.277  15.602  67.998  1.00  0.00    -0.339 C  
HETATM   28  O   UNL     1     -10.751  14.758  67.297  1.00  0.00    -0.282 OA 
BRANCH  27  29
HETATM   29  N   UNL     1     -10.889  16.914  68.029  1.00  0.00    -0.362 N  
HETATM   30  H   UNL     1     -11.320  17.559  68.691  1.00  0.00     0.000 HD 
BRANCH  29  31
HETATM   31  C   UNL     1      -9.859  17.387  67.114  1.00  0.00    -0.278 C  
HETATM   32  C   UNL     1     -10.400  18.452  66.155  1.00  0.00    -0.431 C  
HETATM   33  C   UNL     1     -10.615  19.804  66.831  1.00  0.00    -0.588 C  
HETATM   34  C   UNL     1      -9.350  20.279  67.536  1.00  0.00    -0.513 C  
HETATM   35  C   UNL     1      -8.837  19.246  68.532  1.00  0.00    -0.411 C  
HETATM   36  C   UNL     1      -8.626  17.883  67.876  1.00  0.00    -0.252 C  
ENDBRANCH  29  31
ENDBRANCH  27  29
ENDBRANCH  25  27
ENDBRANCH  22  25
ENDBRANCH  19  22
ENDBRANCH  15  16
ENDBRANCH  14  15
ENDBRANCH  13  14
ENDBRANCH   4  10
ENDBRANCH   2   3
TORSDOF 10
ENDMDL
MODEL       17
REMARK 921   NORMALIZED FREE ENERGY PREDICTED BY IDOCK:   -6.66 KCAL/MOL
REMARK 922        TOTAL FREE ENERGY PREDICTED BY IDOCK:  -12.52 KCAL/MOL
REMARK 923 INTER-LIGAND FREE ENERGY PREDICTED BY IDOCK:  -11.24 KCAL/MOL
REMARK 924 INTRA-LIGAND FREE ENERGY PREDICTED BY IDOCK:   -1.27 KCAL/MOL
REMARK 927      BINDING AFFINITY PREDICTED BY RF-SCORE:    0.00 PKD
ROOT
HETATM    1  C   UNL     1      -7.914   5.545  72.739  1.00  0.00    -0.102 C  
HETATM    2  O   UNL     1      -8.501   5.957  71.506  1.00  0.00    -0.126 OA 
ENDROOT
BRANCH   2   3
HETATM    3  C   UNL     1      -9.844   6.229  71.548  1.00  0.00    -0.173 A  
HETATM    4  C   UNL     1     -10.363   7.270  70.749  1.00  0.00    -0.212 A  
HETATM    5  C   UNL     1     -11.739   7.556  70.801  1.00  0.00    -0.281 A  
HETATM    6  C   UNL     1     -10.699   5.553  72.434  1.00  0.00    -0.286 A  
HETATM    7 CL   UNL     1     -14.243   7.252  71.760  1.00  0.00    -0.542 Cl 
HETATM    8  C   UNL     1     -12.054   5.873  72.505  1.00  0.00    -0.100 A  
HETATM    9  C   UNL     1     -12.569   6.865  71.681  1.00  0.00    -0.367 A  
BRANCH   4  10
HETATM   10  C   UNL     1      -9.486   8.073  69.834  1.00  0.00    -0.160 C  
HETATM   11  H   UNL     1      -9.638   6.618  68.344  1.00  0.00     0.000 HD 
HETATM   12  O   UNL     1      -8.978   9.129  70.188  1.00  0.00    -0.164 OA 
HETATM   13  N   UNL     1      -9.292   7.553  68.561  1.00  0.00    -0.143 N  
BRANCH  13  14
HETATM   14  C   UNL     1      -8.607   8.315  67.533  1.00  0.00    -0.129 C  
BRANCH  14  15
HETATM   15  C   UNL     1      -9.452   8.535  66.272  1.00  0.00    -0.299 C  
BRANCH  15  16
HETATM   16  C   UNL     1     -10.150   9.880  66.172  1.00  0.00    -0.315 A  
HETATM   17  C   UNL     1     -10.248  10.608  64.975  1.00  0.00    -0.380 A  
HETATM   18  C   UNL     1     -10.835  11.876  64.949  1.00  0.00    -0.356 A  
HETATM   19  C   UNL     1     -11.343  12.430  66.124  1.00  0.00    -0.352 A  
HETATM   20  C   UNL     1     -10.700  10.439  67.338  1.00  0.00    -0.338 A  
HETATM   21  C   UNL     1     -11.280  11.711  67.321  1.00  0.00    -0.365 A  
BRANCH  19  22
HETATM   22  S   UNL     1     -11.927  14.110  66.115  1.00  0.00    -0.426 S  
HETATM   23  O   UNL     1     -11.871  14.589  67.484  1.00  0.00    -0.378 OA 
HETATM   24  O   UNL     1     -13.161  14.180  65.366  1.00  0.00    -0.743 OA 
BRANCH  22  25
HETATM   25  N   UNL     1     -10.745  14.961  65.315  1.00  0.00    -0.363 N  
HETATM   26  H   UNL     1      -9.949  14.441  64.944  1.00  0.00     0.000 HD 
BRANCH  25  27
HETATM   27  C   UNL     1     -10.775  16.331  65.120  1.00  0.00    -0.331 C  
HETATM   28  O   UNL     1     -11.377  16.860  64.205  1.00  0.00    -1.208 OA 
BRANCH  27  29
HETATM   29  N   UNL     1     -10.046  17.021  66.050  1.00  0.00    -0.321 N  
HETATM   30  H   UNL     1      -9.030  16.935  66.069  1.00  0.00     0.000 HD 
BRANCH  29  31
HETATM   31  C   UNL     1     -10.724  17.880  67.012  1.00  0.00    -0.209 C  
HETATM   32  C   UNL     1     -10.224  17.635  68.439  1.00  0.00    -0.381 C  
HETATM   33  C   UNL     1      -8.836  18.219  68.688  1.00  0.00    -0.294 C  
HETATM   34  C   UNL     1      -8.783  19.699  68.325  1.00  0.00    -0.361 C  
HETATM   35  C   UNL     1      -9.228  19.942  66.887  1.00  0.00    -0.475 C  
HETATM   36  C   UNL     1     -10.611  19.355  66.616  1.00  0.00    -0.566 C  
ENDBRANCH  29  31
ENDBRANCH  27  29
ENDBRANCH  25  27
ENDBRANCH  22  25
ENDBRANCH  19  22
ENDBRANCH  15  16
ENDBRANCH  14  15
ENDBRANCH  13  14
ENDBRANCH   4  10
ENDBRANCH   2   3
TORSDOF 10
ENDMDL
MODEL       18
REMARK 921   NORMALIZED FREE ENERGY PREDICTED BY IDOCK:   -6.63 KCAL/MOL
REMARK 922        TOTAL FREE ENERGY PREDICTED BY IDOCK:  -12.47 KCAL/MOL
REMARK 923 INTER-LIGAND FREE ENERGY PREDICTED BY IDOCK:  -11.22 KCAL/MOL
REMARK 924 INTRA-LIGAND FREE ENERGY PREDICTED BY IDOCK:   -1.25 KCAL/MOL
REMARK 927      BINDING AFFINITY PREDICTED BY RF-SCORE:    0.00 PKD
ROOT
HETATM    1  C   UNL     1     -11.469  15.883  69.501  1.00  0.00    -0.342 C  
HETATM    2  O   UNL     1     -11.507  16.323  68.145  1.00  0.00    -0.309 OA 
ENDROOT
BRANCH   2   3
HETATM    3  C   UNL     1     -10.603  17.297  67.809  1.00  0.00    -0.367 A  
HETATM    4  C   UNL     1     -10.108  17.353  66.489  1.00  0.00    -0.320 A  
HETATM    5  C   UNL     1      -9.171  18.345  66.147  1.00  0.00    -0.133 A  
HETATM    6  C   UNL     1     -10.093  18.183  68.771  1.00  0.00    -0.392 A  
HETATM    7 CL   UNL     1      -7.513  20.404  66.692  1.00  0.00    -0.310 Cl 
HETATM    8  C   UNL     1      -9.134  19.137  68.429  1.00  0.00    -0.405 A  
HETATM    9  C   UNL     1      -8.687  19.221  67.117  1.00  0.00    -0.290 A  
BRANCH   4  10
HETATM   10  C   UNL     1     -10.565  16.389  65.434  1.00  0.00    -0.320 C  
HETATM   11  H   UNL     1      -9.632  14.802  66.420  1.00  0.00     0.000 HD 
HETATM   12  O   UNL     1     -11.188  16.759  64.447  1.00  0.00    -1.112 OA 
HETATM   13  N   UNL     1     -10.249  15.054  65.647  1.00  0.00    -0.333 N  
BRANCH  13  14
HETATM   14  C   UNL     1     -10.779  14.008  64.791  1.00  0.00    -0.427 C  
BRANCH  14  15
HETATM   15  C   UNL     1     -11.936  13.228  65.426  1.00  0.00    -0.432 C  
BRANCH  15  16
HETATM   16  C   UNL     1     -11.574  12.377  66.631  1.00  0.00    -0.447 A  
HETATM   17  C   UNL     1     -10.868  11.167  66.533  1.00  0.00    -0.302 A  
HETATM   18  C   UNL     1     -10.623  10.382  67.663  1.00  0.00    -0.304 A  
HETATM   19  C   UNL     1     -11.074  10.805  68.913  1.00  0.00    -0.253 A  
HETATM   20  C   UNL     1     -11.988  12.805  67.904  1.00  0.00    -0.320 A  
HETATM   21  C   UNL     1     -11.754  12.019  69.037  1.00  0.00    -0.382 A  
BRANCH  19  22
HETATM   22  S   UNL     1     -10.912   9.720  70.313  1.00  0.00    -0.319 S  
HETATM   23  O   UNL     1     -11.768  10.243  71.361  1.00  0.00    -0.341 OA 
HETATM   24  O   UNL     1      -9.510   9.478  70.567  1.00  0.00    -0.252 OA 
BRANCH  22  25
HETATM   25  N   UNL     1     -11.639   8.304  69.832  1.00  0.00    -0.414 N  
HETATM   26  H   UNL     1     -12.540   8.366  69.358  1.00  0.00     0.000 HD 
BRANCH  25  27
HETATM   27  C   UNL     1     -11.095   7.048  70.035  1.00  0.00    -0.278 C  
HETATM   28  O   UNL     1     -11.184   6.146  69.223  1.00  0.00    -0.387 OA 
BRANCH  27  29
HETATM   29  N   UNL     1     -10.469   6.923  71.244  1.00  0.00    -0.207 N  
HETATM   30  H   UNL     1      -9.450   6.913  71.293  1.00  0.00     0.000 HD 
BRANCH  29  31
HETATM   31  C   UNL     1     -11.259   6.804  72.462  1.00  0.00    -0.268 C  
HETATM   32  C   UNL     1     -11.850   5.399  72.617  1.00  0.00    -0.145 C  
HETATM   33  C   UNL     1     -10.808   4.360  73.027  1.00  0.00    -0.293 C  
HETATM   34  C   UNL     1     -10.059   4.792  74.282  1.00  0.00    -0.251 C  
HETATM   35  C   UNL     1      -9.422   6.167  74.114  1.00  0.00    -0.173 C  
HETATM   36  C   UNL     1     -10.448   7.217  73.693  1.00  0.00    -0.391 C  
ENDBRANCH  29  31
ENDBRANCH  27  29
ENDBRANCH  25  27
ENDBRANCH  22  25
ENDBRANCH  19  22
ENDBRANCH  15  16
ENDBRANCH  14  15
ENDBRANCH  13  14
ENDBRANCH   4  10
ENDBRANCH   2   3
TORSDOF 10
ENDMDL
MODEL       19
REMARK 921   NORMALIZED FREE ENERGY PREDICTED BY IDOCK:   -6.61 KCAL/MOL
REMARK 922        TOTAL FREE ENERGY PREDICTED BY IDOCK:  -12.44 KCAL/MOL
REMARK 923 INTER-LIGAND FREE ENERGY PREDICTED BY IDOCK:  -10.51 KCAL/MOL
REMARK 924 INTRA-LIGAND FREE ENERGY PREDICTED BY IDOCK:   -1.93 KCAL/MOL
REMARK 927      BINDING AFFINITY PREDICTED BY RF-SCORE:    0.00 PKD
ROOT
HETATM    1  C   UNL     1      -9.991   4.714  71.004  1.00  0.00    -0.200 C  
HETATM    2  O   UNL     1     -10.640   5.494  70.001  1.00  0.00    -0.296 OA 
ENDROOT
BRANCH   2   3
HETATM    3  C   UNL     1     -11.193   6.673  70.428  1.00  0.00    -0.344 A  
HETATM    4  C   UNL     1     -10.579   7.892  70.072  1.00  0.00    -0.242 A  
HETATM    5  C   UNL     1     -11.139   9.102  70.520  1.00  0.00    -0.308 A  
HETATM    6  C   UNL     1     -12.304   6.689  71.286  1.00  0.00    -0.329 A  
HETATM    7 CL   UNL     1     -12.901  10.579  71.933  1.00  0.00    -0.545 Cl 
HETATM    8  C   UNL     1     -12.827   7.894  71.756  1.00  0.00    -0.351 A  
HETATM    9  C   UNL     1     -12.250   9.093  71.362  1.00  0.00    -0.335 A  
BRANCH   4  10
HETATM   10  C   UNL     1      -9.348   7.934  69.214  1.00  0.00    -0.148 C  
HETATM   11  H   UNL     1     -10.487   7.624  67.492  1.00  0.00     0.000 HD 
HETATM   12  O   UNL     1      -8.229   8.054  69.695  1.00  0.00    -0.117 OA 
HETATM   13  N   UNL     1      -9.554   7.837  67.844  1.00  0.00    -0.144 N  
BRANCH  13  14
HETATM   14  C   UNL     1      -8.466   8.034  66.903  1.00  0.00    -0.124 C  
BRANCH  14  15
HETATM   15  C   UNL     1      -8.887   8.781  65.632  1.00  0.00    -0.239 C  
BRANCH  15  16
HETATM   16  C   UNL     1      -9.353  10.212  65.833  1.00  0.00    -0.224 A  
HETATM   17  C   UNL     1      -8.679  11.131  66.654  1.00  0.00    -0.166 A  
HETATM   18  C   UNL     1      -9.188  12.416  66.867  1.00  0.00    -0.209 A  
HETATM   19  C   UNL     1     -10.377  12.802  66.248  1.00  0.00    -0.258 A  
HETATM   20  C   UNL     1     -10.529  10.632  65.190  1.00  0.00    -0.271 A  
HETATM   21  C   UNL     1     -11.049  11.913  65.406  1.00  0.00    -0.360 A  
BRANCH  19  22
HETATM   22  S   UNL     1     -11.106  14.371  66.662  1.00  0.00    -0.334 S  
HETATM   23  O   UNL     1     -11.877  14.801  65.511  1.00  0.00    -0.324 OA 
HETATM   24  O   UNL     1     -10.092  15.233  67.225  1.00  0.00    -0.233 OA 
BRANCH  22  25
HETATM   25  N   UNL     1     -12.237  14.014  67.827  1.00  0.00    -0.528 N  
HETATM   26  H   UNL     1     -13.187  14.358  67.693  1.00  0.00     0.000 HD 
BRANCH  25  27
HETATM   27  C   UNL     1     -11.966  13.277  68.967  1.00  0.00    -0.293 C  
HETATM   28  O   UNL     1     -12.062  12.065  69.014  1.00  0.00    -0.271 OA 
BRANCH  27  29
HETATM   29  N   UNL     1     -11.600  14.053  70.033  1.00  0.00    -0.404 N  
HETATM   30  H   UNL     1     -10.746  13.841  70.549  1.00  0.00     0.000 HD 
BRANCH  29  31
HETATM   31  C   UNL     1     -12.431  15.181  70.429  1.00  0.00    -0.368 C  
HETATM   32  C   UNL     1     -13.787  14.720  70.973  1.00  0.00    -0.278 C  
HETATM   33  C   UNL     1     -13.690  14.123  72.375  1.00  0.00    -0.645 C  
HETATM   34  C   UNL     1     -12.998  15.079  73.339  1.00  0.00    -0.622 C  
HETATM   35  C   UNL     1     -11.623  15.498  72.827  1.00  0.00    -0.472 C  
HETATM   36  C   UNL     1     -11.700  16.089  71.421  1.00  0.00    -0.536 C  
ENDBRANCH  29  31
ENDBRANCH  27  29
ENDBRANCH  25  27
ENDBRANCH  22  25
ENDBRANCH  19  22
ENDBRANCH  15  16
ENDBRANCH  14  15
ENDBRANCH  13  14
ENDBRANCH   4  10
ENDBRANCH   2   3
TORSDOF 10
ENDMDL
MODEL       20
REMARK 921   NORMALIZED FREE ENERGY PREDICTED BY IDOCK:   -6.60 KCAL/MOL
REMARK 922        TOTAL FREE ENERGY PREDICTED BY IDOCK:  -12.44 KCAL/MOL
REMARK 923 INTER-LIGAND FREE ENERGY PREDICTED BY IDOCK:  -10.52 KCAL/MOL
REMARK 924 INTRA-LIGAND FREE ENERGY PREDICTED BY IDOCK:   -1.92 KCAL/MOL
REMARK 927      BINDING AFFINITY PREDICTED BY RF-SCORE:    0.00 PKD
ROOT
HETATM    1  C   UNL     1     -13.850   7.730  71.487  1.00  0.00    -0.358 C  
HETATM    2  O   UNL     1     -12.787   6.951  70.939  1.00  0.00    -0.294 OA 
ENDROOT
BRANCH   2   3
HETATM    3  C   UNL     1     -11.559   7.123  71.524  1.00  0.00    -0.278 A  
HETATM    4  C   UNL     1     -10.401   7.100  70.717  1.00  0.00    -0.219 A  
HETATM    5  C   UNL     1      -9.141   7.265  71.319  1.00  0.00    -0.146 A  
HETATM    6  C   UNL     1     -11.423   7.234  72.917  1.00  0.00    -0.227 A  
HETATM    7 CL   UNL     1      -7.481   7.547  73.428  1.00  0.00    -0.111 Cl 
HETATM    8  C   UNL     1     -10.165   7.357  73.505  1.00  0.00    -0.400 A  
HETATM    9  C   UNL     1      -9.032   7.384  72.703  1.00  0.00    -0.137 A  
BRANCH   4  10
HETATM   10  C   UNL     1     -10.480   6.916  69.230  1.00  0.00    -0.214 C  
HETATM   11  H   UNL     1      -9.750   8.845  68.910  1.00  0.00     0.000 HD 
HETATM   12  O   UNL     1     -10.928   5.892  68.729  1.00  0.00    -0.300 OA 
HETATM   13  N   UNL     1     -10.008   7.968  68.458  1.00  0.00    -0.186 N  
BRANCH  13  14
HETATM   14  C   UNL     1      -9.874   7.844  67.017  1.00  0.00    -0.225 C  
BRANCH  14  15
HETATM   15  C   UNL     1      -9.106   9.006  66.375  1.00  0.00    -0.213 C  
BRANCH  15  16
HETATM   16  C   UNL     1      -9.960  10.121  65.798  1.00  0.00    -0.339 A  
HETATM   17  C   UNL     1      -9.976  10.448  64.432  1.00  0.00    -0.388 A  
HETATM   18  C   UNL     1     -10.723  11.531  63.959  1.00  0.00    -0.445 A  
HETATM   19  C   UNL     1     -11.474  12.297  64.849  1.00  0.00    -0.332 A  
HETATM   20  C   UNL     1     -10.752  10.882  66.674  1.00  0.00    -0.289 A  
HETATM   21  C   UNL     1     -11.494  11.973  66.208  1.00  0.00    -0.408 A  
BRANCH  19  22
HETATM   22  S   UNL     1     -12.278  13.774  64.267  1.00  0.00    -0.360 S  
HETATM   23  O   UNL     1     -13.168  14.220  65.322  1.00  0.00    -0.704 OA 
HETATM   24  O   UNL     1     -12.782  13.545  62.932  1.00  0.00    -0.569 OA 
BRANCH  22  25
HETATM   25  N   UNL     1     -11.070  14.915  64.214  1.00  0.00    -0.607 N  
HETATM   26  H   UNL     1     -10.333  14.800  63.518  1.00  0.00     0.000 HD 
BRANCH  25  27
HETATM   27  C   UNL     1     -11.004  16.010  65.058  1.00  0.00    -0.380 C  
HETATM   28  O   UNL     1     -10.921  17.156  64.656  1.00  0.00    -1.005 OA 
BRANCH  27  29
HETATM   29  N   UNL     1     -11.022  15.670  66.383  1.00  0.00    -0.253 N  
HETATM   30  H   UNL     1     -11.841  15.212  66.781  1.00  0.00     0.000 HD 
BRANCH  29  31
HETATM   31  C   UNL     1      -9.868  15.962  67.223  1.00  0.00    -0.234 C  
HETATM   32  C   UNL     1     -10.097  15.519  68.671  1.00  0.00    -0.210 C  
HETATM   33  C   UNL     1     -10.014  14.004  68.847  1.00  0.00    -0.103 C  
HETATM   34  C   UNL     1      -8.705  13.452  68.294  1.00  0.00    -0.172 C  
HETATM   35  C   UNL     1      -8.499  13.845  66.835  1.00  0.00    -0.092 C  
HETATM   36  C   UNL     1      -8.588  15.356  66.639  1.00  0.00    -0.318 C  
ENDBRANCH  29  31
ENDBRANCH  27  29
ENDBRANCH  25  27
ENDBRANCH  22  25
ENDBRANCH  19  22
ENDBRANCH  15  16
ENDBRANCH  14  15
ENDBRANCH  13  14
ENDBRANCH   4  10
ENDBRANCH   2   3
TORSDOF 10
ENDMDL
MODEL       21
REMARK 921   NORMALIZED FREE ENERGY PREDICTED BY IDOCK:   -6.60 KCAL/MOL
REMARK 922        TOTAL FREE ENERGY PREDICTED BY IDOCK:  -12.44 KCAL/MOL
REMARK 923 INTER-LIGAND FREE ENERGY PREDICTED BY IDOCK:  -10.99 KCAL/MOL
REMARK 924 INTRA-LIGAND FREE ENERGY PREDICTED BY IDOCK:   -1.45 KCAL/MOL
REMARK 927      BINDING AFFINITY PREDICTED BY RF-SCORE:    0.00 PKD
ROOT
HETATM    1  C   UNL     1     -10.244   7.557  68.819  1.00  0.00    -0.197 C  
HETATM    2  O   UNL     1     -11.338   6.760  69.271  1.00  0.00    -0.237 OA 
ENDROOT
BRANCH   2   3
HETATM    3  C   UNL     1     -11.114   6.033  70.412  1.00  0.00    -0.329 A  
HETATM    4  C   UNL     1     -11.896   6.289  71.558  1.00  0.00    -0.291 A  
HETATM    5  C   UNL     1     -11.658   5.552  72.732  1.00  0.00    -0.298 A  
HETATM    6  C   UNL     1     -10.065   5.103  70.490  1.00  0.00    -0.326 A  
HETATM    7 CL   UNL     1     -10.315   3.759  74.236  1.00  0.00    -0.235 Cl 
HETATM    8  C   UNL     1      -9.814   4.407  71.672  1.00  0.00    -0.255 A  
HETATM    9  C   UNL     1     -10.618   4.626  72.782  1.00  0.00    -0.208 A  
BRANCH   4  10
HETATM   10  C   UNL     1     -12.986   7.321  71.554  1.00  0.00    -0.389 C  
HETATM   11  H   UNL     1     -11.583   8.865  71.631  1.00  0.00     0.000 HD 
HETATM   12  O   UNL     1     -14.170   7.010  71.567  1.00  0.00    -0.350 OA 
HETATM   13  N   UNL     1     -12.574   8.646  71.526  1.00  0.00    -0.318 N  
BRANCH  13  14
HETATM   14  C   UNL     1     -13.526   9.728  71.349  1.00  0.00    -0.322 C  
BRANCH  14  15
HETATM   15  C   UNL     1     -13.025  11.074  71.887  1.00  0.00    -0.485 C  
BRANCH  15  16
HETATM   16  C   UNL     1     -12.566  12.072  70.838  1.00  0.00    -0.347 A  
HETATM   17  C   UNL     1     -11.930  11.694  69.644  1.00  0.00    -0.390 A  
HETATM   18  C   UNL     1     -11.458  12.654  68.744  1.00  0.00    -0.349 A  
HETATM   19  C   UNL     1     -11.627  14.010  69.024  1.00  0.00    -0.306 A  
HETATM   20  C   UNL     1     -12.759  13.442  71.085  1.00  0.00    -0.411 A  
HETATM   21  C   UNL     1     -12.281  14.407  70.193  1.00  0.00    -0.401 A  
BRANCH  19  22
HETATM   22  S   UNL     1     -10.870  15.221  67.963  1.00  0.00    -0.298 S  
HETATM   23  O   UNL     1      -9.449  14.932  67.929  1.00  0.00    -0.196 OA 
HETATM   24  O   UNL     1     -11.341  16.536  68.333  1.00  0.00    -0.348 OA 
BRANCH  22  25
HETATM   25  N   UNL     1     -11.421  14.845  66.440  1.00  0.00    -0.321 N  
HETATM   26  H   UNL     1     -12.395  14.561  66.339  1.00  0.00     0.000 HD 
BRANCH  25  27
HETATM   27  C   UNL     1     -10.637  14.896  65.300  1.00  0.00    -0.401 C  
HETATM   28  O   UNL     1     -10.565  15.878  64.585  1.00  0.00    -0.525 OA 
BRANCH  27  29
HETATM   29  N   UNL     1      -9.972  13.726  65.054  1.00  0.00    -0.600 N  
HETATM   30  H   UNL     1      -8.958  13.728  64.944  1.00  0.00     0.000 HD 
BRANCH  29  31
HETATM   31  C   UNL     1     -10.714  12.477  64.949  1.00  0.00    -0.295 C  
HETATM   32  C   UNL     1     -10.885  12.042  63.490  1.00  0.00    -0.509 C  
HETATM   33  C   UNL     1      -9.598  11.487  62.884  1.00  0.00    -0.314 C  
HETATM   34  C   UNL     1      -9.021  10.364  63.738  1.00  0.00    -0.247 C  
HETATM   35  C   UNL     1      -8.798  10.809  65.179  1.00  0.00    -0.199 C  
HETATM   36  C   UNL     1     -10.073  11.377  65.799  1.00  0.00    -0.289 C  
ENDBRANCH  29  31
ENDBRANCH  27  29
ENDBRANCH  25  27
ENDBRANCH  22  25
ENDBRANCH  19  22
ENDBRANCH  15  16
ENDBRANCH  14  15
ENDBRANCH  13  14
ENDBRANCH   4  10
ENDBRANCH   2   3
TORSDOF 10
ENDMDL
MODEL       22
REMARK 921   NORMALIZED FREE ENERGY PREDICTED BY IDOCK:   -6.60 KCAL/MOL
REMARK 922        TOTAL FREE ENERGY PREDICTED BY IDOCK:  -12.42 KCAL/MOL
REMARK 923 INTER-LIGAND FREE ENERGY PREDICTED BY IDOCK:  -11.26 KCAL/MOL
REMARK 924 INTRA-LIGAND FREE ENERGY PREDICTED BY IDOCK:   -1.16 KCAL/MOL
REMARK 927      BINDING AFFINITY PREDICTED BY RF-SCORE:    0.00 PKD
ROOT
HETATM    1  C   UNL     1     -10.892  12.929  68.372  1.00  0.00    -0.254 C  
HETATM    2  O   UNL     1     -11.713  13.643  67.449  1.00  0.00    -0.337 OA 
ENDROOT
BRANCH   2   3
HETATM    3  C   UNL     1     -11.311  14.922  67.161  1.00  0.00    -0.343 A  
HETATM    4  C   UNL     1     -11.211  15.326  65.812  1.00  0.00    -0.247 A  
HETATM    5  C   UNL     1     -10.788  16.634  65.516  1.00  0.00    -0.170 A  
HETATM    6  C   UNL     1     -10.913  15.808  68.174  1.00  0.00    -0.330 A  
HETATM    7 CL   UNL     1      -9.856  19.083  66.159  1.00  0.00    -0.395 Cl 
HETATM    8  C   UNL     1     -10.457  17.089  67.865  1.00  0.00    -0.354 A  
HETATM    9  C   UNL     1     -10.408  17.499  66.540  1.00  0.00    -0.325 A  
BRANCH   4  10
HETATM   10  C   UNL     1     -11.558  14.399  64.684  1.00  0.00    -0.409 C  
HETATM   11  H   UNL     1      -9.732  13.406  64.883  1.00  0.00     0.000 HD 
HETATM   12  O   UNL     1     -12.599  14.515  64.050  1.00  0.00    -0.797 OA 
HETATM   13  N   UNL     1     -10.636  13.399  64.409  1.00  0.00    -0.426 N  
BRANCH  13  14
HETATM   14  C   UNL     1     -10.932  12.342  63.459  1.00  0.00    -0.459 C  
BRANCH  14  15
HETATM   15  C   UNL     1      -9.756  11.386  63.225  1.00  0.00    -0.413 C  
BRANCH  15  16
HETATM   16  C   UNL     1      -9.562  10.310  64.279  1.00  0.00    -0.375 A  
HETATM   17  C   UNL     1      -8.644   9.256  64.141  1.00  0.00    -0.207 A  
HETATM   18  C   UNL     1      -8.554   8.248  65.105  1.00  0.00    -0.132 A  
HETATM   19  C   UNL     1      -9.378   8.288  66.230  1.00  0.00    -0.204 A  
HETATM   20  C   UNL     1     -10.358  10.352  65.436  1.00  0.00    -0.270 A  
HETATM   21  C   UNL     1     -10.280   9.342  66.400  1.00  0.00    -0.298 A  
BRANCH  19  22
HETATM   22  S   UNL     1      -9.381   6.913  67.359  1.00  0.00    -0.134 S  
HETATM   23  O   UNL     1      -8.414   7.212  68.399  1.00  0.00    -0.124 OA 
HETATM   24  O   UNL     1      -9.291   5.682  66.609  1.00  0.00    -0.134 OA 
BRANCH  22  25
HETATM   25  N   UNL     1     -10.860   6.994  68.114  1.00  0.00    -0.416 N  
HETATM   26  H   UNL     1     -11.619   7.472  67.629  1.00  0.00     0.000 HD 
BRANCH  25  27
HETATM   27  C   UNL     1     -11.123   6.452  69.360  1.00  0.00    -0.387 C  
HETATM   28  O   UNL     1     -10.703   5.367  69.716  1.00  0.00    -0.315 OA 
BRANCH  27  29
HETATM   29  N   UNL     1     -11.916   7.252  70.137  1.00  0.00    -0.543 N  
HETATM   30  H   UNL     1     -12.929   7.238  70.018  1.00  0.00     0.000 HD 
BRANCH  29  31
HETATM   31  C   UNL     1     -11.310   8.123  71.135  1.00  0.00    -0.269 C  
HETATM   32  C   UNL     1     -11.014   9.514  70.566  1.00  0.00    -0.348 C  
HETATM   33  C   UNL     1     -12.272  10.362  70.390  1.00  0.00    -0.389 C  
HETATM   34  C   UNL     1     -13.070  10.447  71.685  1.00  0.00    -0.553 C  
HETATM   35  C   UNL     1     -13.415   9.064  72.227  1.00  0.00    -0.529 C  
HETATM   36  C   UNL     1     -12.169   8.198  72.401  1.00  0.00    -0.374 C  
ENDBRANCH  29  31
ENDBRANCH  27  29
ENDBRANCH  25  27
ENDBRANCH  22  25
ENDBRANCH  19  22
ENDBRANCH  15  16
ENDBRANCH  14  15
ENDBRANCH  13  14
ENDBRANCH   4  10
ENDBRANCH   2   3
TORSDOF 10
ENDMDL
MODEL       23
REMARK 921   NORMALIZED FREE ENERGY PREDICTED BY IDOCK:   -6.57 KCAL/MOL
REMARK 922        TOTAL FREE ENERGY PREDICTED BY IDOCK:  -12.38 KCAL/MOL
REMARK 923 INTER-LIGAND FREE ENERGY PREDICTED BY IDOCK:  -10.72 KCAL/MOL
REMARK 924 INTRA-LIGAND FREE ENERGY PREDICTED BY IDOCK:   -1.67 KCAL/MOL
REMARK 927      BINDING AFFINITY PREDICTED BY RF-SCORE:    0.00 PKD
ROOT
HETATM    1  C   UNL     1     -11.914   6.314  72.085  1.00  0.00    -0.287 C  
HETATM    2  O   UNL     1     -11.798   7.730  72.213  1.00  0.00    -0.309 OA 
ENDROOT
BRANCH   2   3
HETATM    3  C   UNL     1     -10.870   8.328  71.400  1.00  0.00    -0.239 A  
HETATM    4  C   UNL     1     -11.148   9.599  70.854  1.00  0.00    -0.422 A  
HETATM    5  C   UNL     1     -10.201  10.208  70.011  1.00  0.00    -0.271 A  
HETATM    6  C   UNL     1      -9.690   7.664  71.028  1.00  0.00    -0.169 A  
HETATM    7 CL   UNL     1      -7.900  10.274  68.601  1.00  0.00    -0.096 Cl 
HETATM    8  C   UNL     1      -8.777   8.261  70.159  1.00  0.00    -0.133 A  
HETATM    9  C   UNL     1      -9.031   9.533  69.664  1.00  0.00    -0.188 A  
BRANCH   4  10
HETATM   10  C   UNL     1     -12.424  10.327  71.161  1.00  0.00    -0.391 C  
HETATM   11  H   UNL     1     -11.383  11.787  72.230  1.00  0.00     0.000 HD 
HETATM   12  O   UNL     1     -13.514   9.896  70.810  1.00  0.00    -0.296 OA 
HETATM   13  N   UNL     1     -12.294  11.521  71.857  1.00  0.00     0.203 N  
BRANCH  13  14
HETATM   14  C   UNL     1     -13.432  12.399  72.066  1.00  0.00    -0.360 C  
BRANCH  14  15
HETATM   15  C   UNL     1     -13.042  13.872  72.236  1.00  0.00    -0.512 C  
BRANCH  15  16
HETATM   16  C   UNL     1     -12.319  14.502  71.058  1.00  0.00    -0.417 A  
HETATM   17  C   UNL     1     -11.620  15.718  71.147  1.00  0.00    -0.469 A  
HETATM   18  C   UNL     1     -11.033  16.295  70.017  1.00  0.00    -0.356 A  
HETATM   19  C   UNL     1     -11.128  15.655  68.782  1.00  0.00    -0.307 A  
HETATM   20  C   UNL     1     -12.373  13.855  69.813  1.00  0.00    -0.330 A  
HETATM   21  C   UNL     1     -11.795  14.432  68.677  1.00  0.00    -0.366 A  
BRANCH  19  22
HETATM   22  S   UNL     1     -10.532  16.481  67.323  1.00  0.00    -0.282 S  
HETATM   23  O   UNL     1      -9.234  15.914  67.012  1.00  0.00    -0.202 OA 
HETATM   24  O   UNL     1     -10.687  17.908  67.488  1.00  0.00    -0.389 OA 
BRANCH  22  25
HETATM   25  N   UNL     1     -11.534  15.954  66.105  1.00  0.00     0.229 N  
HETATM   26  H   UNL     1     -12.522  15.822  66.321  1.00  0.00     0.000 HD 
BRANCH  25  27
HETATM   27  C   UNL     1     -11.107  15.682  64.817  1.00  0.00    -0.412 C  
HETATM   28  O   UNL     1     -11.169  16.493  63.911  1.00  0.00    -0.908 OA 
BRANCH  27  29
HETATM   29  N   UNL     1     -10.630  14.409  64.665  1.00  0.00    -0.588 N  
HETATM   30  H   UNL     1      -9.624  14.241  64.633  1.00  0.00     0.000 HD 
BRANCH  29  31
HETATM   31  C   UNL     1     -11.561  13.294  64.552  1.00  0.00    -0.369 C  
HETATM   32  C   UNL     1     -11.249  12.420  63.333  1.00  0.00    -0.492 C  
HETATM   33  C   UNL     1     -10.012  11.547  63.532  1.00  0.00    -0.429 C  
HETATM   34  C   UNL     1     -10.120  10.714  64.803  1.00  0.00    -0.412 C  
HETATM   35  C   UNL     1     -10.376  11.585  66.028  1.00  0.00    -0.290 C  
HETATM   36  C   UNL     1     -11.604  12.473  65.843  1.00  0.00    -0.454 C  
ENDBRANCH  29  31
ENDBRANCH  27  29
ENDBRANCH  25  27
ENDBRANCH  22  25
ENDBRANCH  19  22
ENDBRANCH  15  16
ENDBRANCH  14  15
ENDBRANCH  13  14
ENDBRANCH   4  10
ENDBRANCH   2   3
TORSDOF 10
ENDMDL
MODEL       24
REMARK 921   NORMALIZED FREE ENERGY PREDICTED BY IDOCK:   -6.54 KCAL/MOL
REMARK 922        TOTAL FREE ENERGY PREDICTED BY IDOCK:  -12.33 KCAL/MOL
REMARK 923 INTER-LIGAND FREE ENERGY PREDICTED BY IDOCK:  -11.25 KCAL/MOL
REMARK 924 INTRA-LIGAND FREE ENERGY PREDICTED BY IDOCK:   -1.08 KCAL/MOL
REMARK 927      BINDING AFFINITY PREDICTED BY RF-SCORE:    0.00 PKD
ROOT
HETATM    1  C   UNL     1     -10.638   5.900  69.113  1.00  0.00    -0.299 C  
HETATM    2  O   UNL     1      -9.708   5.809  70.192  1.00  0.00    -0.160 OA 
ENDROOT
BRANCH   2   3
HETATM    3  C   UNL     1      -9.977   4.847  71.130  1.00  0.00    -0.208 A  
HETATM    4  C   UNL     1     -10.563   5.224  72.357  1.00  0.00    -0.280 A  
HETATM    5  C   UNL     1     -10.828   4.239  73.325  1.00  0.00    -0.323 A  
HETATM    6  C   UNL     1      -9.600   3.509  70.933  1.00  0.00    -0.242 A  
HETATM    7 CL   UNL     1     -10.751   1.727  74.310  1.00  0.00    -0.184 Cl 
HETATM    8  C   UNL     1      -9.832   2.548  71.916  1.00  0.00    -0.228 A  
HETATM    9  C   UNL     1     -10.455   2.915  73.102  1.00  0.00    -0.158 A  
BRANCH   4  10
HETATM   10  C   UNL     1     -10.924   6.651  72.652  1.00  0.00    -0.255 C  
HETATM   11  H   UNL     1     -12.649   6.499  71.485  1.00  0.00     0.000 HD 
HETATM   12  O   UNL     1     -10.200   7.375  73.322  1.00  0.00    -0.266 OA 
HETATM   13  N   UNL     1     -12.131   7.096  72.130  1.00  0.00    -0.276 N  
BRANCH  13  14
HETATM   14  C   UNL     1     -12.671   8.396  72.485  1.00  0.00    -0.232 C  
BRANCH  14  15
HETATM   15  C   UNL     1     -13.269   9.153  71.293  1.00  0.00    -0.296 C  
BRANCH  15  16
HETATM   16  C   UNL     1     -12.981  10.644  71.247  1.00  0.00    -0.513 A  
HETATM   17  C   UNL     1     -13.517  11.558  72.169  1.00  0.00    -0.219 A  
HETATM   18  C   UNL     1     -13.283  12.931  72.042  1.00  0.00    -0.549 A  
HETATM   19  C   UNL     1     -12.498  13.406  70.992  1.00  0.00    -0.353 A  
HETATM   20  C   UNL     1     -12.163  11.139  70.218  1.00  0.00    -0.436 A  
HETATM   21  C   UNL     1     -11.932  12.511  70.080  1.00  0.00    -0.372 A  
BRANCH  19  22
HETATM   22  S   UNL     1     -12.350  15.161  70.737  1.00  0.00    -0.396 S  
HETATM   23  O   UNL     1     -11.002  15.537  71.118  1.00  0.00    -0.343 OA 
HETATM   24  O   UNL     1     -13.490  15.824  71.329  1.00  0.00    -0.555 OA 
BRANCH  22  25
HETATM   25  N   UNL     1     -12.397  15.349  69.086  1.00  0.00    -0.609 N  
HETATM   26  H   UNL     1     -13.298  15.250  68.618  1.00  0.00     0.000 HD 
BRANCH  25  27
HETATM   27  C   UNL     1     -11.288  15.632  68.308  1.00  0.00    -0.356 C  
HETATM   28  O   UNL     1     -10.721  14.797  67.629  1.00  0.00    -0.262 OA 
BRANCH  27  29
HETATM   29  N   UNL     1     -10.887  16.937  68.399  1.00  0.00    -0.362 N  
HETATM   30  H   UNL     1     -11.442  17.606  68.932  1.00  0.00     0.000 HD 
BRANCH  29  31
HETATM   31  C   UNL     1      -9.667  17.369  67.731  1.00  0.00    -0.268 C  
HETATM   32  C   UNL     1      -9.946  17.867  66.309  1.00  0.00    -0.333 C  
HETATM   33  C   UNL     1     -10.610  19.241  66.284  1.00  0.00    -0.545 C  
HETATM   34  C   UNL     1      -9.808  20.260  67.085  1.00  0.00    -0.606 C  
HETATM   35  C   UNL     1      -9.574  19.794  68.517  1.00  0.00    -0.434 C  
HETATM   36  C   UNL     1      -8.920  18.415  68.563  1.00  0.00    -0.336 C  
ENDBRANCH  29  31
ENDBRANCH  27  29
ENDBRANCH  25  27
ENDBRANCH  22  25
ENDBRANCH  19  22
ENDBRANCH  15  16
ENDBRANCH  14  15
ENDBRANCH  13  14
ENDBRANCH   4  10
ENDBRANCH   2   3
TORSDOF 10
ENDMDL
MODEL       25
REMARK 921   NORMALIZED FREE ENERGY PREDICTED BY IDOCK:   -6.53 KCAL/MOL
REMARK 922        TOTAL FREE ENERGY PREDICTED BY IDOCK:  -12.31 KCAL/MOL
REMARK 923 INTER-LIGAND FREE ENERGY PREDICTED BY IDOCK:  -10.07 KCAL/MOL
REMARK 924 INTRA-LIGAND FREE ENERGY PREDICTED BY IDOCK:   -2.24 KCAL/MOL
REMARK 927      BINDING AFFINITY PREDICTED BY RF-SCORE:    0.00 PKD
ROOT
HETATM    1  C   UNL     1     -12.208  14.355  64.082  1.00  0.00    -0.363 C  
HETATM    2  O   UNL     1     -12.312  13.179  64.883  1.00  0.00    -0.404 OA 
ENDROOT
BRANCH   2   3
HETATM    3  C   UNL     1     -11.369  12.212  64.648  1.00  0.00    -0.326 A  
HETATM    4  C   UNL     1     -10.716  11.604  65.741  1.00  0.00    -0.331 A  
HETATM    5  C   UNL     1      -9.740  10.621  65.499  1.00  0.00    -0.291 A  
HETATM    6  C   UNL     1     -10.977  11.878  63.342  1.00  0.00    -0.470 A  
HETATM    7 CL   UNL     1      -8.153   9.121  63.914  1.00  0.00    -0.146 Cl 
HETATM    8  C   UNL     1      -9.980  10.930  63.115  1.00  0.00    -0.368 A  
HETATM    9  C   UNL     1      -9.375  10.298  64.194  1.00  0.00    -0.287 A  
BRANCH   4  10
HETATM   10  C   UNL     1     -11.046  11.971  67.159  1.00  0.00    -0.290 C  
HETATM   11  H   UNL     1      -9.385  13.232  67.263  1.00  0.00     0.000 HD 
HETATM   12  O   UNL     1     -11.989  11.466  67.754  1.00  0.00    -0.637 OA 
HETATM   13  N   UNL     1     -10.225  12.921  67.751  1.00  0.00    -0.219 N  
BRANCH  13  14
HETATM   14  C   UNL     1     -10.539  13.482  69.053  1.00  0.00    -0.098 C  
BRANCH  14  15
HETATM   15  C   UNL     1     -11.560  14.624  68.993  1.00  0.00    -0.328 C  
BRANCH  15  16
HETATM   16  C   UNL     1     -11.043  15.943  68.446  1.00  0.00    -0.345 A  
HETATM   17  C   UNL     1     -10.765  17.055  69.257  1.00  0.00    -0.226 A  
HETATM   18  C   UNL     1     -10.361  18.271  68.698  1.00  0.00    -0.301 A  
HETATM   19  C   UNL     1     -10.219  18.387  67.316  1.00  0.00    -0.374 A  
HETATM   20  C   UNL     1     -10.859  16.068  67.059  1.00  0.00    -0.227 A  
HETATM   21  C   UNL     1     -10.464  17.285  66.492  1.00  0.00    -0.260 A  
BRANCH  19  22
HETATM   22  S   UNL     1      -9.876  19.980  66.603  1.00  0.00    -0.471 S  
HETATM   23  O   UNL     1      -9.970  20.956  67.672  1.00  0.00    -0.332 OA 
HETATM   24  O   UNL     1     -10.657  20.139  65.398  1.00  0.00    -0.345 OA 
BRANCH  22  25
HETATM   25  N   UNL     1      -8.261  19.926  66.213  1.00  0.00    -0.377 N  
HETATM   26  H   UNL     1      -8.001  19.542  65.305  1.00  0.00     0.000 HD 
BRANCH  25  27
HETATM   27  C   UNL     1      -7.249  20.370  67.046  1.00  0.00    -0.299 C  
HETATM   28  O   UNL     1      -6.575  21.354  66.808  1.00  0.00    -0.446 OA 
BRANCH  27  29
HETATM   29  N   UNL     1      -7.076  19.579  68.149  1.00  0.00    -0.274 N  
HETATM   30  H   UNL     1      -7.733  19.635  68.927  1.00  0.00     0.000 HD 
BRANCH  29  31
HETATM   31  C   UNL     1      -5.950  18.656  68.210  1.00  0.00    -0.202 C  
HETATM   32  C   UNL     1      -6.042  17.733  69.430  1.00  0.00    -0.241 C  
HETATM   33  C   UNL     1      -7.103  16.646  69.271  1.00  0.00    -0.212 C  
HETATM   34  C   UNL     1      -6.897  15.853  67.985  1.00  0.00    -0.137 C  
HETATM   35  C   UNL     1      -6.860  16.763  66.762  1.00  0.00    -0.265 C  
HETATM   36  C   UNL     1      -5.811  17.863  66.907  1.00  0.00    -0.175 C  
ENDBRANCH  29  31
ENDBRANCH  27  29
ENDBRANCH  25  27
ENDBRANCH  22  25
ENDBRANCH  19  22
ENDBRANCH  15  16
ENDBRANCH  14  15
ENDBRANCH  13  14
ENDBRANCH   4  10
ENDBRANCH   2   3
TORSDOF 10
ENDMDL
MODEL       26
REMARK 921   NORMALIZED FREE ENERGY PREDICTED BY IDOCK:   -6.52 KCAL/MOL
REMARK 922        TOTAL FREE ENERGY PREDICTED BY IDOCK:  -12.30 KCAL/MOL
REMARK 923 INTER-LIGAND FREE ENERGY PREDICTED BY IDOCK:  -10.32 KCAL/MOL
REMARK 924 INTRA-LIGAND FREE ENERGY PREDICTED BY IDOCK:   -1.98 KCAL/MOL
REMARK 927      BINDING AFFINITY PREDICTED BY RF-SCORE:    0.00 PKD
ROOT
HETATM    1  C   UNL     1     -10.806   6.099  72.155  1.00  0.00    -0.247 C  
HETATM    2  O   UNL     1     -11.515   6.584  71.015  1.00  0.00    -0.302 OA 
ENDROOT
BRANCH   2   3
HETATM    3  C   UNL     1     -11.842   7.915  71.040  1.00  0.00    -0.268 A  
HETATM    4  C   UNL     1     -11.105   8.821  70.249  1.00  0.00    -0.240 A  
HETATM    5  C   UNL     1     -11.434  10.189  70.282  1.00  0.00    -0.381 A  
HETATM    6  C   UNL     1     -12.836   8.406  71.901  1.00  0.00    -0.384 A  
HETATM    7 CL   UNL     1     -12.796  12.331  71.196  1.00  0.00    -0.370 Cl 
HETATM    8  C   UNL     1     -13.126   9.769  71.955  1.00  0.00    -0.546 A  
HETATM    9  C   UNL     1     -12.432  10.652  71.138  1.00  0.00    -0.418 A  
BRANCH   4  10
HETATM   10  C   UNL     1      -9.986   8.363  69.360  1.00  0.00    -0.191 C  
HETATM   11  H   UNL     1     -11.331   7.914  67.828  1.00  0.00     0.000 HD 
HETATM   12  O   UNL     1      -8.825   8.334  69.747  1.00  0.00    -0.139 OA 
HETATM   13  N   UNL     1     -10.343   7.984  68.073  1.00  0.00    -0.210 N  
BRANCH  13  14
HETATM   14  C   UNL     1      -9.338   7.684  67.070  1.00  0.00    -0.157 C  
BRANCH  14  15
HETATM   15  C   UNL     1      -9.384   8.626  65.861  1.00  0.00    -0.262 C  
BRANCH  15  16
HETATM   16  C   UNL     1      -9.573  10.099  66.180  1.00  0.00    -0.256 A  
HETATM   17  C   UNL     1     -10.752  10.803  65.886  1.00  0.00    -0.143 A  
HETATM   18  C   UNL     1     -10.851  12.176  66.131  1.00  0.00    -0.317 A  
HETATM   19  C   UNL     1      -9.771  12.861  66.685  1.00  0.00    -0.254 A  
HETATM   20  C   UNL     1      -8.509  10.799  66.771  1.00  0.00    -0.134 A  
HETATM   21  C   UNL     1      -8.598  12.175  67.010  1.00  0.00    -0.191 A  
BRANCH  19  22
HETATM   22  S   UNL     1      -9.842  14.633  66.830  1.00  0.00    -0.256 S  
HETATM   23  O   UNL     1      -8.478  15.122  66.776  1.00  0.00    -0.242 OA 
HETATM   24  O   UNL     1     -10.702  14.985  67.937  1.00  0.00    -0.257 OA 
BRANCH  22  25
HETATM   25  N   UNL     1     -10.537  15.142  65.408  1.00  0.00    -0.359 N  
HETATM   26  H   UNL     1     -10.886  14.432  64.765  1.00  0.00     0.000 HD 
BRANCH  25  27
HETATM   27  C   UNL     1     -10.670  16.471  65.044  1.00  0.00    -0.209 C  
HETATM   28  O   UNL     1     -11.419  16.847  64.162  1.00  0.00    -1.174 OA 
BRANCH  27  29
HETATM   29  N   UNL     1      -9.862  17.308  65.764  1.00  0.00    -0.104 N  
HETATM   30  H   UNL     1      -8.881  17.070  65.912  1.00  0.00     0.000 HD 
BRANCH  29  31
HETATM   31  C   UNL     1     -10.406  18.540  66.319  1.00  0.00    -0.427 C  
HETATM   32  C   UNL     1     -10.765  18.383  67.800  1.00  0.00    -0.371 C  
HETATM   33  C   UNL     1      -9.537  18.355  68.707  1.00  0.00    -0.345 C  
HETATM   34  C   UNL     1      -8.646  19.570  68.474  1.00  0.00    -0.379 C  
HETATM   35  C   UNL     1      -8.241  19.699  67.010  1.00  0.00    -0.319 C  
HETATM   36  C   UNL     1      -9.457  19.719  66.086  1.00  0.00    -0.464 C  
ENDBRANCH  29  31
ENDBRANCH  27  29
ENDBRANCH  25  27
ENDBRANCH  22  25
ENDBRANCH  19  22
ENDBRANCH  15  16
ENDBRANCH  14  15
ENDBRANCH  13  14
ENDBRANCH   4  10
ENDBRANCH   2   3
TORSDOF 10
ENDMDL
MODEL       27
REMARK 921   NORMALIZED FREE ENERGY PREDICTED BY IDOCK:   -6.50 KCAL/MOL
REMARK 922        TOTAL FREE ENERGY PREDICTED BY IDOCK:  -12.26 KCAL/MOL
REMARK 923 INTER-LIGAND FREE ENERGY PREDICTED BY IDOCK:  -11.09 KCAL/MOL
REMARK 924 INTRA-LIGAND FREE ENERGY PREDICTED BY IDOCK:   -1.17 KCAL/MOL
REMARK 927      BINDING AFFINITY PREDICTED BY RF-SCORE:    0.00 PKD
ROOT
HETATM    1  C   UNL     1      -9.201   2.655  69.556  1.00  0.00    -0.127 C  
HETATM    2  O   UNL     1      -9.620   3.891  68.979  1.00  0.00    -0.175 OA 
ENDROOT
BRANCH   2   3
HETATM    3  C   UNL     1     -10.093   4.829  69.859  1.00  0.00    -0.229 A  
HETATM    4  C   UNL     1     -10.498   6.090  69.372  1.00  0.00    -0.331 A  
HETATM    5  C   UNL     1     -10.973   7.057  70.276  1.00  0.00    -0.304 A  
HETATM    6  C   UNL     1     -10.098   4.594  71.243  1.00  0.00    -0.245 A  
HETATM    7 CL   UNL     1     -11.527   8.003  72.742  1.00  0.00    -0.465 Cl 
HETATM    8  C   UNL     1     -10.534   5.576  72.133  1.00  0.00    -0.272 A  
HETATM    9  C   UNL     1     -10.979   6.797  71.645  1.00  0.00    -0.235 A  
BRANCH   4  10
HETATM   10  C   UNL     1     -10.449   6.422  67.909  1.00  0.00    -0.222 C  
HETATM   11  H   UNL     1      -8.525   7.207  68.109  1.00  0.00     0.000 HD 
HETATM   12  O   UNL     1     -11.406   6.227  67.170  1.00  0.00    -0.261 OA 
HETATM   13  N   UNL     1      -9.255   6.954  67.442  1.00  0.00    -0.124 N  
BRANCH  13  14
HETATM   14  C   UNL     1      -9.025   7.158  66.023  1.00  0.00    -0.111 C  
BRANCH  14  15
HETATM   15  C   UNL     1      -8.409   8.524  65.697  1.00  0.00    -0.154 C  
BRANCH  15  16
HETATM   16  C   UNL     1      -9.386   9.682  65.603  1.00  0.00    -0.296 A  
HETATM   17  C   UNL     1      -9.815  10.229  64.382  1.00  0.00    -0.374 A  
HETATM   18  C   UNL     1     -10.658  11.344  64.348  1.00  0.00    -0.403 A  
HETATM   19  C   UNL     1     -11.094  11.920  65.540  1.00  0.00    -0.304 A  
HETATM   20  C   UNL     1      -9.865  10.255  66.793  1.00  0.00    -0.246 A  
HETATM   21  C   UNL     1     -10.702  11.376  66.766  1.00  0.00    -0.316 A  
BRANCH  19  22
HETATM   22  S   UNL     1     -12.021  13.438  65.488  1.00  0.00    -0.425 S  
HETATM   23  O   UNL     1     -12.143  13.911  66.854  1.00  0.00    -0.424 OA 
HETATM   24  O   UNL     1     -13.197  13.248  64.672  1.00  0.00    -0.535 OA 
BRANCH  22  25
HETATM   25  N   UNL     1     -11.004  14.525  64.748  1.00  0.00    -0.497 N  
HETATM   26  H   UNL     1     -10.229  14.156  64.196  1.00  0.00     0.000 HD 
BRANCH  25  27
HETATM   27  C   UNL     1     -11.144  15.899  64.835  1.00  0.00    -0.389 C  
HETATM   28  O   UNL     1     -11.640  16.574  63.953  1.00  0.00    -1.175 OA 
BRANCH  27  29
HETATM   29  N   UNL     1     -10.654  16.416  66.003  1.00  0.00    -0.302 N  
HETATM   30  H   UNL     1     -10.952  16.028  66.898  1.00  0.00     0.000 HD 
BRANCH  29  31
HETATM   31  C   UNL     1      -9.705  17.521  65.965  1.00  0.00    -0.141 C  
HETATM   32  C   UNL     1     -10.407  18.874  66.123  1.00  0.00    -0.517 C  
HETATM   33  C   UNL     1     -10.868  19.138  67.554  1.00  0.00    -0.512 C  
HETATM   34  C   UNL     1      -9.719  18.986  68.544  1.00  0.00    -0.458 C  
HETATM   35  C   UNL     1      -9.052  17.620  68.429  1.00  0.00    -0.277 C  
HETATM   36  C   UNL     1      -8.593  17.333  67.001  1.00  0.00    -0.246 C  
ENDBRANCH  29  31
ENDBRANCH  27  29
ENDBRANCH  25  27
ENDBRANCH  22  25
ENDBRANCH  19  22
ENDBRANCH  15  16
ENDBRANCH  14  15
ENDBRANCH  13  14
ENDBRANCH   4  10
ENDBRANCH   2   3
TORSDOF 10
ENDMDL
MODEL       28
REMARK 921   NORMALIZED FREE ENERGY PREDICTED BY IDOCK:   -6.44 KCAL/MOL
REMARK 922        TOTAL FREE ENERGY PREDICTED BY IDOCK:  -12.17 KCAL/MOL
REMARK 923 INTER-LIGAND FREE ENERGY PREDICTED BY IDOCK:  -11.24 KCAL/MOL
REMARK 924 INTRA-LIGAND FREE ENERGY PREDICTED BY IDOCK:   -0.94 KCAL/MOL
REMARK 927      BINDING AFFINITY PREDICTED BY RF-SCORE:    0.00 PKD
ROOT
HETATM    1  C   UNL     1     -11.876   8.690  71.334  1.00  0.00    -0.297 C  
HETATM    2  O   UNL     1     -11.942   7.431  70.666  1.00  0.00    -0.266 OA 
ENDROOT
BRANCH   2   3
HETATM    3  C   UNL     1     -11.206   6.420  71.227  1.00  0.00    -0.292 A  
HETATM    4  C   UNL     1     -10.187   5.805  70.468  1.00  0.00    -0.284 A  
HETATM    5  C   UNL     1      -9.440   4.759  71.040  1.00  0.00    -0.227 A  
HETATM    6  C   UNL     1     -11.504   5.923  72.505  1.00  0.00    -0.347 A  
HETATM    7 CL   UNL     1      -8.850   2.985  72.985  1.00  0.00    -0.083 Cl 
HETATM    8  C   UNL     1     -10.782   4.859  73.046  1.00  0.00    -0.305 A  
HETATM    9  C   UNL     1      -9.747   4.290  72.315  1.00  0.00    -0.152 A  
BRANCH   4  10
HETATM   10  C   UNL     1      -9.869   6.248  69.070  1.00  0.00    -0.143 C  
HETATM   11  H   UNL     1      -9.149   8.079  69.769  1.00  0.00     0.000 HD 
HETATM   12  O   UNL     1     -10.135   5.555  68.097  1.00  0.00    -0.151 OA 
HETATM   13  N   UNL     1      -9.249   7.484  68.946  1.00  0.00    -0.143 N  
BRANCH  13  14
HETATM   14  C   UNL     1      -8.740   7.947  67.667  1.00  0.00    -0.126 C  
BRANCH  14  15
HETATM   15  C   UNL     1      -9.844   8.256  66.648  1.00  0.00    -0.337 C  
BRANCH  15  16
HETATM   16  C   UNL     1     -10.289   9.706  66.579  1.00  0.00    -0.264 A  
HETATM   17  C   UNL     1     -10.995  10.343  67.612  1.00  0.00    -0.374 A  
HETATM   18  C   UNL     1     -11.449  11.658  67.470  1.00  0.00    -0.360 A  
HETATM   19  C   UNL     1     -11.190  12.358  66.293  1.00  0.00    -0.317 A  
HETATM   20  C   UNL     1     -10.007  10.439  65.414  1.00  0.00    -0.362 A  
HETATM   21  C   UNL     1     -10.466  11.752  65.263  1.00  0.00    -0.320 A  
BRANCH  19  22
HETATM   22  S   UNL     1     -11.920  13.963  66.053  1.00  0.00    -0.436 S  
HETATM   23  O   UNL     1     -11.966  14.610  67.350  1.00  0.00    -0.384 OA 
HETATM   24  O   UNL     1     -13.120  13.825  65.261  1.00  0.00    -0.756 OA 
BRANCH  22  25
HETATM   25  N   UNL     1     -10.783  14.815  65.190  1.00  0.00    -0.385 N  
HETATM   26  H   UNL     1     -10.010  14.296  64.772  1.00  0.00     0.000 HD 
BRANCH  25  27
HETATM   27  C   UNL     1     -10.821  16.186  65.003  1.00  0.00    -0.363 C  
HETATM   28  O   UNL     1     -11.474  16.720  64.126  1.00  0.00    -1.171 OA 
BRANCH  27  29
HETATM   29  N   UNL     1     -10.038  16.871  65.891  1.00  0.00    -0.312 N  
HETATM   30  H   UNL     1      -9.027  16.731  65.895  1.00  0.00     0.000 HD 
BRANCH  29  31
HETATM   31  C   UNL     1     -10.649  17.801  66.831  1.00  0.00    -0.244 C  
HETATM   32  C   UNL     1     -10.078  17.635  68.243  1.00  0.00    -0.362 C  
HETATM   33  C   UNL     1      -8.669  18.206  68.383  1.00  0.00    -0.302 C  
HETATM   34  C   UNL     1      -8.611  19.658  67.924  1.00  0.00    -0.360 C  
HETATM   35  C   UNL     1      -9.127  19.821  66.499  1.00  0.00    -0.450 C  
HETATM   36  C   UNL     1     -10.533  19.246  66.337  1.00  0.00    -0.563 C  
ENDBRANCH  29  31
ENDBRANCH  27  29
ENDBRANCH  25  27
ENDBRANCH  22  25
ENDBRANCH  19  22
ENDBRANCH  15  16
ENDBRANCH  14  15
ENDBRANCH  13  14
ENDBRANCH   4  10
ENDBRANCH   2   3
TORSDOF 10
ENDMDL
MODEL       29
REMARK 921   NORMALIZED FREE ENERGY PREDICTED BY IDOCK:   -6.41 KCAL/MOL
REMARK 922        TOTAL FREE ENERGY PREDICTED BY IDOCK:  -12.13 KCAL/MOL
REMARK 923 INTER-LIGAND FREE ENERGY PREDICTED BY IDOCK:  -11.05 KCAL/MOL
REMARK 924 INTRA-LIGAND FREE ENERGY PREDICTED BY IDOCK:   -1.08 KCAL/MOL
REMARK 927      BINDING AFFINITY PREDICTED BY RF-SCORE:    0.00 PKD
ROOT
HETATM    1  C   UNL     1     -10.833   4.345  73.809  1.00  0.00    -0.287 C  
HETATM    2  O   UNL     1      -9.793   5.020  73.104  1.00  0.00    -0.149 OA 
ENDROOT
BRANCH   2   3
HETATM    3  C   UNL     1      -9.739   4.787  71.754  1.00  0.00    -0.166 A  
HETATM    4  C   UNL     1     -10.166   5.794  70.862  1.00  0.00    -0.275 A  
HETATM    5  C   UNL     1     -10.121   5.550  69.477  1.00  0.00    -0.305 A  
HETATM    6  C   UNL     1      -9.353   3.537  71.244  1.00  0.00    -0.209 A  
HETATM    7 CL   UNL     1      -9.712   4.010  67.300  1.00  0.00    -0.227 Cl 
HETATM    8  C   UNL     1      -9.351   3.295  69.871  1.00  0.00    -0.234 A  
HETATM    9  C   UNL     1      -9.724   4.305  68.994  1.00  0.00    -0.139 A  
BRANCH   4  10
HETATM   10  C   UNL     1     -10.654   7.126  71.352  1.00  0.00    -0.216 C  
HETATM   11  H   UNL     1     -12.581   6.368  71.620  1.00  0.00     0.000 HD 
HETATM   12  O   UNL     1      -9.924   8.108  71.388  1.00  0.00    -0.170 OA 
HETATM   13  N   UNL     1     -11.977   7.176  71.772  1.00  0.00    -0.297 N  
BRANCH  13  14
HETATM   14  C   UNL     1     -12.516   8.356  72.422  1.00  0.00    -0.331 C  
BRANCH  14  15
HETATM   15  C   UNL     1     -13.461   9.166  71.527  1.00  0.00    -0.417 C  
BRANCH  15  16
HETATM   16  C   UNL     1     -13.111  10.634  71.357  1.00  0.00    -0.499 A  
HETATM   17  C   UNL     1     -13.629  11.648  72.180  1.00  0.00    -0.124 A  
HETATM   18  C   UNL     1     -13.335  12.993  71.937  1.00  0.00    -0.539 A  
HETATM   19  C   UNL     1     -12.507  13.341  70.871  1.00  0.00    -0.342 A  
HETATM   20  C   UNL     1     -12.249  11.002  70.310  1.00  0.00    -0.447 A  
HETATM   21  C   UNL     1     -11.959  12.347  70.056  1.00  0.00    -0.372 A  
BRANCH  19  22
HETATM   22  S   UNL     1     -12.281  15.058  70.466  1.00  0.00    -0.367 S  
HETATM   23  O   UNL     1     -10.925  15.412  70.842  1.00  0.00    -0.331 OA 
HETATM   24  O   UNL     1     -13.402  15.817  70.971  1.00  0.00    -0.580 OA 
BRANCH  22  25
HETATM   25  N   UNL     1     -12.289  15.101  68.804  1.00  0.00    -0.595 N  
HETATM   26  H   UNL     1     -13.124  14.772  68.320  1.00  0.00     0.000 HD 
BRANCH  25  27
HETATM   27  C   UNL     1     -11.230  15.556  68.037  1.00  0.00    -0.332 C  
HETATM   28  O   UNL     1     -10.647  16.600  68.260  1.00  0.00    -0.304 OA 
BRANCH  27  29
HETATM   29  N   UNL     1     -10.924  14.722  66.996  1.00  0.00    -0.316 N  
HETATM   30  H   UNL     1     -10.072  14.872  66.455  1.00  0.00     0.000 HD 
BRANCH  29  31
HETATM   31  C   UNL     1     -11.815  13.619  66.663  1.00  0.00    -0.409 C  
HETATM   32  C   UNL     1     -12.636  13.916  65.404  1.00  0.00    -0.538 C  
HETATM   33  C   UNL     1     -11.811  13.817  64.123  1.00  0.00    -0.439 C  
HETATM   34  C   UNL     1     -11.101  12.471  64.023  1.00  0.00    -0.449 C  
HETATM   35  C   UNL     1     -10.239  12.195  65.250  1.00  0.00    -0.304 C  
HETATM   36  C   UNL     1     -11.046  12.300  66.542  1.00  0.00    -0.343 C  
ENDBRANCH  29  31
ENDBRANCH  27  29
ENDBRANCH  25  27
ENDBRANCH  22  25
ENDBRANCH  19  22
ENDBRANCH  15  16
ENDBRANCH  14  15
ENDBRANCH  13  14
ENDBRANCH   4  10
ENDBRANCH   2   3
TORSDOF 10
ENDMDL
MODEL       30
REMARK 921   NORMALIZED FREE ENERGY PREDICTED BY IDOCK:   -6.40 KCAL/MOL
REMARK 922        TOTAL FREE ENERGY PREDICTED BY IDOCK:  -12.11 KCAL/MOL
REMARK 923 INTER-LIGAND FREE ENERGY PREDICTED BY IDOCK:  -10.24 KCAL/MOL
REMARK 924 INTRA-LIGAND FREE ENERGY PREDICTED BY IDOCK:   -1.87 KCAL/MOL
REMARK 927      BINDING AFFINITY PREDICTED BY RF-SCORE:    0.00 PKD
ROOT
HETATM    1  C   UNL     1     -11.363   7.819  72.710  1.00  0.00    -0.389 C  
HETATM    2  O   UNL     1     -12.027   8.057  71.470  1.00  0.00    -0.280 OA 
ENDROOT
BRANCH   2   3
HETATM    3  C   UNL     1     -12.074   9.364  71.060  1.00  0.00    -0.298 A  
HETATM    4  C   UNL     1     -11.202   9.798  70.039  1.00  0.00    -0.297 A  
HETATM    5  C   UNL     1     -11.241  11.142  69.626  1.00  0.00    -0.333 A  
HETATM    6  C   UNL     1     -12.906  10.299  71.695  1.00  0.00    -0.568 A  
HETATM    7 CL   UNL     1     -12.093  13.698  69.774  1.00  0.00    -0.394 Cl 
HETATM    8  C   UNL     1     -12.907  11.638  71.304  1.00  0.00    -0.430 A  
HETATM    9  C   UNL     1     -12.084  12.050  70.264  1.00  0.00    -0.312 A  
BRANCH   4  10
HETATM   10  C   UNL     1     -10.242   8.858  69.370  1.00  0.00    -0.209 C  
HETATM   11  H   UNL     1     -11.379   8.876  67.619  1.00  0.00     0.000 HD 
HETATM   12  O   UNL     1      -9.278   8.391  69.962  1.00  0.00    -0.155 OA 
HETATM   13  N   UNL     1     -10.505   8.558  68.040  1.00  0.00    -0.215 N  
BRANCH  13  14
HETATM   14  C   UNL     1      -9.562   7.801  67.238  1.00  0.00    -0.161 C  
BRANCH  14  15
HETATM   15  C   UNL     1      -8.978   8.600  66.067  1.00  0.00    -0.227 C  
BRANCH  15  16
HETATM   16  C   UNL     1      -9.343  10.074  66.029  1.00  0.00    -0.224 A  
HETATM   17  C   UNL     1      -8.699  11.045  66.814  1.00  0.00    -0.152 A  
HETATM   18  C   UNL     1      -9.120  12.378  66.799  1.00  0.00    -0.212 A  
HETATM   19  C   UNL     1     -10.187  12.760  65.987  1.00  0.00    -0.278 A  
HETATM   20  C   UNL     1     -10.392  10.485  65.190  1.00  0.00    -0.310 A  
HETATM   21  C   UNL     1     -10.824  11.815  65.178  1.00  0.00    -0.351 A  
BRANCH  19  22
HETATM   22  S   UNL     1     -10.826  14.416  66.107  1.00  0.00    -0.317 S  
HETATM   23  O   UNL     1     -12.228  14.309  66.464  1.00  0.00    -0.441 OA 
HETATM   24  O   UNL     1     -10.424  15.165  64.939  1.00  0.00    -0.398 OA 
BRANCH  22  25
HETATM   25  N   UNL     1     -10.088  15.053  67.454  1.00  0.00    -0.228 N  
HETATM   26  H   UNL     1     -10.454  14.791  68.369  1.00  0.00     0.000 HD 
BRANCH  25  27
HETATM   27  C   UNL     1      -9.008  15.917  67.408  1.00  0.00    -0.192 C  
HETATM   28  O   UNL     1      -7.947  15.686  67.957  1.00  0.00    -0.129 OA 
BRANCH  27  29
HETATM   29  N   UNL     1      -9.263  17.059  66.700  1.00  0.00    -0.245 N  
HETATM   30  H   UNL     1      -8.654  17.329  65.927  1.00  0.00     0.000 HD 
BRANCH  29  31
HETATM   31  C   UNL     1     -10.407  17.890  67.051  1.00  0.00    -0.362 C  
HETATM   32  C   UNL     1     -10.233  18.540  68.427  1.00  0.00    -0.409 C  
HETATM   33  C   UNL     1      -9.228  19.689  68.416  1.00  0.00    -0.404 C  
HETATM   34  C   UNL     1      -9.577  20.722  67.351  1.00  0.00    -0.484 C  
HETATM   35  C   UNL     1      -9.698  20.089  65.969  1.00  0.00    -0.464 C  
HETATM   36  C   UNL     1     -10.693  18.930  65.964  1.00  0.00    -0.373 C  
ENDBRANCH  29  31
ENDBRANCH  27  29
ENDBRANCH  25  27
ENDBRANCH  22  25
ENDBRANCH  19  22
ENDBRANCH  15  16
ENDBRANCH  14  15
ENDBRANCH  13  14
ENDBRANCH   4  10
ENDBRANCH   2   3
TORSDOF 10
ENDMDL
MODEL       31
REMARK 921   NORMALIZED FREE ENERGY PREDICTED BY IDOCK:   -6.40 KCAL/MOL
REMARK 922        TOTAL FREE ENERGY PREDICTED BY IDOCK:  -12.10 KCAL/MOL
REMARK 923 INTER-LIGAND FREE ENERGY PREDICTED BY IDOCK:  -10.50 KCAL/MOL
REMARK 924 INTRA-LIGAND FREE ENERGY PREDICTED BY IDOCK:   -1.60 KCAL/MOL
REMARK 927      BINDING AFFINITY PREDICTED BY RF-SCORE:    0.00 PKD
ROOT
HETATM    1  C   UNL     1      -8.923  17.605  68.150  1.00  0.00    -0.269 C  
HETATM    2  O   UNL     1     -10.036  16.917  68.718  1.00  0.00    -0.261 OA 
ENDROOT
BRANCH   2   3
HETATM    3  C   UNL     1     -10.661  16.015  67.896  1.00  0.00    -0.301 A  
HETATM    4  C   UNL     1     -11.340  14.917  68.465  1.00  0.00    -0.314 A  
HETATM    5  C   UNL     1     -11.971  13.986  67.622  1.00  0.00    -0.404 A  
HETATM    6  C   UNL     1     -10.564  16.112  66.498  1.00  0.00    -0.268 A  
HETATM    7 CL   UNL     1     -12.614  12.940  65.218  1.00  0.00    -0.556 Cl 
HETATM    8  C   UNL     1     -11.160  15.159  65.672  1.00  0.00    -0.334 A  
HETATM    9  C   UNL     1     -11.870  14.108  66.237  1.00  0.00    -0.411 A  
BRANCH   4  10
HETATM   10  C   UNL     1     -11.419  14.724  69.952  1.00  0.00    -0.281 C  
HETATM   11  H   UNL     1     -13.184  13.626  69.758  1.00  0.00     0.000 HD 
HETATM   12  O   UNL     1     -10.604  15.230  70.712  1.00  0.00    -0.236 OA 
HETATM   13  N   UNL     1     -12.463  13.933  70.411  1.00  0.00    -0.344 N  
BRANCH  13  14
HETATM   14  C   UNL     1     -12.548  13.534  71.804  1.00  0.00    -0.168 C  
BRANCH  14  15
HETATM   15  C   UNL     1     -13.520  12.372  72.046  1.00  0.00    -0.460 C  
BRANCH  15  16
HETATM   16  C   UNL     1     -13.003  10.993  71.677  1.00  0.00    -0.561 A  
HETATM   17  C   UNL     1     -13.607   9.803  72.115  1.00  0.00    -0.432 A  
HETATM   18  C   UNL     1     -13.051   8.558  71.810  1.00  0.00    -0.383 A  
HETATM   19  C   UNL     1     -11.883   8.486  71.051  1.00  0.00    -0.257 A  
HETATM   20  C   UNL     1     -11.847  10.900  70.883  1.00  0.00    -0.363 A  
HETATM   21  C   UNL     1     -11.280   9.657  70.583  1.00  0.00    -0.385 A  
BRANCH  19  22
HETATM   22  S   UNL     1     -11.088   6.912  70.817  1.00  0.00    -0.293 S  
HETATM   23  O   UNL     1     -11.650   6.000  71.795  1.00  0.00    -0.287 OA 
HETATM   24  O   UNL     1      -9.659   7.109  70.738  1.00  0.00    -0.168 OA 
BRANCH  22  25
HETATM   25  N   UNL     1     -11.654   6.371  69.351  1.00  0.00    -0.618 N  
HETATM   26  H   UNL     1     -12.545   5.874  69.335  1.00  0.00     0.000 HD 
BRANCH  25  27
HETATM   27  C   UNL     1     -10.990   6.553  68.150  1.00  0.00    -0.281 C  
HETATM   28  O   UNL     1     -10.526   5.635  67.500  1.00  0.00    -0.210 OA 
BRANCH  27  29
HETATM   29  N   UNL     1     -10.894   7.867  67.784  1.00  0.00    -0.493 N  
HETATM   30  H   UNL     1     -11.577   8.544  68.124  1.00  0.00     0.000 HD 
BRANCH  29  31
HETATM   31  C   UNL     1      -9.814   8.299  66.907  1.00  0.00    -0.247 C  
HETATM   32  C   UNL     1     -10.098   9.675  66.295  1.00  0.00    -0.322 C  
HETATM   33  C   UNL     1      -9.925  10.815  67.296  1.00  0.00    -0.219 C  
HETATM   34  C   UNL     1      -8.552  10.770  67.957  1.00  0.00    -0.128 C  
HETATM   35  C   UNL     1      -8.287   9.420  68.615  1.00  0.00    -0.117 C  
HETATM   36  C   UNL     1      -8.465   8.267  67.630  1.00  0.00    -0.130 C  
ENDBRANCH  29  31
ENDBRANCH  27  29
ENDBRANCH  25  27
ENDBRANCH  22  25
ENDBRANCH  19  22
ENDBRANCH  15  16
ENDBRANCH  14  15
ENDBRANCH  13  14
ENDBRANCH   4  10
ENDBRANCH   2   3
TORSDOF 10
ENDMDL
MODEL       32
REMARK 921   NORMALIZED FREE ENERGY PREDICTED BY IDOCK:   -6.39 KCAL/MOL
REMARK 922        TOTAL FREE ENERGY PREDICTED BY IDOCK:  -12.09 KCAL/MOL
REMARK 923 INTER-LIGAND FREE ENERGY PREDICTED BY IDOCK:  -10.23 KCAL/MOL
REMARK 924 INTRA-LIGAND FREE ENERGY PREDICTED BY IDOCK:   -1.86 KCAL/MOL
REMARK 927      BINDING AFFINITY PREDICTED BY RF-SCORE:    0.00 PKD
ROOT
HETATM    1  C   UNL     1     -10.555  19.988  65.819  1.00  0.00    -0.323 C  
HETATM    2  O   UNL     1     -10.688  19.365  67.096  1.00  0.00    -0.455 OA 
ENDROOT
BRANCH   2   3
HETATM    3  C   UNL     1      -9.541  18.828  67.619  1.00  0.00    -0.307 A  
HETATM    4  C   UNL     1      -9.364  17.428  67.601  1.00  0.00    -0.245 A  
HETATM    5  C   UNL     1      -8.192  16.875  68.148  1.00  0.00    -0.207 A  
HETATM    6  C   UNL     1      -8.580  19.633  68.251  1.00  0.00    -0.358 A  
HETATM    7 CL   UNL     1      -5.837  17.001  69.459  1.00  0.00    -0.190 Cl 
HETATM    8  C   UNL     1      -7.440  19.069  68.825  1.00  0.00    -0.369 A  
HETATM    9  C   UNL     1      -7.247  17.695  68.761  1.00  0.00    -0.268 A  
BRANCH   4  10
HETATM   10  C   UNL     1     -10.390  16.512  67.001  1.00  0.00    -0.301 C  
HETATM   11  H   UNL     1      -9.652  16.874  65.082  1.00  0.00     0.000 HD 
HETATM   12  O   UNL     1     -11.247  15.965  67.684  1.00  0.00    -0.308 OA 
HETATM   13  N   UNL     1     -10.305  16.313  65.629  1.00  0.00    -0.369 N  
BRANCH  13  14
HETATM   14  C   UNL     1     -11.129  15.323  64.959  1.00  0.00    -0.426 C  
BRANCH  14  15
HETATM   15  C   UNL     1     -10.429  13.971  64.776  1.00  0.00    -0.445 C  
BRANCH  15  16
HETATM   16  C   UNL     1     -10.386  13.080  66.006  1.00  0.00    -0.293 A  
HETATM   17  C   UNL     1      -9.227  12.888  66.775  1.00  0.00    -0.230 A  
HETATM   18  C   UNL     1      -9.218  12.000  67.855  1.00  0.00    -0.190 A  
HETATM   19  C   UNL     1     -10.377  11.298  68.185  1.00  0.00    -0.186 A  
HETATM   20  C   UNL     1     -11.553  12.392  66.376  1.00  0.00    -0.442 A  
HETATM   21  C   UNL     1     -11.548  11.494  67.449  1.00  0.00    -0.307 A  
BRANCH  19  22
HETATM   22  S   UNL     1     -10.308  10.044  69.445  1.00  0.00    -0.244 S  
HETATM   23  O   UNL     1      -8.971  10.075  70.007  1.00  0.00    -0.195 OA 
HETATM   24  O   UNL     1     -10.853   8.813  68.920  1.00  0.00    -0.143 OA 
BRANCH  22  25
HETATM   25  N   UNL     1     -11.295  10.613  70.656  1.00  0.00    -0.409 N  
HETATM   26  H   UNL     1     -11.527  11.606  70.658  1.00  0.00     0.000 HD 
BRANCH  25  27
HETATM   27  C   UNL     1     -11.820   9.820  71.662  1.00  0.00    -0.354 C  
HETATM   28  O   UNL     1     -12.918  10.008  72.152  1.00  0.00    -0.418 OA 
BRANCH  27  29
HETATM   29  N   UNL     1     -10.973   8.821  72.057  1.00  0.00    -0.362 N  
HETATM   30  H   UNL     1      -9.968   8.917  71.913  1.00  0.00     0.000 HD 
BRANCH  29  31
HETATM   31  C   UNL     1     -11.509   7.620  72.683  1.00  0.00    -0.349 C  
HETATM   32  C   UNL     1     -12.018   6.619  71.641  1.00  0.00    -0.395 C  
HETATM   33  C   UNL     1     -10.887   5.899  70.911  1.00  0.00    -0.347 C  
HETATM   34  C   UNL     1      -9.922   5.243  71.891  1.00  0.00    -0.240 C  
HETATM   35  C   UNL     1      -9.370   6.247  72.897  1.00  0.00    -0.140 C  
HETATM   36  C   UNL     1     -10.488   6.985  73.630  1.00  0.00    -0.414 C  
ENDBRANCH  29  31
ENDBRANCH  27  29
ENDBRANCH  25  27
ENDBRANCH  22  25
ENDBRANCH  19  22
ENDBRANCH  15  16
ENDBRANCH  14  15
ENDBRANCH  13  14
ENDBRANCH   4  10
ENDBRANCH   2   3
TORSDOF 10
ENDMDL
MODEL       33
REMARK 921   NORMALIZED FREE ENERGY PREDICTED BY IDOCK:   -6.38 KCAL/MOL
REMARK 922        TOTAL FREE ENERGY PREDICTED BY IDOCK:  -12.08 KCAL/MOL
REMARK 923 INTER-LIGAND FREE ENERGY PREDICTED BY IDOCK:   -9.92 KCAL/MOL
REMARK 924 INTRA-LIGAND FREE ENERGY PREDICTED BY IDOCK:   -2.17 KCAL/MOL
REMARK 927      BINDING AFFINITY PREDICTED BY RF-SCORE:    0.00 PKD
ROOT
HETATM    1  C   UNL     1     -12.418  14.570  64.704  1.00  0.00    -0.321 C  
HETATM    2  O   UNL     1     -12.755  13.329  65.323  1.00  0.00    -0.563 OA 
ENDROOT
BRANCH   2   3
HETATM    3  C   UNL     1     -11.817  12.336  65.214  1.00  0.00    -0.355 A  
HETATM    4  C   UNL     1     -11.263  11.778  66.386  1.00  0.00    -0.382 A  
HETATM    5  C   UNL     1     -10.292  10.767  66.275  1.00  0.00    -0.303 A  
HETATM    6  C   UNL     1     -11.331  11.924  63.963  1.00  0.00    -0.475 A  
HETATM    7 CL   UNL     1      -8.618   9.156  64.902  1.00  0.00    -0.193 Cl 
HETATM    8  C   UNL     1     -10.339  10.949  63.866  1.00  0.00    -0.397 A  
HETATM    9  C   UNL     1      -9.833  10.367  65.021  1.00  0.00    -0.319 A  
BRANCH   4  10
HETATM   10  C   UNL     1     -11.694  12.227  67.752  1.00  0.00    -0.337 C  
HETATM   11  H   UNL     1     -11.801  10.250  68.414  1.00  0.00     0.000 HD 
HETATM   12  O   UNL     1     -11.882  13.408  68.014  1.00  0.00    -0.337 OA 
HETATM   13  N   UNL     1     -11.857  11.227  68.701  1.00  0.00    -0.317 N  
BRANCH  13  14
HETATM   14  C   UNL     1     -12.104  11.546  70.096  1.00  0.00    -0.351 C  
BRANCH  14  15
HETATM   15  C   UNL     1     -13.028  10.541  70.796  1.00  0.00    -0.413 C  
BRANCH  15  16
HETATM   16  C   UNL     1     -12.368   9.255  71.263  1.00  0.00    -0.403 A  
HETATM   17  C   UNL     1     -13.005   8.004  71.215  1.00  0.00    -0.205 A  
HETATM   18  C   UNL     1     -12.384   6.860  71.726  1.00  0.00    -0.401 A  
HETATM   19  C   UNL     1     -11.110   6.953  72.283  1.00  0.00    -0.249 A  
HETATM   20  C   UNL     1     -11.070   9.322  71.795  1.00  0.00    -0.398 A  
HETATM   21  C   UNL     1     -10.447   8.182  72.316  1.00  0.00    -0.371 A  
BRANCH  19  22
HETATM   22  S   UNL     1     -10.403   5.531  73.086  1.00  0.00    -0.221 S  
HETATM   23  O   UNL     1     -11.455   4.540  73.205  1.00  0.00    -0.297 OA 
HETATM   24  O   UNL     1      -9.668   5.962  74.253  1.00  0.00    -0.164 OA 
BRANCH  22  25
HETATM   25  N   UNL     1      -9.345   4.901  71.968  1.00  0.00    -0.139 N  
HETATM   26  H   UNL     1      -8.350   5.089  72.092  1.00  0.00     0.000 HD 
BRANCH  25  27
HETATM   27  C   UNL     1      -9.734   4.138  70.881  1.00  0.00    -0.189 C  
HETATM   28  O   UNL     1      -9.654   2.924  70.857  1.00  0.00    -0.152 OA 
BRANCH  27  29
HETATM   29  N   UNL     1     -10.196   4.890  69.835  1.00  0.00    -0.262 N  
HETATM   30  H   UNL     1     -11.199   5.018  69.702  1.00  0.00     0.000 HD 
BRANCH  29  31
HETATM   31  C   UNL     1      -9.252   5.507  68.913  1.00  0.00    -0.119 C  
HETATM   32  C   UNL     1      -9.509   5.071  67.466  1.00  0.00    -0.152 C  
HETATM   33  C   UNL     1     -10.745   5.731  66.860  1.00  0.00    -0.381 C  
HETATM   34  C   UNL     1     -10.681   7.249  66.982  1.00  0.00    -0.406 C  
HETATM   35  C   UNL     1     -10.480   7.690  68.428  1.00  0.00    -0.208 C  
HETATM   36  C   UNL     1      -9.253   7.031  69.055  1.00  0.00    -0.137 C  
ENDBRANCH  29  31
ENDBRANCH  27  29
ENDBRANCH  25  27
ENDBRANCH  22  25
ENDBRANCH  19  22
ENDBRANCH  15  16
ENDBRANCH  14  15
ENDBRANCH  13  14
ENDBRANCH   4  10
ENDBRANCH   2   3
TORSDOF 10
ENDMDL
MODEL       34
REMARK 921   NORMALIZED FREE ENERGY PREDICTED BY IDOCK:   -6.35 KCAL/MOL
REMARK 922        TOTAL FREE ENERGY PREDICTED BY IDOCK:  -12.03 KCAL/MOL
REMARK 923 INTER-LIGAND FREE ENERGY PREDICTED BY IDOCK:   -9.64 KCAL/MOL
REMARK 924 INTRA-LIGAND FREE ENERGY PREDICTED BY IDOCK:   -2.39 KCAL/MOL
REMARK 927      BINDING AFFINITY PREDICTED BY RF-SCORE:    0.00 PKD
ROOT
HETATM    1  C   UNL     1     -10.355   5.031  66.644  1.00  0.00    -0.270 C  
HETATM    2  O   UNL     1     -11.159   6.169  66.955  1.00  0.00    -0.335 OA 
ENDROOT
BRANCH   2   3
HETATM    3  C   UNL     1     -10.890   6.777  68.154  1.00  0.00    -0.228 A  
HETATM    4  C   UNL     1     -10.138   7.971  68.168  1.00  0.00    -0.234 A  
HETATM    5  C   UNL     1      -9.853   8.590  69.399  1.00  0.00    -0.185 A  
HETATM    6  C   UNL     1     -11.271   6.191  69.372  1.00  0.00    -0.466 A  
HETATM    7 CL   UNL     1      -9.860   8.743  72.093  1.00  0.00    -0.385 Cl 
HETATM    8  C   UNL     1     -10.947   6.794  70.587  1.00  0.00    -0.313 A  
HETATM    9  C   UNL     1     -10.250   7.995  70.594  1.00  0.00    -0.196 A  
BRANCH   4  10
HETATM   10  C   UNL     1      -9.646   8.608  66.901  1.00  0.00    -0.194 C  
HETATM   11  H   UNL     1     -11.467   9.594  66.639  1.00  0.00     0.000 HD 
HETATM   12  O   UNL     1      -8.539   8.358  66.441  1.00  0.00    -0.116 OA 
HETATM   13  N   UNL     1     -10.513   9.501  66.288  1.00  0.00    -0.139 N  
BRANCH  13  14
HETATM   14  C   UNL     1     -10.090  10.305  65.156  1.00  0.00    -0.285 C  
BRANCH  14  15
HETATM   15  C   UNL     1     -10.869  11.619  65.017  1.00  0.00    -0.346 C  
BRANCH  15  16
HETATM   16  C   UNL     1     -10.404  12.758  65.908  1.00  0.00    -0.298 A  
HETATM   17  C   UNL     1      -9.310  12.652  66.782  1.00  0.00    -0.232 A  
HETATM   18  C   UNL     1      -8.966  13.704  67.637  1.00  0.00    -0.202 A  
HETATM   19  C   UNL     1      -9.710  14.883  67.620  1.00  0.00    -0.212 A  
HETATM   20  C   UNL     1     -11.120  13.967  65.880  1.00  0.00    -0.291 A  
HETATM   21  C   UNL     1     -10.787  15.019  66.740  1.00  0.00    -0.318 A  
BRANCH  19  22
HETATM   22  S   UNL     1      -9.376  16.143  68.830  1.00  0.00    -0.245 S  
HETATM   23  O   UNL     1      -9.049  17.356  68.105  1.00  0.00    -0.252 OA 
HETATM   24  O   UNL     1      -8.468  15.618  69.824  1.00  0.00    -0.170 OA 
BRANCH  22  25
HETATM   25  N   UNL     1     -10.850  16.449  69.535  1.00  0.00    -0.327 N  
HETATM   26  H   UNL     1     -11.465  17.126  69.085  1.00  0.00     0.000 HD 
BRANCH  25  27
HETATM   27  C   UNL     1     -11.293  15.839  70.696  1.00  0.00    -0.388 C  
HETATM   28  O   UNL     1     -11.621  16.460  71.690  1.00  0.00    -0.443 OA 
BRANCH  27  29
HETATM   29  N   UNL     1     -11.306  14.474  70.615  1.00  0.00    -0.501 N  
HETATM   30  H   UNL     1     -10.490  13.937  70.907  1.00  0.00     0.000 HD 
BRANCH  29  31
HETATM   31  C   UNL     1     -12.488  13.788  70.110  1.00  0.00    -0.267 C  
HETATM   32  C   UNL     1     -12.161  12.366  69.645  1.00  0.00    -0.271 C  
HETATM   33  C   UNL     1     -11.929  11.402  70.806  1.00  0.00    -0.355 C  
HETATM   34  C   UNL     1     -13.101  11.415  71.780  1.00  0.00    -0.523 C  
HETATM   35  C   UNL     1     -13.396  12.822  72.289  1.00  0.00    -0.563 C  
HETATM   36  C   UNL     1     -13.621  13.802  71.140  1.00  0.00    -0.091 C  
ENDBRANCH  29  31
ENDBRANCH  27  29
ENDBRANCH  25  27
ENDBRANCH  22  25
ENDBRANCH  19  22
ENDBRANCH  15  16
ENDBRANCH  14  15
ENDBRANCH  13  14
ENDBRANCH   4  10
ENDBRANCH   2   3
TORSDOF 10
ENDMDL
MODEL       35
REMARK 921   NORMALIZED FREE ENERGY PREDICTED BY IDOCK:   -6.34 KCAL/MOL
REMARK 922        TOTAL FREE ENERGY PREDICTED BY IDOCK:  -12.02 KCAL/MOL
REMARK 923 INTER-LIGAND FREE ENERGY PREDICTED BY IDOCK:  -10.58 KCAL/MOL
REMARK 924 INTRA-LIGAND FREE ENERGY PREDICTED BY IDOCK:   -1.44 KCAL/MOL
REMARK 927      BINDING AFFINITY PREDICTED BY RF-SCORE:    0.00 PKD
ROOT
HETATM    1  C   UNL     1     -10.735   7.291  66.908  1.00  0.00    -0.276 C  
HETATM    2  O   UNL     1     -10.258   7.458  68.242  1.00  0.00    -0.172 OA 
ENDROOT
BRANCH   2   3
HETATM    3  C   UNL     1     -10.098   6.305  68.966  1.00  0.00    -0.172 A  
HETATM    4  C   UNL     1     -10.237   6.347  70.370  1.00  0.00    -0.233 A  
HETATM    5  C   UNL     1     -10.062   5.167  71.114  1.00  0.00    -0.291 A  
HETATM    6  C   UNL     1      -9.712   5.104  68.350  1.00  0.00    -0.200 A  
HETATM    7 CL   UNL     1      -9.441   2.557  71.407  1.00  0.00    -0.204 Cl 
HETATM    8  C   UNL     1      -9.502   3.949  69.104  1.00  0.00    -0.246 A  
HETATM    9  C   UNL     1      -9.689   3.984  70.479  1.00  0.00    -0.188 A  
BRANCH   4  10
HETATM   10  C   UNL     1     -10.581   7.618  71.090  1.00  0.00    -0.221 C  
HETATM   11  H   UNL     1     -12.503   6.914  71.503  1.00  0.00     0.000 HD 
HETATM   12  O   UNL     1      -9.795   8.554  71.159  1.00  0.00    -0.180 OA 
HETATM   13  N   UNL     1     -11.837   7.666  71.680  1.00  0.00    -0.280 N  
BRANCH  13  14
HETATM   14  C   UNL     1     -12.222   8.767  72.544  1.00  0.00    -0.277 C  
BRANCH  14  15
HETATM   15  C   UNL     1     -13.382   9.601  71.989  1.00  0.00    -0.547 C  
BRANCH  15  16
HETATM   16  C   UNL     1     -12.996  10.925  71.351  1.00  0.00    -0.527 A  
HETATM   17  C   UNL     1     -12.374  11.020  70.096  1.00  0.00    -0.389 A  
HETATM   18  C   UNL     1     -11.970  12.257  69.584  1.00  0.00    -0.347 A  
HETATM   19  C   UNL     1     -12.196  13.419  70.320  1.00  0.00    -0.335 A  
HETATM   20  C   UNL     1     -13.248  12.111  72.061  1.00  0.00    -0.496 A  
HETATM   21  C   UNL     1     -12.838  13.350  71.559  1.00  0.00    -0.427 A  
BRANCH  19  22
HETATM   22  S   UNL     1     -11.524  14.962  69.742  1.00  0.00    -0.312 S  
HETATM   23  O   UNL     1     -11.784  15.953  70.770  1.00  0.00    -0.351 OA 
HETATM   24  O   UNL     1     -11.956  15.189  68.382  1.00  0.00    -0.299 OA 
BRANCH  22  25
HETATM   25  N   UNL     1      -9.877  14.739  69.770  1.00  0.00    -0.433 N  
HETATM   26  H   UNL     1      -9.515  13.903  70.228  1.00  0.00     0.000 HD 
BRANCH  25  27
HETATM   27  C   UNL     1      -8.968  15.618  69.208  1.00  0.00    -0.267 C  
HETATM   28  O   UNL     1      -7.764  15.444  69.245  1.00  0.00    -0.187 OA 
BRANCH  27  29
HETATM   29  N   UNL     1      -9.561  16.705  68.626  1.00  0.00    -0.240 N  
HETATM   30  H   UNL     1     -10.560  16.869  68.750  1.00  0.00     0.000 HD 
BRANCH  29  31
HETATM   31  C   UNL     1      -8.762  17.628  67.831  1.00  0.00    -0.245 C  
HETATM   32  C   UNL     1      -9.183  17.615  66.358  1.00  0.00    -0.263 C  
HETATM   33  C   UNL     1     -10.507  18.334  66.114  1.00  0.00    -0.403 C  
HETATM   34  C   UNL     1     -10.481  19.752  66.675  1.00  0.00    -0.615 C  
HETATM   35  C   UNL     1     -10.116  19.766  68.155  1.00  0.00    -0.574 C  
HETATM   36  C   UNL     1      -8.798  19.041  68.420  1.00  0.00    -0.379 C  
ENDBRANCH  29  31
ENDBRANCH  27  29
ENDBRANCH  25  27
ENDBRANCH  22  25
ENDBRANCH  19  22
ENDBRANCH  15  16
ENDBRANCH  14  15
ENDBRANCH  13  14
ENDBRANCH   4  10
ENDBRANCH   2   3
TORSDOF 10
ENDMDL
MODEL       36
REMARK 921   NORMALIZED FREE ENERGY PREDICTED BY IDOCK:   -6.32 KCAL/MOL
REMARK 922        TOTAL FREE ENERGY PREDICTED BY IDOCK:  -11.99 KCAL/MOL
REMARK 923 INTER-LIGAND FREE ENERGY PREDICTED BY IDOCK:   -9.88 KCAL/MOL
REMARK 924 INTRA-LIGAND FREE ENERGY PREDICTED BY IDOCK:   -2.10 KCAL/MOL
REMARK 927      BINDING AFFINITY PREDICTED BY RF-SCORE:    0.00 PKD
ROOT
HETATM    1  C   UNL     1     -11.308   7.673  72.006  1.00  0.00    -0.278 C  
HETATM    2  O   UNL     1     -11.837   8.229  70.803  1.00  0.00    -0.264 OA 
ENDROOT
BRANCH   2   3
HETATM    3  C   UNL     1     -12.097   9.574  70.832  1.00  0.00    -0.278 A  
HETATM    4  C   UNL     1     -11.440  10.424  69.918  1.00  0.00    -0.368 A  
HETATM    5  C   UNL     1     -11.698  11.806  69.955  1.00  0.00    -0.386 A  
HETATM    6  C   UNL     1     -12.934  10.135  71.810  1.00  0.00    -0.567 A  
HETATM    7 CL   UNL     1     -12.817  14.035  70.985  1.00  0.00    -0.411 Cl 
HETATM    8  C   UNL     1     -13.151  11.512  71.862  1.00  0.00    -0.492 A  
HETATM    9  C   UNL     1     -12.541  12.339  70.928  1.00  0.00    -0.241 A  
BRANCH   4  10
HETATM   10  C   UNL     1     -10.481   9.889  68.895  1.00  0.00    -0.211 C  
HETATM   11  H   UNL     1     -11.986   9.837  67.449  1.00  0.00     0.000 HD 
HETATM   12  O   UNL     1      -9.318   9.629  69.174  1.00  0.00    -0.156 OA 
HETATM   13  N   UNL     1     -10.987   9.717  67.613  1.00  0.00    -0.240 N  
BRANCH  13  14
HETATM   14  C   UNL     1     -10.120   9.370  66.502  1.00  0.00    -0.262 C  
BRANCH  14  15
HETATM   15  C   UNL     1      -9.819  10.551  65.571  1.00  0.00    -0.324 C  
BRANCH  15  16
HETATM   16  C   UNL     1      -9.916  11.928  66.202  1.00  0.00    -0.254 A  
HETATM   17  C   UNL     1      -8.919  12.464  67.034  1.00  0.00    -0.209 A  
HETATM   18  C   UNL     1      -9.087  13.706  67.652  1.00  0.00    -0.207 A  
HETATM   19  C   UNL     1     -10.255  14.437  67.436  1.00  0.00    -0.247 A  
HETATM   20  C   UNL     1     -11.070  12.695  65.968  1.00  0.00    -0.321 A  
HETATM   21  C   UNL     1     -11.248  13.935  66.591  1.00  0.00    -0.328 A  
BRANCH  19  22
HETATM   22  S   UNL     1     -10.535  15.930  68.362  1.00  0.00    -0.265 S  
HETATM   23  O   UNL     1      -9.629  15.907  69.495  1.00  0.00    -0.262 OA 
HETATM   24  O   UNL     1     -11.955  16.104  68.564  1.00  0.00    -0.214 OA 
BRANCH  22  25
HETATM   25  N   UNL     1      -9.964  17.144  67.381  1.00  0.00    -0.272 N  
HETATM   26  H   UNL     1     -10.628  17.842  67.047  1.00  0.00     0.000 HD 
BRANCH  25  27
HETATM   27  C   UNL     1      -8.641  17.265  66.990  1.00  0.00    -0.227 C  
HETATM   28  O   UNL     1      -8.239  16.929  65.892  1.00  0.00    -0.478 OA 
BRANCH  27  29
HETATM   29  N   UNL     1      -7.837  17.781  67.969  1.00  0.00    -0.234 N  
HETATM   30  H   UNL     1      -7.089  17.213  68.368  1.00  0.00     0.000 HD 
BRANCH  29  31
HETATM   31  C   UNL     1      -8.050  19.142  68.440  1.00  0.00    -0.343 C  
HETATM   32  C   UNL     1      -7.007  19.548  69.486  1.00  0.00    -0.302 C  
HETATM   33  C   UNL     1      -5.635  19.827  68.876  1.00  0.00    -0.244 C  
HETATM   34  C   UNL     1      -5.725  20.852  67.752  1.00  0.00    -0.340 C  
HETATM   35  C   UNL     1      -6.723  20.426  66.680  1.00  0.00    -0.291 C  
HETATM   36  C   UNL     1      -8.099  20.132  67.273  1.00  0.00    -0.369 C  
ENDBRANCH  29  31
ENDBRANCH  27  29
ENDBRANCH  25  27
ENDBRANCH  22  25
ENDBRANCH  19  22
ENDBRANCH  15  16
ENDBRANCH  14  15
ENDBRANCH  13  14
ENDBRANCH   4  10
ENDBRANCH   2   3
TORSDOF 10
ENDMDL
MODEL       37
REMARK 921   NORMALIZED FREE ENERGY PREDICTED BY IDOCK:   -6.30 KCAL/MOL
REMARK 922        TOTAL FREE ENERGY PREDICTED BY IDOCK:  -11.96 KCAL/MOL
REMARK 923 INTER-LIGAND FREE ENERGY PREDICTED BY IDOCK:  -10.75 KCAL/MOL
REMARK 924 INTRA-LIGAND FREE ENERGY PREDICTED BY IDOCK:   -1.21 KCAL/MOL
REMARK 927      BINDING AFFINITY PREDICTED BY RF-SCORE:    0.00 PKD
ROOT
HETATM    1  C   UNL     1      -8.280   5.057  71.900  1.00  0.00    -0.116 C  
HETATM    2  O   UNL     1      -8.689   6.118  71.039  1.00  0.00    -0.130 OA 
ENDROOT
BRANCH   2   3
HETATM    3  C   UNL     1      -9.843   6.765  71.397  1.00  0.00    -0.178 A  
HETATM    4  C   UNL     1     -10.823   7.022  70.415  1.00  0.00    -0.283 A  
HETATM    5  C   UNL     1     -12.003   7.696  70.780  1.00  0.00    -0.192 A  
HETATM    6  C   UNL     1     -10.032   7.254  72.699  1.00  0.00    -0.223 A  
HETATM    7 CL   UNL     1     -13.603   9.019  72.504  1.00  0.00    -0.510 Cl 
HETATM    8  C   UNL     1     -11.188   7.956  73.039  1.00  0.00    -0.346 A  
HETATM    9  C   UNL     1     -12.172   8.163  72.082  1.00  0.00    -0.350 A  
BRANCH   4  10
HETATM   10  C   UNL     1     -10.646   6.584  68.991  1.00  0.00    -0.245 C  
HETATM   11  H   UNL     1     -10.803   8.554  68.320  1.00  0.00     0.000 HD 
HETATM   12  O   UNL     1     -10.541   5.402  68.687  1.00  0.00    -0.179 OA 
HETATM   13  N   UNL     1     -10.599   7.595  68.041  1.00  0.00    -0.186 N  
BRANCH  13  14
HETATM   14  C   UNL     1     -10.263   7.313  66.657  1.00  0.00    -0.162 C  
BRANCH  14  15
HETATM   15  C   UNL     1      -9.285   8.326  66.048  1.00  0.00    -0.226 C  
BRANCH  15  16
HETATM   16  C   UNL     1      -9.878   9.674  65.680  1.00  0.00    -0.369 A  
HETATM   17  C   UNL     1     -10.591  10.474  66.588  1.00  0.00    -0.263 A  
HETATM   18  C   UNL     1     -11.183  11.674  66.181  1.00  0.00    -0.314 A  
HETATM   19  C   UNL     1     -11.058  12.095  64.858  1.00  0.00    -0.319 A  
HETATM   20  C   UNL     1      -9.733  10.133  64.360  1.00  0.00    -0.345 A  
HETATM   21  C   UNL     1     -10.330  11.328  63.944  1.00  0.00    -0.439 A  
BRANCH  19  22
HETATM   22  S   UNL     1     -11.957  13.529  64.310  1.00  0.00    -0.436 S  
HETATM   23  O   UNL     1     -12.972  13.805  65.309  1.00  0.00    -0.731 OA 
HETATM   24  O   UNL     1     -12.325  13.357  62.923  1.00  0.00    -0.510 OA 
BRANCH  22  25
HETATM   25  N   UNL     1     -10.872  14.781  64.443  1.00  0.00    -0.592 N  
HETATM   26  H   UNL     1      -9.938  14.648  64.056  1.00  0.00     0.000 HD 
BRANCH  25  27
HETATM   27  C   UNL     1     -11.159  15.993  65.047  1.00  0.00    -0.336 C  
HETATM   28  O   UNL     1     -11.343  17.020  64.422  1.00  0.00    -1.140 OA 
BRANCH  27  29
HETATM   29  N   UNL     1     -11.196  15.917  66.412  1.00  0.00    -0.009 N  
HETATM   30  H   UNL     1     -12.065  16.110  66.911  1.00  0.00     0.000 HD 
BRANCH  29  31
HETATM   31  C   UNL     1      -9.993  15.560  67.152  1.00  0.00    -0.242 C  
HETATM   32  C   UNL     1      -9.514  16.712  68.041  1.00  0.00    -0.224 C  
HETATM   33  C   UNL     1     -10.384  16.905  69.280  1.00  0.00    -0.298 C  
HETATM   34  C   UNL     1     -10.520  15.610  70.071  1.00  0.00    -0.333 C  
HETATM   35  C   UNL     1     -11.050  14.473  69.204  1.00  0.00    -0.284 C  
HETATM   36  C   UNL     1     -10.197  14.271  67.953  1.00  0.00    -0.237 C  
ENDBRANCH  29  31
ENDBRANCH  27  29
ENDBRANCH  25  27
ENDBRANCH  22  25
ENDBRANCH  19  22
ENDBRANCH  15  16
ENDBRANCH  14  15
ENDBRANCH  13  14
ENDBRANCH   4  10
ENDBRANCH   2   3
TORSDOF 10
ENDMDL
MODEL       38
REMARK 921   NORMALIZED FREE ENERGY PREDICTED BY IDOCK:   -6.29 KCAL/MOL
REMARK 922        TOTAL FREE ENERGY PREDICTED BY IDOCK:  -11.93 KCAL/MOL
REMARK 923 INTER-LIGAND FREE ENERGY PREDICTED BY IDOCK:  -10.41 KCAL/MOL
REMARK 924 INTRA-LIGAND FREE ENERGY PREDICTED BY IDOCK:   -1.52 KCAL/MOL
REMARK 927      BINDING AFFINITY PREDICTED BY RF-SCORE:    0.00 PKD
ROOT
HETATM    1  C   UNL     1     -10.631  19.757  66.406  1.00  0.00    -0.464 C  
HETATM    2  O   UNL     1     -10.848  18.751  67.394  1.00  0.00    -0.449 OA 
ENDROOT
BRANCH   2   3
HETATM    3  C   UNL     1      -9.718  18.165  67.904  1.00  0.00    -0.299 A  
HETATM    4  C   UNL     1      -9.736  16.788  68.213  1.00  0.00    -0.252 A  
HETATM    5  C   UNL     1      -8.581  16.188  68.747  1.00  0.00    -0.236 A  
HETATM    6  C   UNL     1      -8.576  18.922  68.207  1.00  0.00    -0.364 A  
HETATM    7 CL   UNL     1      -6.063  16.218  69.718  1.00  0.00    -0.194 Cl 
HETATM    8  C   UNL     1      -7.451  18.323  68.773  1.00  0.00    -0.297 A  
HETATM    9  C   UNL     1      -7.454  16.959  69.030  1.00  0.00    -0.220 A  
BRANCH   4  10
HETATM   10  C   UNL     1     -10.952  15.942  67.975  1.00  0.00    -0.336 C  
HETATM   11  H   UNL     1     -10.202  15.309  66.132  1.00  0.00     0.000 HD 
HETATM   12  O   UNL     1     -11.889  15.921  68.762  1.00  0.00    -0.393 OA 
HETATM   13  N   UNL     1     -10.948  15.178  66.816  1.00  0.00    -0.321 N  
BRANCH  13  14
HETATM   14  C   UNL     1     -11.985  14.195  66.558  1.00  0.00    -0.442 C  
BRANCH  14  15
HETATM   15  C   UNL     1     -11.445  12.768  66.399  1.00  0.00    -0.409 C  
BRANCH  15  16
HETATM   16  C   UNL     1     -11.418  11.930  67.666  1.00  0.00    -0.387 A  
HETATM   17  C   UNL     1     -10.959  10.603  67.699  1.00  0.00    -0.370 A  
HETATM   18  C   UNL     1     -11.024   9.848  68.874  1.00  0.00    -0.214 A  
HETATM   19  C   UNL     1     -11.540  10.417  70.037  1.00  0.00    -0.301 A  
HETATM   20  C   UNL     1     -11.901  12.498  68.857  1.00  0.00    -0.346 A  
HETATM   21  C   UNL     1     -11.977  11.744  70.033  1.00  0.00    -0.421 A  
BRANCH  19  22
HETATM   22  S   UNL     1     -11.779   9.398  71.476  1.00  0.00    -0.413 S  
HETATM   23  O   UNL     1     -12.834  10.009  72.262  1.00  0.00    -0.354 OA 
HETATM   24  O   UNL     1     -10.495   9.111  72.073  1.00  0.00    -0.322 OA 
BRANCH  22  25
HETATM   25  N   UNL     1     -12.442   7.992  70.887  1.00  0.00    -0.509 N  
HETATM   26  H   UNL     1     -13.220   8.067  70.232  1.00  0.00     0.000 HD 
BRANCH  25  27
HETATM   27  C   UNL     1     -12.003   6.726  71.233  1.00  0.00    -0.365 C  
HETATM   28  O   UNL     1     -12.197   6.230  72.327  1.00  0.00    -0.286 OA 
BRANCH  27  29
HETATM   29  N   UNL     1     -11.316   6.102  70.228  1.00  0.00    -0.373 N  
HETATM   30  H   UNL     1     -11.754   5.967  69.317  1.00  0.00     0.000 HD 
BRANCH  29  31
HETATM   31  C   UNL     1      -9.957   5.632  70.461  1.00  0.00    -0.205 C  
HETATM   32  C   UNL     1      -9.689   4.302  69.751  1.00  0.00    -0.290 C  
HETATM   33  C   UNL     1      -9.523   4.459  68.241  1.00  0.00    -0.210 C  
HETATM   34  C   UNL     1      -8.456   5.495  67.906  1.00  0.00    -0.098 C  
HETATM   35  C   UNL     1      -8.747   6.839  68.566  1.00  0.00    -0.124 C  
HETATM   36  C   UNL     1      -8.927   6.699  70.076  1.00  0.00    -0.144 C  
ENDBRANCH  29  31
ENDBRANCH  27  29
ENDBRANCH  25  27
ENDBRANCH  22  25
ENDBRANCH  19  22
ENDBRANCH  15  16
ENDBRANCH  14  15
ENDBRANCH  13  14
ENDBRANCH   4  10
ENDBRANCH   2   3
TORSDOF 10
ENDMDL
MODEL       39
REMARK 921   NORMALIZED FREE ENERGY PREDICTED BY IDOCK:   -6.28 KCAL/MOL
REMARK 922        TOTAL FREE ENERGY PREDICTED BY IDOCK:  -11.93 KCAL/MOL
REMARK 923 INTER-LIGAND FREE ENERGY PREDICTED BY IDOCK:   -9.80 KCAL/MOL
REMARK 924 INTRA-LIGAND FREE ENERGY PREDICTED BY IDOCK:   -2.13 KCAL/MOL
REMARK 927      BINDING AFFINITY PREDICTED BY RF-SCORE:    0.00 PKD
ROOT
HETATM    1  C   UNL     1     -12.411  16.265  73.337  1.00  0.00    -0.530 C  
HETATM    2  O   UNL     1     -12.675  15.964  71.967  1.00  0.00    -0.440 OA 
ENDROOT
BRANCH   2   3
HETATM    3  C   UNL     1     -12.657  14.634  71.636  1.00  0.00    -0.337 A  
HETATM    4  C   UNL     1     -12.036  14.231  70.435  1.00  0.00    -0.402 A  
HETATM    5  C   UNL     1     -12.027  12.867  70.089  1.00  0.00    -0.373 A  
HETATM    6  C   UNL     1     -13.320  13.677  72.421  1.00  0.00    -0.641 A  
HETATM    7 CL   UNL     1     -12.696  10.276  70.433  1.00  0.00    -0.297 Cl 
HETATM    8  C   UNL     1     -13.339  12.334  72.046  1.00  0.00    -0.491 A  
HETATM    9  C   UNL     1     -12.683  11.934  70.889  1.00  0.00    -0.209 A  
BRANCH   4  10
HETATM   10  C   UNL     1     -11.371  15.218  69.521  1.00  0.00    -0.288 C  
HETATM   11  H   UNL     1      -9.481  14.537  70.091  1.00  0.00     0.000 HD 
HETATM   12  O   UNL     1     -12.015  16.031  68.871  1.00  0.00    -0.348 OA 
HETATM   13  N   UNL     1      -9.986  15.149  69.450  1.00  0.00    -0.238 N  
BRANCH  13  14
HETATM   14  C   UNL     1      -9.242  15.933  68.480  1.00  0.00    -0.200 C  
BRANCH  14  15
HETATM   15  C   UNL     1      -9.123  15.253  67.111  1.00  0.00    -0.226 C  
BRANCH  15  16
HETATM   16  C   UNL     1      -9.135  13.734  67.126  1.00  0.00    -0.243 A  
HETATM   17  C   UNL     1      -8.026  12.961  67.506  1.00  0.00    -0.178 A  
HETATM   18  C   UNL     1      -8.061  11.565  67.432  1.00  0.00    -0.146 A  
HETATM   19  C   UNL     1      -9.215  10.923  66.986  1.00  0.00    -0.152 A  
HETATM   20  C   UNL     1     -10.301  13.068  66.713  1.00  0.00    -0.256 A  
HETATM   21  C   UNL     1     -10.339  11.672  66.628  1.00  0.00    -0.257 A  
BRANCH  19  22
HETATM   22  S   UNL     1      -9.191   9.163  66.729  1.00  0.00    -0.165 S  
HETATM   23  O   UNL     1      -8.225   8.608  67.658  1.00  0.00    -0.109 OA 
HETATM   24  O   UNL     1      -9.085   8.891  65.314  1.00  0.00    -0.203 OA 
BRANCH  22  25
HETATM   25  N   UNL     1     -10.669   8.639  67.283  1.00  0.00    -0.427 N  
HETATM   26  H   UNL     1     -11.469   9.261  67.173  1.00  0.00     0.000 HD 
BRANCH  25  27
HETATM   27  C   UNL     1     -10.877   7.410  67.885  1.00  0.00    -0.081 C  
HETATM   28  O   UNL     1     -10.831   6.356  67.279  1.00  0.00    -0.299 OA 
BRANCH  27  29
HETATM   29  N   UNL     1     -11.157   7.507  69.220  1.00  0.00    -0.442 N  
HETATM   30  H   UNL     1     -11.916   8.109  69.541  1.00  0.00     0.000 HD 
BRANCH  29  31
HETATM   31  C   UNL     1     -10.371   6.748  70.184  1.00  0.00    -0.202 C  
HETATM   32  C   UNL     1      -9.376   7.642  70.930  1.00  0.00    -0.158 C  
HETATM   33  C   UNL     1     -10.047   8.533  71.973  1.00  0.00    -0.386 C  
HETATM   34  C   UNL     1     -10.896   7.715  72.939  1.00  0.00    -0.446 C  
HETATM   35  C   UNL     1     -11.925   6.863  72.203  1.00  0.00    -0.302 C  
HETATM   36  C   UNL     1     -11.272   5.973  71.149  1.00  0.00    -0.328 C  
ENDBRANCH  29  31
ENDBRANCH  27  29
ENDBRANCH  25  27
ENDBRANCH  22  25
ENDBRANCH  19  22
ENDBRANCH  15  16
ENDBRANCH  14  15
ENDBRANCH  13  14
ENDBRANCH   4  10
ENDBRANCH   2   3
TORSDOF 10
ENDMDL
MODEL       40
REMARK 921   NORMALIZED FREE ENERGY PREDICTED BY IDOCK:   -6.28 KCAL/MOL
REMARK 922        TOTAL FREE ENERGY PREDICTED BY IDOCK:  -11.92 KCAL/MOL
REMARK 923 INTER-LIGAND FREE ENERGY PREDICTED BY IDOCK:  -10.25 KCAL/MOL
REMARK 924 INTRA-LIGAND FREE ENERGY PREDICTED BY IDOCK:   -1.67 KCAL/MOL
REMARK 927      BINDING AFFINITY PREDICTED BY RF-SCORE:    0.00 PKD
ROOT
HETATM    1  C   UNL     1      -7.549   5.603  71.465  1.00  0.00    -0.105 C  
HETATM    2  O   UNL     1      -8.471   5.528  70.378  1.00  0.00    -0.117 OA 
ENDROOT
BRANCH   2   3
HETATM    3  C   UNL     1      -8.433   6.572  69.491  1.00  0.00    -0.131 A  
HETATM    4  C   UNL     1      -9.505   7.489  69.459  1.00  0.00    -0.156 A  
HETATM    5  C   UNL     1      -9.472   8.555  68.541  1.00  0.00    -0.146 A  
HETATM    6  C   UNL     1      -7.395   6.698  68.555  1.00  0.00    -0.087 A  
HETATM    7 CL   UNL     1      -8.417   9.951  66.487  1.00  0.00    -0.124 Cl 
HETATM    8  C   UNL     1      -7.393   7.735  67.623  1.00  0.00    -0.092 A  
HETATM    9  C   UNL     1      -8.425   8.665  67.629  1.00  0.00    -0.125 A  
BRANCH   4  10
HETATM   10  C   UNL     1     -10.676   7.366  70.390  1.00  0.00    -0.237 C  
HETATM   11  H   UNL     1      -9.846   8.775  71.688  1.00  0.00     0.000 HD 
HETATM   12  O   UNL     1     -11.584   6.571  70.183  1.00  0.00    -0.396 OA 
HETATM   13  N   UNL     1     -10.673   8.211  71.492  1.00  0.00    -0.225 N  
BRANCH  13  14
HETATM   14  C   UNL     1     -11.825   8.307  72.370  1.00  0.00    -0.396 C  
BRANCH  14  15
HETATM   15  C   UNL     1     -13.043   8.964  71.708  1.00  0.00    -0.423 C  
BRANCH  15  16
HETATM   16  C   UNL     1     -12.864  10.413  71.292  1.00  0.00    -0.533 A  
HETATM   17  C   UNL     1     -12.070  10.807  70.202  1.00  0.00    -0.427 A  
HETATM   18  C   UNL     1     -11.876  12.159  69.903  1.00  0.00    -0.392 A  
HETATM   19  C   UNL     1     -12.486  13.137  70.687  1.00  0.00    -0.286 A  
HETATM   20  C   UNL     1     -13.499  11.412  72.048  1.00  0.00    -0.289 A  
HETATM   21  C   UNL     1     -13.301  12.767  71.760  1.00  0.00    -0.436 A  
BRANCH  19  22
HETATM   22  S   UNL     1     -12.094  14.850  70.408  1.00  0.00    -0.357 S  
HETATM   23  O   UNL     1     -10.658  14.990  70.559  1.00  0.00    -0.153 OA 
HETATM   24  O   UNL     1     -12.995  15.675  71.179  1.00  0.00    -0.480 OA 
BRANCH  22  25
HETATM   25  N   UNL     1     -12.379  15.085  68.787  1.00  0.00    -0.598 N  
HETATM   26  H   UNL     1     -13.338  15.000  68.452  1.00  0.00     0.000 HD 
BRANCH  25  27
HETATM   27  C   UNL     1     -11.392  15.391  67.865  1.00  0.00    -0.325 C  
HETATM   28  O   UNL     1     -10.907  16.501  67.754  1.00  0.00    -0.341 OA 
BRANCH  27  29
HETATM   29  N   UNL     1     -11.037  14.325  67.085  1.00  0.00    -0.302 N  
HETATM   30  H   UNL     1     -10.058  14.171  66.845  1.00  0.00     0.000 HD 
BRANCH  29  31
HETATM   31  C   UNL     1     -12.060  13.410  66.598  1.00  0.00    -0.373 C  
HETATM   32  C   UNL     1     -12.879  14.030  65.462  1.00  0.00    -0.453 C  
HETATM   33  C   UNL     1     -12.111  14.091  64.143  1.00  0.00    -0.456 C  
HETATM   34  C   UNL     1     -11.566  12.722  63.755  1.00  0.00    -0.548 C  
HETATM   35  C   UNL     1     -10.704  12.123  64.862  1.00  0.00    -0.336 C  
HETATM   36  C   UNL     1     -11.453  12.064  66.191  1.00  0.00    -0.401 C  
ENDBRANCH  29  31
ENDBRANCH  27  29
ENDBRANCH  25  27
ENDBRANCH  22  25
ENDBRANCH  19  22
ENDBRANCH  15  16
ENDBRANCH  14  15
ENDBRANCH  13  14
ENDBRANCH   4  10
ENDBRANCH   2   3
TORSDOF 10
ENDMDL
MODEL       41
REMARK 921   NORMALIZED FREE ENERGY PREDICTED BY IDOCK:   -6.27 KCAL/MOL
REMARK 922        TOTAL FREE ENERGY PREDICTED BY IDOCK:  -11.91 KCAL/MOL
REMARK 923 INTER-LIGAND FREE ENERGY PREDICTED BY IDOCK:  -10.32 KCAL/MOL
REMARK 924 INTRA-LIGAND FREE ENERGY PREDICTED BY IDOCK:   -1.59 KCAL/MOL
REMARK 927      BINDING AFFINITY PREDICTED BY RF-SCORE:    0.00 PKD
ROOT
HETATM    1  C   UNL     1     -11.703  14.293  66.127  1.00  0.00    -0.390 C  
HETATM    2  O   UNL     1     -10.742  14.780  67.064  1.00  0.00    -0.289 OA 
ENDROOT
BRANCH   2   3
HETATM    3  C   UNL     1     -10.592  16.141  67.109  1.00  0.00    -0.294 A  
HETATM    4  C   UNL     1     -10.526  16.787  68.362  1.00  0.00    -0.339 A  
HETATM    5  C   UNL     1     -10.383  18.185  68.409  1.00  0.00    -0.371 A  
HETATM    6  C   UNL     1     -10.591  16.915  65.938  1.00  0.00    -0.239 A  
HETATM    7 CL   UNL     1     -10.237  20.644  67.307  1.00  0.00    -0.361 Cl 
HETATM    8  C   UNL     1     -10.489  18.305  65.999  1.00  0.00    -0.380 A  
HETATM    9  C   UNL     1     -10.374  18.931  67.232  1.00  0.00    -0.418 A  
BRANCH   4  10
HETATM   10  C   UNL     1     -10.591  16.018  69.650  1.00  0.00    -0.311 C  
HETATM   11  H   UNL     1     -12.539  16.685  69.998  1.00  0.00     0.000 HD 
HETATM   12  O   UNL     1      -9.632  15.386  70.074  1.00  0.00    -0.217 OA 
HETATM   13  N   UNL     1     -11.803  16.057  70.325  1.00  0.00    -0.311 N  
BRANCH  13  14
HETATM   14  C   UNL     1     -12.046  15.222  71.487  1.00  0.00    -0.359 C  
BRANCH  14  15
HETATM   15  C   UNL     1     -13.089  14.125  71.242  1.00  0.00    -0.420 C  
BRANCH  15  16
HETATM   16  C   UNL     1     -12.545  12.796  70.748  1.00  0.00    -0.308 A  
HETATM   17  C   UNL     1     -12.573  11.621  71.516  1.00  0.00    -0.341 A  
HETATM   18  C   UNL     1     -11.992  10.439  71.047  1.00  0.00    -0.481 A  
HETATM   19  C   UNL     1     -11.383  10.416  69.793  1.00  0.00    -0.289 A  
HETATM   20  C   UNL     1     -11.959  12.743  69.472  1.00  0.00    -0.338 A  
HETATM   21  C   UNL     1     -11.368  11.567  69.000  1.00  0.00    -0.339 A  
BRANCH  19  22
HETATM   22  S   UNL     1     -10.496   8.961  69.279  1.00  0.00    -0.208 S  
HETATM   23  O   UNL     1     -11.123   7.826  69.930  1.00  0.00    -0.230 OA 
HETATM   24  O   UNL     1      -9.078   9.195  69.423  1.00  0.00    -0.141 OA 
BRANCH  22  25
HETATM   25  N   UNL     1     -10.869   8.791  67.668  1.00  0.00    -0.489 N  
HETATM   26  H   UNL     1     -11.720   9.235  67.324  1.00  0.00     0.000 HD 
BRANCH  25  27
HETATM   27  C   UNL     1     -10.093   8.083  66.766  1.00  0.00    -0.287 C  
HETATM   28  O   UNL     1      -9.626   6.986  67.007  1.00  0.00    -0.142 OA 
BRANCH  27  29
HETATM   29  N   UNL     1      -9.893   8.752  65.590  1.00  0.00    -0.429 N  
HETATM   30  H   UNL     1     -10.149   8.316  64.704  1.00  0.00     0.000 HD 
BRANCH  29  31
HETATM   31  C   UNL     1      -9.312  10.088  65.604  1.00  0.00    -0.204 C  
HETATM   32  C   UNL     1      -7.961  10.126  64.884  1.00  0.00    -0.150 C  
HETATM   33  C   UNL     1      -8.098  10.053  63.365  1.00  0.00    -0.158 C  
HETATM   34  C   UNL     1      -9.040  11.129  62.840  1.00  0.00    -0.324 C  
HETATM   35  C   UNL     1     -10.406  11.062  63.515  1.00  0.00    -0.402 C  
HETATM   36  C   UNL     1     -10.288  11.123  65.037  1.00  0.00    -0.362 C  
ENDBRANCH  29  31
ENDBRANCH  27  29
ENDBRANCH  25  27
ENDBRANCH  22  25
ENDBRANCH  19  22
ENDBRANCH  15  16
ENDBRANCH  14  15
ENDBRANCH  13  14
ENDBRANCH   4  10
ENDBRANCH   2   3
TORSDOF 10
ENDMDL
MODEL       42
REMARK 921   NORMALIZED FREE ENERGY PREDICTED BY IDOCK:   -6.27 KCAL/MOL
REMARK 922        TOTAL FREE ENERGY PREDICTED BY IDOCK:  -11.91 KCAL/MOL
REMARK 923 INTER-LIGAND FREE ENERGY PREDICTED BY IDOCK:  -10.98 KCAL/MOL
REMARK 924 INTRA-LIGAND FREE ENERGY PREDICTED BY IDOCK:   -0.93 KCAL/MOL
REMARK 927      BINDING AFFINITY PREDICTED BY RF-SCORE:    0.00 PKD
ROOT
HETATM    1  C   UNL     1     -11.492   5.560  72.689  1.00  0.00    -0.272 C  
HETATM    2  O   UNL     1     -11.262   6.881  73.176  1.00  0.00    -0.230 OA 
ENDROOT
BRANCH   2   3
HETATM    3  C   UNL     1      -9.969   7.329  73.094  1.00  0.00    -0.249 A  
HETATM    4  C   UNL     1      -9.623   8.258  72.090  1.00  0.00    -0.338 A  
HETATM    5  C   UNL     1      -8.294   8.710  71.998  1.00  0.00    -0.169 A  
HETATM    6  C   UNL     1      -8.964   6.817  73.931  1.00  0.00    -0.183 A  
HETATM    7 CL   UNL     1      -5.688   8.728  72.698  1.00  0.00    -0.077 Cl 
HETATM    8  C   UNL     1      -7.642   7.243  73.804  1.00  0.00    -0.124 A  
HETATM    9  C   UNL     1      -7.316   8.195  72.847  1.00  0.00    -0.119 A  
BRANCH   4  10
HETATM   10  C   UNL     1     -10.641   8.789  71.123  1.00  0.00    -0.241 C  
HETATM   11  H   UNL     1     -11.572   9.883  72.639  1.00  0.00     0.000 HD 
HETATM   12  O   UNL     1     -10.661   8.440  69.950  1.00  0.00    -0.232 OA 
HETATM   13  N   UNL     1     -11.551   9.705  71.634  1.00  0.00    -0.379 N  
BRANCH  13  14
HETATM   14  C   UNL     1     -12.472  10.415  70.766  1.00  0.00    -0.368 C  
BRANCH  14  15
HETATM   15  C   UNL     1     -12.180  11.917  70.666  1.00  0.00    -0.424 C  
BRANCH  15  16
HETATM   16  C   UNL     1     -11.852  12.433  69.275  1.00  0.00    -0.361 A  
HETATM   17  C   UNL     1     -12.067  13.764  68.879  1.00  0.00    -0.348 A  
HETATM   18  C   UNL     1     -11.819  14.173  67.566  1.00  0.00    -0.437 A  
HETATM   19  C   UNL     1     -11.342  13.255  66.631  1.00  0.00    -0.321 A  
HETATM   20  C   UNL     1     -11.337  11.532  68.329  1.00  0.00    -0.352 A  
HETATM   21  C   UNL     1     -11.096  11.933  67.011  1.00  0.00    -0.354 A  
BRANCH  19  22
HETATM   22  S   UNL     1     -11.197  13.741  64.926  1.00  0.00    -0.367 S  
HETATM   23  O   UNL     1     -12.494  14.243  64.513  1.00  0.00    -0.607 OA 
HETATM   24  O   UNL     1     -10.552  12.682  64.184  1.00  0.00    -0.355 OA 
BRANCH  22  25
HETATM   25  N   UNL     1     -10.209  15.078  64.953  1.00  0.00    -0.409 N  
HETATM   26  H   UNL     1      -9.201  14.929  64.915  1.00  0.00     0.000 HD 
BRANCH  25  27
HETATM   27  C   UNL     1     -10.672  16.380  65.025  1.00  0.00    -0.259 C  
HETATM   28  O   UNL     1     -11.254  16.931  64.109  1.00  0.00    -1.176 OA 
BRANCH  27  29
HETATM   29  N   UNL     1     -10.392  16.985  66.220  1.00  0.00    -0.321 N  
HETATM   30  H   UNL     1     -10.449  16.452  67.088  1.00  0.00     0.000 HD 
BRANCH  29  31
HETATM   31  C   UNL     1     -10.010  18.390  66.249  1.00  0.00    -0.366 C  
HETATM   32  C   UNL     1     -10.852  19.183  67.255  1.00  0.00    -0.529 C  
HETATM   33  C   UNL     1     -10.461  18.904  68.704  1.00  0.00    -0.120 C  
HETATM   34  C   UNL     1      -8.969  19.124  68.928  1.00  0.00    -0.327 C  
HETATM   35  C   UNL     1      -8.126  18.295  67.966  1.00  0.00    -0.279 C  
HETATM   36  C   UNL     1      -8.510  18.553  66.511  1.00  0.00    -0.291 C  
ENDBRANCH  29  31
ENDBRANCH  27  29
ENDBRANCH  25  27
ENDBRANCH  22  25
ENDBRANCH  19  22
ENDBRANCH  15  16
ENDBRANCH  14  15
ENDBRANCH  13  14
ENDBRANCH   4  10
ENDBRANCH   2   3
TORSDOF 10
ENDMDL
MODEL       43
REMARK 921   NORMALIZED FREE ENERGY PREDICTED BY IDOCK:   -6.26 KCAL/MOL
REMARK 922        TOTAL FREE ENERGY PREDICTED BY IDOCK:  -11.89 KCAL/MOL
REMARK 923 INTER-LIGAND FREE ENERGY PREDICTED BY IDOCK:   -9.38 KCAL/MOL
REMARK 924 INTRA-LIGAND FREE ENERGY PREDICTED BY IDOCK:   -2.51 KCAL/MOL
REMARK 927      BINDING AFFINITY PREDICTED BY RF-SCORE:    0.00 PKD
ROOT
HETATM    1  C   UNL     1     -11.640  14.137  69.781  1.00  0.00    -0.290 C  
HETATM    2  O   UNL     1     -11.954  14.560  68.455  1.00  0.00    -0.321 OA 
ENDROOT
BRANCH   2   3
HETATM    3  C   UNL     1     -11.320  15.698  68.027  1.00  0.00    -0.324 A  
HETATM    4  C   UNL     1     -10.876  15.779  66.690  1.00  0.00    -0.241 A  
HETATM    5  C   UNL     1     -10.216  16.942  66.254  1.00  0.00    -0.337 A  
HETATM    6  C   UNL     1     -11.026  16.746  68.913  1.00  0.00    -0.259 A  
HETATM    7 CL   UNL     1      -9.103  19.375  66.611  1.00  0.00    -0.364 Cl 
HETATM    8  C   UNL     1     -10.336  17.877  68.478  1.00  0.00    -0.365 A  
HETATM    9  C   UNL     1      -9.945  17.975  67.150  1.00  0.00    -0.325 A  
BRANCH   4  10
HETATM   10  C   UNL     1     -11.101  14.661  65.715  1.00  0.00    -0.331 C  
HETATM   11  H   UNL     1      -9.175  13.928  66.046  1.00  0.00     0.000 HD 
HETATM   12  O   UNL     1     -12.142  14.559  65.078  1.00  0.00    -0.391 OA 
HETATM   13  N   UNL     1     -10.066  13.745  65.585  1.00  0.00    -0.308 N  
BRANCH  13  14
HETATM   14  C   UNL     1     -10.228  12.531  64.806  1.00  0.00    -0.280 C  
BRANCH  14  15
HETATM   15  C   UNL     1      -9.502  11.320  65.405  1.00  0.00    -0.251 C  
BRANCH  15  16
HETATM   16  C   UNL     1      -9.862  10.981  66.841  1.00  0.00    -0.222 A  
HETATM   17  C   UNL     1      -8.919  10.545  67.787  1.00  0.00    -0.132 A  
HETATM   18  C   UNL     1      -9.312  10.174  69.076  1.00  0.00    -0.192 A  
HETATM   19  C   UNL     1     -10.655  10.245  69.440  1.00  0.00    -0.237 A  
HETATM   20  C   UNL     1     -11.206  11.081  67.238  1.00  0.00    -0.330 A  
HETATM   21  C   UNL     1     -11.606  10.702  68.524  1.00  0.00    -0.279 A  
BRANCH  19  22
HETATM   22  S   UNL     1     -11.167   9.606  71.020  1.00  0.00    -0.396 S  
HETATM   23  O   UNL     1     -12.169  10.515  71.545  1.00  0.00    -0.355 OA 
HETATM   24  O   UNL     1      -9.997   9.278  71.801  1.00  0.00    -0.273 OA 
BRANCH  22  25
HETATM   25  N   UNL     1     -11.999   8.213  70.659  1.00  0.00    -0.486 N  
HETATM   26  H   UNL     1     -12.974   8.299  70.372  1.00  0.00     0.000 HD 
BRANCH  25  27
HETATM   27  C   UNL     1     -11.449   6.945  70.724  1.00  0.00    -0.335 C  
HETATM   28  O   UNL     1     -11.903   6.058  71.422  1.00  0.00    -0.191 OA 
BRANCH  27  29
HETATM   29  N   UNL     1     -10.338   6.801  69.940  1.00  0.00    -0.197 N  
HETATM   30  H   UNL     1      -9.518   7.385  70.103  1.00  0.00     0.000 HD 
BRANCH  29  31
HETATM   31  C   UNL     1     -10.327   5.811  68.871  1.00  0.00    -0.227 C  
HETATM   32  C   UNL     1     -11.141   6.278  67.660  1.00  0.00    -0.368 C  
HETATM   33  C   UNL     1     -10.430   7.360  66.851  1.00  0.00    -0.379 C  
HETATM   34  C   UNL     1      -9.029   6.920  66.445  1.00  0.00    -0.172 C  
HETATM   35  C   UNL     1      -8.196   6.506  67.654  1.00  0.00    -0.122 C  
HETATM   36  C   UNL     1      -8.896   5.430  68.481  1.00  0.00    -0.103 C  
ENDBRANCH  29  31
ENDBRANCH  27  29
ENDBRANCH  25  27
ENDBRANCH  22  25
ENDBRANCH  19  22
ENDBRANCH  15  16
ENDBRANCH  14  15
ENDBRANCH  13  14
ENDBRANCH   4  10
ENDBRANCH   2   3
TORSDOF 10
ENDMDL
MODEL       44
REMARK 921   NORMALIZED FREE ENERGY PREDICTED BY IDOCK:   -6.26 KCAL/MOL
REMARK 922        TOTAL FREE ENERGY PREDICTED BY IDOCK:  -11.89 KCAL/MOL
REMARK 923 INTER-LIGAND FREE ENERGY PREDICTED BY IDOCK:   -9.90 KCAL/MOL
REMARK 924 INTRA-LIGAND FREE ENERGY PREDICTED BY IDOCK:   -1.98 KCAL/MOL
REMARK 927      BINDING AFFINITY PREDICTED BY RF-SCORE:    0.00 PKD
ROOT
HETATM    1  C   UNL     1     -11.942  11.246  68.610  1.00  0.00    -0.243 C  
HETATM    2  O   UNL     1     -11.202  12.133  69.448  1.00  0.00    -0.237 OA 
ENDROOT
BRANCH   2   3
HETATM    3  C   UNL     1     -11.947  13.026  70.174  1.00  0.00    -0.303 A  
HETATM    4  C   UNL     1     -11.873  14.401  69.862  1.00  0.00    -0.382 A  
HETATM    5  C   UNL     1     -12.629  15.319  70.614  1.00  0.00    -0.471 A  
HETATM    6  C   UNL     1     -12.713  12.613  71.276  1.00  0.00    -0.354 A  
HETATM    7 CL   UNL     1     -14.278  16.022  72.631  1.00  0.00    -0.368 Cl 
HETATM    8  C   UNL     1     -13.426  13.538  72.038  1.00  0.00    -0.584 A  
HETATM    9  C   UNL     1     -13.389  14.883  71.697  1.00  0.00    -0.375 A  
BRANCH   4  10
HETATM   10  C   UNL     1     -11.018  14.909  68.738  1.00  0.00    -0.253 C  
HETATM   11  H   UNL     1     -12.386  14.210  67.325  1.00  0.00     0.000 HD 
HETATM   12  O   UNL     1      -9.932  15.436  68.941  1.00  0.00    -0.201 OA 
HETATM   13  N   UNL     1     -11.534  14.755  67.459  1.00  0.00    -0.344 N  
BRANCH  13  14
HETATM   14  C   UNL     1     -10.884  15.354  66.307  1.00  0.00    -0.301 C  
BRANCH  14  15
HETATM   15  C   UNL     1     -10.776  14.405  65.107  1.00  0.00    -0.413 C  
BRANCH  15  16
HETATM   16  C   UNL     1     -10.319  12.992  65.423  1.00  0.00    -0.313 A  
HETATM   17  C   UNL     1     -10.893  11.850  64.841  1.00  0.00    -0.356 A  
HETATM   18  C   UNL     1     -10.488  10.567  65.220  1.00  0.00    -0.232 A  
HETATM   19  C   UNL     1      -9.491  10.410  66.182  1.00  0.00    -0.181 A  
HETATM   20  C   UNL     1      -9.291  12.814  66.364  1.00  0.00    -0.196 A  
HETATM   21  C   UNL     1      -8.887  11.533  66.755  1.00  0.00    -0.183 A  
BRANCH  19  22
HETATM   22  S   UNL     1      -9.107   8.780  66.784  1.00  0.00    -0.154 S  
HETATM   23  O   UNL     1      -8.289   8.944  67.970  1.00  0.00    -0.120 OA 
HETATM   24  O   UNL     1      -8.645   7.965  65.684  1.00  0.00    -0.147 OA 
BRANCH  22  25
HETATM   25  N   UNL     1     -10.556   8.187  67.341  1.00  0.00    -0.427 N  
HETATM   26  H   UNL     1     -11.407   8.696  67.099  1.00  0.00     0.000 HD 
BRANCH  25  27
HETATM   27  C   UNL     1     -10.679   7.044  68.112  1.00  0.00    -0.188 C  
HETATM   28  O   UNL     1     -11.071   5.981  67.668  1.00  0.00    -0.297 OA 
BRANCH  27  29
HETATM   29  N   UNL     1     -10.334   7.240  69.421  1.00  0.00    -0.202 N  
HETATM   30  H   UNL     1      -9.514   6.773  69.809  1.00  0.00     0.000 HD 
BRANCH  29  31
HETATM   31  C   UNL     1     -11.139   8.117  70.260  1.00  0.00    -0.221 C  
HETATM   32  C   UNL     1     -12.122   7.323  71.127  1.00  0.00    -0.376 C  
HETATM   33  C   UNL     1     -11.441   6.607  72.291  1.00  0.00    -0.319 C  
HETATM   34  C   UNL     1     -10.613   7.574  73.129  1.00  0.00    -0.442 C  
HETATM   35  C   UNL     1      -9.595   8.327  72.280  1.00  0.00    -0.355 C  
HETATM   36  C   UNL     1     -10.257   9.042  71.104  1.00  0.00    -0.363 C  
ENDBRANCH  29  31
ENDBRANCH  27  29
ENDBRANCH  25  27
ENDBRANCH  22  25
ENDBRANCH  19  22
ENDBRANCH  15  16
ENDBRANCH  14  15
ENDBRANCH  13  14
ENDBRANCH   4  10
ENDBRANCH   2   3
TORSDOF 10
ENDMDL
MODEL       45
REMARK 921   NORMALIZED FREE ENERGY PREDICTED BY IDOCK:   -6.25 KCAL/MOL
REMARK 922        TOTAL FREE ENERGY PREDICTED BY IDOCK:  -11.88 KCAL/MOL
REMARK 923 INTER-LIGAND FREE ENERGY PREDICTED BY IDOCK:   -9.97 KCAL/MOL
REMARK 924 INTRA-LIGAND FREE ENERGY PREDICTED BY IDOCK:   -1.90 KCAL/MOL
REMARK 927      BINDING AFFINITY PREDICTED BY RF-SCORE:    0.00 PKD
ROOT
HETATM    1  C   UNL     1     -11.992  12.737  66.053  1.00  0.00    -0.432 C  
HETATM    2  O   UNL     1     -11.399  13.493  67.108  1.00  0.00    -0.298 OA 
ENDROOT
BRANCH   2   3
HETATM    3  C   UNL     1     -11.083  14.792  66.805  1.00  0.00    -0.338 A  
HETATM    4  C   UNL     1     -10.771  15.688  67.850  1.00  0.00    -0.294 A  
HETATM    5  C   UNL     1     -10.459  17.024  67.541  1.00  0.00    -0.334 A  
HETATM    6  C   UNL     1     -11.149  15.271  65.488  1.00  0.00    -0.330 A  
HETATM    7 CL   UNL     1     -10.173  19.120  65.866  1.00  0.00    -0.452 Cl 
HETATM    8  C   UNL     1     -10.876  16.608  65.198  1.00  0.00    -0.199 A  
HETATM    9  C   UNL     1     -10.521  17.474  66.224  1.00  0.00    -0.283 A  
BRANCH   4  10
HETATM   10  C   UNL     1     -10.752  15.248  69.285  1.00  0.00    -0.252 C  
HETATM   11  H   UNL     1     -12.834  15.361  69.392  1.00  0.00     0.000 HD 
HETATM   12  O   UNL     1      -9.704  15.048  69.885  1.00  0.00    -0.083 OA 
HETATM   13  N   UNL     1     -11.990  15.074  69.888  1.00  0.00    -0.314 N  
BRANCH  13  14
HETATM   14  C   UNL     1     -12.108  14.492  71.213  1.00  0.00    -0.354 C  
BRANCH  14  15
HETATM   15  C   UNL     1     -13.248  13.474  71.332  1.00  0.00    -0.348 C  
BRANCH  15  16
HETATM   16  C   UNL     1     -12.844  12.015  71.214  1.00  0.00    -0.364 A  
HETATM   17  C   UNL     1     -13.401  10.997  72.006  1.00  0.00    -0.393 A  
HETATM   18  C   UNL     1     -12.942   9.680  71.912  1.00  0.00    -0.527 A  
HETATM   19  C   UNL     1     -11.925   9.361  71.014  1.00  0.00    -0.315 A  
HETATM   20  C   UNL     1     -11.845  11.668  70.289  1.00  0.00    -0.414 A  
HETATM   21  C   UNL     1     -11.376  10.353  70.197  1.00  0.00    -0.397 A  
BRANCH  19  22
HETATM   22  S   UNL     1     -11.230   7.723  71.027  1.00  0.00    -0.269 S  
HETATM   23  O   UNL     1     -11.936   6.967  72.044  1.00  0.00    -0.298 OA 
HETATM   24  O   UNL     1      -9.789   7.819  71.056  1.00  0.00    -0.174 OA 
BRANCH  22  25
HETATM   25  N   UNL     1     -11.710   7.053  69.583  1.00  0.00    -0.576 N  
HETATM   26  H   UNL     1     -12.697   6.824  69.466  1.00  0.00     0.000 HD 
BRANCH  25  27
HETATM   27  C   UNL     1     -10.852   6.787  68.531  1.00  0.00    -0.222 C  
HETATM   28  O   UNL     1     -10.394   5.682  68.309  1.00  0.00    -0.178 OA 
BRANCH  27  29
HETATM   29  N   UNL     1     -10.560   7.894  67.782  1.00  0.00    -0.398 N  
HETATM   30  H   UNL     1     -11.307   8.525  67.490  1.00  0.00     0.000 HD 
BRANCH  29  31
HETATM   31  C   UNL     1      -9.181   8.172  67.405  1.00  0.00    -0.137 C  
HETATM   32  C   UNL     1      -9.012   8.227  65.883  1.00  0.00    -0.208 C  
HETATM   33  C   UNL     1      -9.581   9.504  65.270  1.00  0.00    -0.314 C  
HETATM   34  C   UNL     1      -9.006  10.746  65.941  1.00  0.00    -0.200 C  
HETATM   35  C   UNL     1      -9.220  10.722  67.451  1.00  0.00    -0.156 C  
HETATM   36  C   UNL     1      -8.666   9.446  68.080  1.00  0.00    -0.124 C  
ENDBRANCH  29  31
ENDBRANCH  27  29
ENDBRANCH  25  27
ENDBRANCH  22  25
ENDBRANCH  19  22
ENDBRANCH  15  16
ENDBRANCH  14  15
ENDBRANCH  13  14
ENDBRANCH   4  10
ENDBRANCH   2   3
TORSDOF 10
ENDMDL
MODEL       46
REMARK 921   NORMALIZED FREE ENERGY PREDICTED BY IDOCK:   -6.24 KCAL/MOL
REMARK 922        TOTAL FREE ENERGY PREDICTED BY IDOCK:  -11.86 KCAL/MOL
REMARK 923 INTER-LIGAND FREE ENERGY PREDICTED BY IDOCK:  -10.97 KCAL/MOL
REMARK 924 INTRA-LIGAND FREE ENERGY PREDICTED BY IDOCK:   -0.89 KCAL/MOL
REMARK 927      BINDING AFFINITY PREDICTED BY RF-SCORE:    0.00 PKD
ROOT
HETATM    1  C   UNL     1      -9.013   1.619  67.980  1.00  0.00    -0.133 C  
HETATM    2  O   UNL     1      -8.848   2.986  68.352  1.00  0.00    -0.096 OA 
ENDROOT
BRANCH   2   3
HETATM    3  C   UNL     1      -9.339   3.332  69.584  1.00  0.00    -0.166 A  
HETATM    4  C   UNL     1      -9.648   4.683  69.850  1.00  0.00    -0.261 A  
HETATM    5  C   UNL     1     -10.141   5.039  71.118  1.00  0.00    -0.293 A  
HETATM    6  C   UNL     1      -9.458   2.385  70.614  1.00  0.00    -0.192 A  
HETATM    7 CL   UNL     1     -10.829   4.537  73.679  1.00  0.00    -0.335 Cl 
HETATM    8  C   UNL     1      -9.911   2.758  71.879  1.00  0.00    -0.229 A  
HETATM    9  C   UNL     1     -10.261   4.079  72.122  1.00  0.00    -0.140 A  
BRANCH   4  10
HETATM   10  C   UNL     1      -9.476   5.750  68.809  1.00  0.00    -0.124 C  
HETATM   11  H   UNL     1     -11.525   5.749  68.408  1.00  0.00     0.000 HD 
HETATM   12  O   UNL     1      -8.372   6.188  68.509  1.00  0.00    -0.113 OA 
HETATM   13  N   UNL     1     -10.640   6.218  68.214  1.00  0.00    -0.229 N  
BRANCH  13  14
HETATM   14  C   UNL     1     -10.622   7.361  67.320  1.00  0.00    -0.323 C  
BRANCH  14  15
HETATM   15  C   UNL     1     -10.414   8.697  68.044  1.00  0.00    -0.254 C  
BRANCH  15  16
HETATM   16  C   UNL     1     -10.744   9.942  67.239  1.00  0.00    -0.304 A  
HETATM   17  C   UNL     1     -11.532  10.992  67.737  1.00  0.00    -0.339 A  
HETATM   18  C   UNL     1     -11.870  12.083  66.931  1.00  0.00    -0.250 A  
HETATM   19  C   UNL     1     -11.413  12.142  65.615  1.00  0.00    -0.355 A  
HETATM   20  C   UNL     1     -10.262  10.036  65.923  1.00  0.00    -0.275 A  
HETATM   21  C   UNL     1     -10.605  11.121  65.108  1.00  0.00    -0.319 A  
BRANCH  19  22
HETATM   22  S   UNL     1     -11.991  13.442  64.547  1.00  0.00    -0.428 S  
HETATM   23  O   UNL     1     -13.110  14.080  65.216  1.00  0.00    -0.782 OA 
HETATM   24  O   UNL     1     -12.140  12.925  63.206  1.00  0.00    -0.561 OA 
BRANCH  22  25
HETATM   25  N   UNL     1     -10.775  14.576  64.571  1.00  0.00    -0.618 N  
HETATM   26  H   UNL     1      -9.821  14.258  64.399  1.00  0.00     0.000 HD 
BRANCH  25  27
HETATM   27  C   UNL     1     -10.979  15.924  64.809  1.00  0.00    -0.375 C  
HETATM   28  O   UNL     1     -11.328  16.707  63.945  1.00  0.00    -1.104 OA 
BRANCH  27  29
HETATM   29  N   UNL     1     -10.731  16.284  66.105  1.00  0.00    -0.248 N  
HETATM   30  H   UNL     1     -11.353  15.970  66.850  1.00  0.00     0.000 HD 
BRANCH  29  31
HETATM   31  C   UNL     1      -9.578  17.117  66.419  1.00  0.00    -0.278 C  
HETATM   32  C   UNL     1      -9.900  18.607  66.271  1.00  0.00    -0.364 C  
HETATM   33  C   UNL     1     -10.768  19.141  67.408  1.00  0.00    -0.578 C  
HETATM   34  C   UNL     1     -10.151  18.836  68.768  1.00  0.00    -0.407 C  
HETATM   35  C   UNL     1      -9.878  17.345  68.942  1.00  0.00    -0.286 C  
HETATM   36  C   UNL     1      -9.020  16.791  67.807  1.00  0.00    -0.216 C  
ENDBRANCH  29  31
ENDBRANCH  27  29
ENDBRANCH  25  27
ENDBRANCH  22  25
ENDBRANCH  19  22
ENDBRANCH  15  16
ENDBRANCH  14  15
ENDBRANCH  13  14
ENDBRANCH   4  10
ENDBRANCH   2   3
TORSDOF 10
ENDMDL
MODEL       47
REMARK 921   NORMALIZED FREE ENERGY PREDICTED BY IDOCK:   -6.21 KCAL/MOL
REMARK 922        TOTAL FREE ENERGY PREDICTED BY IDOCK:  -11.81 KCAL/MOL
REMARK 923 INTER-LIGAND FREE ENERGY PREDICTED BY IDOCK:  -10.41 KCAL/MOL
REMARK 924 INTRA-LIGAND FREE ENERGY PREDICTED BY IDOCK:   -1.39 KCAL/MOL
REMARK 927      BINDING AFFINITY PREDICTED BY RF-SCORE:    0.00 PKD
ROOT
HETATM    1  C   UNL     1      -9.978   6.343  74.486  1.00  0.00    -0.351 C  
HETATM    2  O   UNL     1     -10.467   7.098  73.378  1.00  0.00    -0.298 OA 
ENDROOT
BRANCH   2   3
HETATM    3  C   UNL     1     -10.336   6.504  72.149  1.00  0.00    -0.198 A  
HETATM    4  C   UNL     1     -11.243   6.840  71.121  1.00  0.00    -0.327 A  
HETATM    5  C   UNL     1     -11.116   6.223  69.864  1.00  0.00    -0.469 A  
HETATM    6  C   UNL     1      -9.377   5.505  71.919  1.00  0.00    -0.163 A  
HETATM    7 CL   UNL     1     -10.031   4.468  68.124  1.00  0.00    -0.145 Cl 
HETATM    8  C   UNL     1      -9.287   4.872  70.680  1.00  0.00    -0.222 A  
HETATM    9  C   UNL     1     -10.149   5.241  69.656  1.00  0.00    -0.257 A  
BRANCH   4  10
HETATM   10  C   UNL     1     -12.332   7.850  71.330  1.00  0.00    -0.312 C  
HETATM   11  H   UNL     1     -10.987   9.422  71.049  1.00  0.00     0.000 HD 
HETATM   12  O   UNL     1     -13.475   7.518  71.615  1.00  0.00    -0.362 OA 
HETATM   13  N   UNL     1     -11.970   9.182  71.173  1.00  0.00    -0.298 N  
BRANCH  13  14
HETATM   14  C   UNL     1     -12.965  10.239  71.182  1.00  0.00    -0.409 C  
BRANCH  14  15
HETATM   15  C   UNL     1     -12.358  11.647  71.163  1.00  0.00    -0.351 C  
BRANCH  15  16
HETATM   16  C   UNL     1     -12.087  12.229  69.786  1.00  0.00    -0.298 A  
HETATM   17  C   UNL     1     -11.771  11.440  68.667  1.00  0.00    -0.394 A  
HETATM   18  C   UNL     1     -11.456  12.027  67.438  1.00  0.00    -0.406 A  
HETATM   19  C   UNL     1     -11.465  13.415  67.310  1.00  0.00    -0.340 A  
HETATM   20  C   UNL     1     -12.126  13.624  69.628  1.00  0.00    -0.378 A  
HETATM   21  C   UNL     1     -11.803  14.218  68.403  1.00  0.00    -0.373 A  
BRANCH  19  22
HETATM   22  S   UNL     1     -10.895  14.156  65.796  1.00  0.00    -0.307 S  
HETATM   23  O   UNL     1     -11.358  15.530  65.791  1.00  0.00    -0.199 OA 
HETATM   24  O   UNL     1     -11.203  13.276  64.692  1.00  0.00    -0.320 OA 
BRANCH  22  25
HETATM   25  N   UNL     1      -9.246  14.260  65.976  1.00  0.00    -0.521 N  
HETATM   26  H   UNL     1      -8.660  13.717  65.343  1.00  0.00     0.000 HD 
BRANCH  25  27
HETATM   27  C   UNL     1      -8.620  15.040  66.933  1.00  0.00    -0.249 C  
HETATM   28  O   UNL     1      -8.169  14.588  67.969  1.00  0.00    -0.129 OA 
BRANCH  27  29
HETATM   29  N   UNL     1      -8.580  16.367  66.602  1.00  0.00    -0.231 N  
HETATM   30  H   UNL     1      -8.616  16.651  65.623  1.00  0.00     0.000 HD 
BRANCH  29  31
HETATM   31  C   UNL     1      -8.484  17.373  67.651  1.00  0.00    -0.212 C  
HETATM   32  C   UNL     1      -7.750  18.628  67.165  1.00  0.00    -0.237 C  
HETATM   33  C   UNL     1      -8.599  19.485  66.230  1.00  0.00    -0.382 C  
HETATM   34  C   UNL     1      -9.942  19.833  66.861  1.00  0.00    -0.537 C  
HETATM   35  C   UNL     1     -10.701  18.584  67.297  1.00  0.00    -0.417 C  
HETATM   36  C   UNL     1      -9.863  17.709  68.226  1.00  0.00    -0.324 C  
ENDBRANCH  29  31
ENDBRANCH  27  29
ENDBRANCH  25  27
ENDBRANCH  22  25
ENDBRANCH  19  22
ENDBRANCH  15  16
ENDBRANCH  14  15
ENDBRANCH  13  14
ENDBRANCH   4  10
ENDBRANCH   2   3
TORSDOF 10
ENDMDL
MODEL       48
REMARK 921   NORMALIZED FREE ENERGY PREDICTED BY IDOCK:   -6.20 KCAL/MOL
REMARK 922        TOTAL FREE ENERGY PREDICTED BY IDOCK:  -11.79 KCAL/MOL
REMARK 923 INTER-LIGAND FREE ENERGY PREDICTED BY IDOCK:  -10.48 KCAL/MOL
REMARK 924 INTRA-LIGAND FREE ENERGY PREDICTED BY IDOCK:   -1.31 KCAL/MOL
REMARK 927      BINDING AFFINITY PREDICTED BY RF-SCORE:    0.00 PKD
ROOT
HETATM    1  C   UNL     1     -10.608  10.925  69.342  1.00  0.00    -0.197 C  
HETATM    2  O   UNL     1     -11.223   9.638  69.366  1.00  0.00    -0.187 OA 
ENDROOT
BRANCH   2   3
HETATM    3  C   UNL     1     -10.965   8.875  70.475  1.00  0.00    -0.241 A  
HETATM    4  C   UNL     1     -11.828   8.962  71.588  1.00  0.00    -0.415 A  
HETATM    5  C   UNL     1     -11.557   8.187  72.731  1.00  0.00    -0.371 A  
HETATM    6  C   UNL     1      -9.813   8.077  70.560  1.00  0.00    -0.184 A  
HETATM    7 CL   UNL     1     -10.074   6.482  74.206  1.00  0.00    -0.357 Cl 
HETATM    8  C   UNL     1      -9.534   7.344  71.713  1.00  0.00    -0.166 A  
HETATM    9  C   UNL     1     -10.412   7.394  72.788  1.00  0.00    -0.275 A  
BRANCH   4  10
HETATM   10  C   UNL     1     -13.037   9.851  71.581  1.00  0.00    -0.437 C  
HETATM   11  H   UNL     1     -11.999  11.342  72.608  1.00  0.00     0.000 HD 
HETATM   12  O   UNL     1     -14.106   9.482  71.112  1.00  0.00    -0.150 OA 
HETATM   13  N   UNL     1     -12.869  11.116  72.127  1.00  0.00    -0.184 N  
BRANCH  13  14
HETATM   14  C   UNL     1     -13.910  12.123  72.027  1.00  0.00     0.193 C  
BRANCH  14  15
HETATM   15  C   UNL     1     -13.442  13.525  72.437  1.00  0.00    -0.685 C  
BRANCH  15  16
HETATM   16  C   UNL     1     -12.695  14.308  71.371  1.00  0.00    -0.424 A  
HETATM   17  C   UNL     1     -12.583  13.878  70.038  1.00  0.00    -0.226 A  
HETATM   18  C   UNL     1     -11.823  14.597  69.111  1.00  0.00    -0.347 A  
HETATM   19  C   UNL     1     -11.171  15.765  69.504  1.00  0.00    -0.317 A  
HETATM   20  C   UNL     1     -12.062  15.507  71.739  1.00  0.00    -0.476 A  
HETATM   21  C   UNL     1     -11.292  16.225  70.818  1.00  0.00    -0.327 A  
BRANCH  19  22
HETATM   22  S   UNL     1     -10.067  16.574  68.368  1.00  0.00    -0.269 S  
HETATM   23  O   UNL     1      -8.857  16.893  69.101  1.00  0.00    -0.210 OA 
HETATM   24  O   UNL     1     -10.788  17.608  67.661  1.00  0.00    -0.350 OA 
BRANCH  22  25
HETATM   25  N   UNL     1      -9.619  15.382  67.299  1.00  0.00    -0.210 N  
HETATM   26  H   UNL     1      -9.477  14.440  67.664  1.00  0.00     0.000 HD 
BRANCH  25  27
HETATM   27  C   UNL     1      -9.428  15.590  65.944  1.00  0.00    -0.342 C  
HETATM   28  O   UNL     1      -8.927  16.602  65.491  1.00  0.00    -0.376 OA 
BRANCH  27  29
HETATM   29  N   UNL     1      -9.876  14.554  65.172  1.00  0.00    -0.516 N  
HETATM   30  H   UNL     1      -9.537  14.444  64.217  1.00  0.00     0.000 HD 
BRANCH  29  31
HETATM   31  C   UNL     1     -10.839  13.606  65.719  1.00  0.00    -0.273 C  
HETATM   32  C   UNL     1     -12.244  13.839  65.154  1.00  0.00    -0.453 C  
HETATM   33  C   UNL     1     -12.388  13.364  63.710  1.00  0.00    -0.418 C  
HETATM   34  C   UNL     1     -11.960  11.909  63.560  1.00  0.00    -0.567 C  
HETATM   35  C   UNL     1     -10.541  11.682  64.070  1.00  0.00    -0.426 C  
HETATM   36  C   UNL     1     -10.375  12.162  65.510  1.00  0.00    -0.296 C  
ENDBRANCH  29  31
ENDBRANCH  27  29
ENDBRANCH  25  27
ENDBRANCH  22  25
ENDBRANCH  19  22
ENDBRANCH  15  16
ENDBRANCH  14  15
ENDBRANCH  13  14
ENDBRANCH   4  10
ENDBRANCH   2   3
TORSDOF 10
ENDMDL
MODEL       49
REMARK 921   NORMALIZED FREE ENERGY PREDICTED BY IDOCK:   -6.19 KCAL/MOL
REMARK 922        TOTAL FREE ENERGY PREDICTED BY IDOCK:  -11.78 KCAL/MOL
REMARK 923 INTER-LIGAND FREE ENERGY PREDICTED BY IDOCK:  -10.27 KCAL/MOL
REMARK 924 INTRA-LIGAND FREE ENERGY PREDICTED BY IDOCK:   -1.51 KCAL/MOL
REMARK 927      BINDING AFFINITY PREDICTED BY RF-SCORE:    0.00 PKD
ROOT
HETATM    1  C   UNL     1     -10.797   5.728  69.365  1.00  0.00    -0.323 C  
HETATM    2  O   UNL     1     -10.164   6.633  70.268  1.00  0.00    -0.184 OA 
ENDROOT
BRANCH   2   3
HETATM    3  C   UNL     1     -10.885   7.753  70.591  1.00  0.00    -0.237 A  
HETATM    4  C   UNL     1     -10.756   8.911  69.795  1.00  0.00    -0.230 A  
HETATM    5  C   UNL     1     -11.487  10.064  70.134  1.00  0.00    -0.344 A  
HETATM    6  C   UNL     1     -11.680   7.801  71.748  1.00  0.00    -0.323 A  
HETATM    7 CL   UNL     1     -13.136  11.514  71.703  1.00  0.00    -0.542 Cl 
HETATM    8  C   UNL     1     -12.369   8.963  72.095  1.00  0.00    -0.449 A  
HETATM    9  C   UNL     1     -12.278  10.084  71.281  1.00  0.00    -0.402 A  
BRANCH   4  10
HETATM   10  C   UNL     1      -9.867   8.941  68.586  1.00  0.00    -0.167 C  
HETATM   11  H   UNL     1     -11.496   8.583  67.329  1.00  0.00     0.000 HD 
HETATM   12  O   UNL     1      -8.655   9.080  68.679  1.00  0.00    -0.126 OA 
HETATM   13  N   UNL     1     -10.502   8.811  67.358  1.00  0.00    -0.280 N  
BRANCH  13  14
HETATM   14  C   UNL     1      -9.777   8.993  66.113  1.00  0.00    -0.283 C  
BRANCH  14  15
HETATM   15  C   UNL     1     -10.110  10.310  65.401  1.00  0.00    -0.354 C  
BRANCH  15  16
HETATM   16  C   UNL     1     -10.337  11.508  66.306  1.00  0.00    -0.280 A  
HETATM   17  C   UNL     1      -9.346  12.030  67.153  1.00  0.00    -0.187 A  
HETATM   18  C   UNL     1      -9.625  13.089  68.022  1.00  0.00    -0.224 A  
HETATM   19  C   UNL     1     -10.902  13.648  68.046  1.00  0.00    -0.246 A  
HETATM   20  C   UNL     1     -11.607  12.108  66.319  1.00  0.00    -0.424 A  
HETATM   21  C   UNL     1     -11.896  13.162  67.193  1.00  0.00    -0.424 A  
BRANCH  19  22
HETATM   22  S   UNL     1     -11.296  14.873  69.275  1.00  0.00    -0.315 S  
HETATM   23  O   UNL     1     -11.810  14.167  70.434  1.00  0.00    -0.297 OA 
HETATM   24  O   UNL     1     -12.067  15.930  68.662  1.00  0.00    -0.252 OA 
BRANCH  22  25
HETATM   25  N   UNL     1      -9.822  15.471  69.757  1.00  0.00    -0.331 N  
HETATM   26  H   UNL     1      -9.567  15.383  70.741  1.00  0.00     0.000 HD 
BRANCH  25  27
HETATM   27  C   UNL     1      -8.919  16.082  68.904  1.00  0.00    -0.239 C  
HETATM   28  O   UNL     1      -7.724  15.855  68.927  1.00  0.00    -0.166 OA 
BRANCH  27  29
HETATM   29  N   UNL     1      -9.506  16.976  68.051  1.00  0.00    -0.250 N  
HETATM   30  H   UNL     1      -9.864  16.661  67.149  1.00  0.00     0.000 HD 
BRANCH  29  31
HETATM   31  C   UNL     1      -9.619  18.377  68.433  1.00  0.00    -0.345 C  
HETATM   32  C   UNL     1      -8.289  19.118  68.264  1.00  0.00    -0.370 C  
HETATM   33  C   UNL     1      -7.951  19.402  66.802  1.00  0.00    -0.290 C  
HETATM   34  C   UNL     1      -9.090  20.132  66.101  1.00  0.00    -0.308 C  
HETATM   35  C   UNL     1     -10.406  19.371  66.219  1.00  0.00    -0.584 C  
HETATM   36  C   UNL     1     -10.756  19.069  67.675  1.00  0.00    -0.495 C  
ENDBRANCH  29  31
ENDBRANCH  27  29
ENDBRANCH  25  27
ENDBRANCH  22  25
ENDBRANCH  19  22
ENDBRANCH  15  16
ENDBRANCH  14  15
ENDBRANCH  13  14
ENDBRANCH   4  10
ENDBRANCH   2   3
TORSDOF 10
ENDMDL
MODEL       50
REMARK 921   NORMALIZED FREE ENERGY PREDICTED BY IDOCK:   -6.16 KCAL/MOL
REMARK 922        TOTAL FREE ENERGY PREDICTED BY IDOCK:  -11.73 KCAL/MOL
REMARK 923 INTER-LIGAND FREE ENERGY PREDICTED BY IDOCK:   -9.25 KCAL/MOL
REMARK 924 INTRA-LIGAND FREE ENERGY PREDICTED BY IDOCK:   -2.49 KCAL/MOL
REMARK 927      BINDING AFFINITY PREDICTED BY RF-SCORE:    0.00 PKD
ROOT
HETATM    1  C   UNL     1      -7.787  10.384  67.705  1.00  0.00    -0.101 C  
HETATM    2  O   UNL     1      -9.190  10.533  67.917  1.00  0.00    -0.138 OA 
ENDROOT
BRANCH   2   3
HETATM    3  C   UNL     1      -9.903  11.026  66.856  1.00  0.00    -0.191 A  
HETATM    4  C   UNL     1     -11.043  11.822  67.100  1.00  0.00    -0.350 A  
HETATM    5  C   UNL     1     -11.782  12.318  66.011  1.00  0.00    -0.451 A  
HETATM    6  C   UNL     1      -9.577  10.683  65.534  1.00  0.00    -0.271 A  
HETATM    7 CL   UNL     1     -12.368  12.556  63.388  1.00  0.00    -0.620 Cl 
HETATM    8  C   UNL     1     -10.341  11.148  64.464  1.00  0.00    -0.400 A  
HETATM    9  C   UNL     1     -11.432  11.973  64.707  1.00  0.00    -0.298 A  
BRANCH   4  10
HETATM   10  C   UNL     1     -11.480  12.165  68.494  1.00  0.00    -0.300 C  
HETATM   11  H   UNL     1     -12.322  10.271  68.741  1.00  0.00     0.000 HD 
HETATM   12  O   UNL     1     -11.301  13.278  68.972  1.00  0.00    -0.256 OA 
HETATM   13  N   UNL     1     -12.089  11.145  69.213  1.00  0.00    -0.342 N  
BRANCH  13  14
HETATM   14  C   UNL     1     -12.402  11.299  70.622  1.00  0.00    -0.383 C  
BRANCH  14  15
HETATM   15  C   UNL     1     -13.205  10.127  71.199  1.00  0.00    -0.438 C  
BRANCH  15  16
HETATM   16  C   UNL     1     -12.404   8.880  71.531  1.00  0.00    -0.381 A  
HETATM   17  C   UNL     1     -12.942   7.584  71.477  1.00  0.00    -0.400 A  
HETATM   18  C   UNL     1     -12.187   6.474  71.864  1.00  0.00    -0.373 A  
HETATM   19  C   UNL     1     -10.873   6.645  72.299  1.00  0.00    -0.229 A  
HETATM   20  C   UNL     1     -11.067   9.029  71.937  1.00  0.00    -0.433 A  
HETATM   21  C   UNL     1     -10.309   7.923  72.334  1.00  0.00    -0.333 A  
BRANCH  19  22
HETATM   22  S   UNL     1      -9.981   5.252  72.952  1.00  0.00    -0.170 S  
HETATM   23  O   UNL     1     -10.689   4.808  74.138  1.00  0.00    -0.285 OA 
HETATM   24  O   UNL     1      -8.575   5.578  73.020  1.00  0.00    -0.122 OA 
BRANCH  22  25
HETATM   25  N   UNL     1     -10.215   4.043  71.835  1.00  0.00    -0.137 N  
HETATM   26  H   UNL     1     -10.962   3.370  72.007  1.00  0.00     0.000 HD 
BRANCH  25  27
HETATM   27  C   UNL     1      -9.458   3.895  70.686  1.00  0.00    -0.174 C  
HETATM   28  O   UNL     1      -8.420   3.261  70.649  1.00  0.00    -0.062 OA 
BRANCH  27  29
HETATM   29  N   UNL     1      -9.987   4.549  69.607  1.00  0.00    -0.218 N  
HETATM   30  H   UNL     1     -10.991   4.510  69.427  1.00  0.00     0.000 HD 
BRANCH  29  31
HETATM   31  C   UNL     1      -9.115   5.300  68.714  1.00  0.00    -0.112 C  
HETATM   32  C   UNL     1      -9.450   5.037  67.243  1.00  0.00    -0.149 C  
HETATM   33  C   UNL     1     -10.734   5.731  66.795  1.00  0.00    -0.369 C  
HETATM   34  C   UNL     1     -10.695   7.224  67.100  1.00  0.00    -0.413 C  
HETATM   35  C   UNL     1     -10.416   7.491  68.575  1.00  0.00    -0.211 C  
HETATM   36  C   UNL     1      -9.139   6.796  69.044  1.00  0.00    -0.137 C  
ENDBRANCH  29  31
ENDBRANCH  27  29
ENDBRANCH  25  27
ENDBRANCH  22  25
ENDBRANCH  19  22
ENDBRANCH  15  16
ENDBRANCH  14  15
ENDBRANCH  13  14
ENDBRANCH   4  10
ENDBRANCH   2   3
TORSDOF 10
ENDMDL
MODEL       51
REMARK 921   NORMALIZED FREE ENERGY PREDICTED BY IDOCK:   -6.13 KCAL/MOL
REMARK 922        TOTAL FREE ENERGY PREDICTED BY IDOCK:  -11.68 KCAL/MOL
REMARK 923 INTER-LIGAND FREE ENERGY PREDICTED BY IDOCK:   -8.96 KCAL/MOL
REMARK 924 INTRA-LIGAND FREE ENERGY PREDICTED BY IDOCK:   -2.72 KCAL/MOL
REMARK 927      BINDING AFFINITY PREDICTED BY RF-SCORE:    0.00 PKD
ROOT
HETATM    1  C   UNL     1      -5.146  14.508  73.284  1.00  0.00    -0.269 C  
HETATM    2  O   UNL     1      -5.380  14.733  71.894  1.00  0.00    -0.119 OA 
ENDROOT
BRANCH   2   3
HETATM    3  C   UNL     1      -5.539  13.607  71.128  1.00  0.00    -0.214 A  
HETATM    4  C   UNL     1      -6.204  13.706  69.887  1.00  0.00    -0.118 A  
HETATM    5  C   UNL     1      -6.378  12.550  69.105  1.00  0.00    -0.095 A  
HETATM    6  C   UNL     1      -5.135  12.345  71.591  1.00  0.00    -0.054 A  
HETATM    7 CL   UNL     1      -6.212   9.898  68.631  1.00  0.00    -0.042 Cl 
HETATM    8  C   UNL     1      -5.349  11.200  70.824  1.00  0.00    -0.123 A  
HETATM    9  C   UNL     1      -5.958  11.309  69.582  1.00  0.00    -0.090 A  
BRANCH   4  10
HETATM   10  C   UNL     1      -6.719  15.018  69.371  1.00  0.00    -0.158 C  
HETATM   11  H   UNL     1      -8.683  14.309  69.407  1.00  0.00     0.000 HD 
HETATM   12  O   UNL     1      -5.966  15.936  69.074  1.00  0.00    -0.111 OA 
HETATM   13  N   UNL     1      -8.098  15.132  69.259  1.00  0.00    -0.213 N  
BRANCH  13  14
HETATM   14  C   UNL     1      -8.726  16.401  68.936  1.00  0.00    -0.253 C  
BRANCH  14  15
HETATM   15  C   UNL     1     -10.238  16.291  68.704  1.00  0.00    -0.254 C  
BRANCH  15  16
HETATM   16  C   UNL     1     -10.662  15.450  67.513  1.00  0.00    -0.295 A  
HETATM   17  C   UNL     1     -10.086  15.576  66.238  1.00  0.00    -0.312 A  
HETATM   18  C   UNL     1     -10.562  14.832  65.155  1.00  0.00    -0.439 A  
HETATM   19  C   UNL     1     -11.618  13.940  65.337  1.00  0.00    -0.325 A  
HETATM   20  C   UNL     1     -11.701  14.520  67.684  1.00  0.00    -0.410 A  
HETATM   21  C   UNL     1     -12.188  13.779  66.602  1.00  0.00    -0.454 A  
BRANCH  19  22
HETATM   22  S   UNL     1     -12.330  13.130  63.922  1.00  0.00    -0.330 S  
HETATM   23  O   UNL     1     -12.784  14.169  63.018  1.00  0.00    -0.494 OA 
HETATM   24  O   UNL     1     -13.241  12.103  64.372  1.00  0.00    -0.758 OA 
BRANCH  22  25
HETATM   25  N   UNL     1     -11.038  12.424  63.150  1.00  0.00    -0.699 N  
HETATM   26  H   UNL     1     -10.610  12.928  62.373  1.00  0.00     0.000 HD 
BRANCH  25  27
HETATM   27  C   UNL     1     -10.508  11.193  63.497  1.00  0.00    -0.358 C  
HETATM   28  O   UNL     1      -9.897  10.488  62.716  1.00  0.00    -0.294 OA 
BRANCH  27  29
HETATM   29  N   UNL     1     -10.758  10.848  64.797  1.00  0.00    -0.250 N  
HETATM   30  H   UNL     1     -11.659  11.072  65.221  1.00  0.00     0.000 HD 
BRANCH  29  31
HETATM   31  C   UNL     1      -9.736  10.160  65.574  1.00  0.00    -0.281 C  
HETATM   32  C   UNL     1      -8.631  11.118  66.029  1.00  0.00    -0.154 C  
HETATM   33  C   UNL     1      -9.074  12.035  67.167  1.00  0.00    -0.186 C  
HETATM   34  C   UNL     1      -9.637  11.237  68.337  1.00  0.00    -0.195 C  
HETATM   35  C   UNL     1     -10.775  10.321  67.899  1.00  0.00    -0.310 C  
HETATM   36  C   UNL     1     -10.353   9.403  66.754  1.00  0.00    -0.303 C  
ENDBRANCH  29  31
ENDBRANCH  27  29
ENDBRANCH  25  27
ENDBRANCH  22  25
ENDBRANCH  19  22
ENDBRANCH  15  16
ENDBRANCH  14  15
ENDBRANCH  13  14
ENDBRANCH   4  10
ENDBRANCH   2   3
TORSDOF 10
ENDMDL
MODEL       52
REMARK 921   NORMALIZED FREE ENERGY PREDICTED BY IDOCK:   -6.13 KCAL/MOL
REMARK 922        TOTAL FREE ENERGY PREDICTED BY IDOCK:  -11.68 KCAL/MOL
REMARK 923 INTER-LIGAND FREE ENERGY PREDICTED BY IDOCK:   -9.31 KCAL/MOL
REMARK 924 INTRA-LIGAND FREE ENERGY PREDICTED BY IDOCK:   -2.37 KCAL/MOL
REMARK 927      BINDING AFFINITY PREDICTED BY RF-SCORE:    0.00 PKD
ROOT
HETATM    1  C   UNL     1     -12.765  11.978  63.484  1.00  0.00    -0.443 C  
HETATM    2  O   UNL     1     -12.980  12.593  64.753  1.00  0.00    -0.816 OA 
ENDROOT
BRANCH   2   3
HETATM    3  C   UNL     1     -12.082  13.569  65.101  1.00  0.00    -0.404 A  
HETATM    4  C   UNL     1     -11.239  13.366  66.214  1.00  0.00    -0.322 A  
HETATM    5  C   UNL     1     -10.326  14.372  66.578  1.00  0.00    -0.281 A  
HETATM    6  C   UNL     1     -12.047  14.801  64.429  1.00  0.00    -0.457 A  
HETATM    7 CL   UNL     1      -9.207  16.819  66.370  1.00  0.00    -0.290 Cl 
HETATM    8  C   UNL     1     -11.165  15.807  64.825  1.00  0.00    -0.375 A  
HETATM    9  C   UNL     1     -10.302  15.583  65.889  1.00  0.00    -0.347 A  
BRANCH   4  10
HETATM   10  C   UNL     1     -11.281  12.097  67.013  1.00  0.00    -0.314 C  
HETATM   11  H   UNL     1      -9.715  11.290  65.892  1.00  0.00     0.000 HD 
HETATM   12  O   UNL     1     -12.113  11.914  67.892  1.00  0.00    -0.558 OA 
HETATM   13  N   UNL     1     -10.316  11.147  66.704  1.00  0.00    -0.232 N  
BRANCH  13  14
HETATM   14  C   UNL     1     -10.145   9.955  67.515  1.00  0.00    -0.197 C  
BRANCH  14  15
HETATM   15  C   UNL     1     -10.449   8.656  66.759  1.00  0.00    -0.298 C  
BRANCH  15  16
HETATM   16  C   UNL     1     -10.038   7.374  67.462  1.00  0.00    -0.250 A  
HETATM   17  C   UNL     1     -10.742   6.165  67.329  1.00  0.00    -0.414 A  
HETATM   18  C   UNL     1     -10.369   5.031  68.054  1.00  0.00    -0.096 A  
HETATM   19  C   UNL     1      -9.276   5.088  68.918  1.00  0.00    -0.115 A  
HETATM   20  C   UNL     1      -8.918   7.402  68.310  1.00  0.00    -0.130 A  
HETATM   21  C   UNL     1      -8.545   6.272  69.046  1.00  0.00    -0.123 A  
BRANCH  19  22
HETATM   22  S   UNL     1      -8.917   3.695  69.966  1.00  0.00    -0.117 S  
HETATM   23  O   UNL     1      -7.629   3.946  70.584  1.00  0.00    -0.044 OA 
HETATM   24  O   UNL     1      -9.150   2.474  69.229  1.00  0.00    -0.100 OA 
BRANCH  22  25
HETATM   25  N   UNL     1     -10.017   3.810  71.207  1.00  0.00    -0.147 N  
HETATM   26  H   UNL     1     -10.967   3.481  71.036  1.00  0.00     0.000 HD 
BRANCH  25  27
HETATM   27  C   UNL     1      -9.721   4.325  72.457  1.00  0.00    -0.147 C  
HETATM   28  O   UNL     1      -9.639   3.637  73.457  1.00  0.00    -0.106 OA 
BRANCH  27  29
HETATM   29  N   UNL     1      -9.551   5.682  72.453  1.00  0.00    -0.150 N  
HETATM   30  H   UNL     1      -8.685   6.087  72.096  1.00  0.00     0.000 HD 
BRANCH  29  31
HETATM   31  C   UNL     1     -10.609   6.548  72.957  1.00  0.00    -0.250 C  
HETATM   32  C   UNL     1     -10.185   8.020  72.951  1.00  0.00    -0.384 C  
HETATM   33  C   UNL     1     -10.169   8.625  71.549  1.00  0.00    -0.345 C  
HETATM   34  C   UNL     1     -11.505   8.426  70.843  1.00  0.00    -0.295 C  
HETATM   35  C   UNL     1     -11.905   6.955  70.798  1.00  0.00    -0.427 C  
HETATM   36  C   UNL     1     -11.917   6.330  72.191  1.00  0.00    -0.338 C  
ENDBRANCH  29  31
ENDBRANCH  27  29
ENDBRANCH  25  27
ENDBRANCH  22  25
ENDBRANCH  19  22
ENDBRANCH  15  16
ENDBRANCH  14  15
ENDBRANCH  13  14
ENDBRANCH   4  10
ENDBRANCH   2   3
TORSDOF 10
ENDMDL
MODEL       53
REMARK 921   NORMALIZED FREE ENERGY PREDICTED BY IDOCK:   -6.13 KCAL/MOL
REMARK 922        TOTAL FREE ENERGY PREDICTED BY IDOCK:  -11.68 KCAL/MOL
REMARK 923 INTER-LIGAND FREE ENERGY PREDICTED BY IDOCK:   -9.79 KCAL/MOL
REMARK 924 INTRA-LIGAND FREE ENERGY PREDICTED BY IDOCK:   -1.88 KCAL/MOL
REMARK 927      BINDING AFFINITY PREDICTED BY RF-SCORE:    0.00 PKD
ROOT
HETATM    1  C   UNL     1      -7.883   6.985  64.882  1.00  0.00    -0.126 C  
HETATM    2  O   UNL     1      -8.783   7.051  65.987  1.00  0.00    -0.144 OA 
ENDROOT
BRANCH   2   3
HETATM    3  C   UNL     1      -8.997   5.871  66.652  1.00  0.00    -0.125 A  
HETATM    4  C   UNL     1      -9.051   5.873  68.062  1.00  0.00    -0.117 A  
HETATM    5  C   UNL     1      -9.260   4.661  68.744  1.00  0.00    -0.179 A  
HETATM    6  C   UNL     1      -9.074   4.649  65.964  1.00  0.00    -0.131 A  
HETATM    7 CL   UNL     1      -9.560   1.983  68.890  1.00  0.00    -0.164 Cl 
HETATM    8  C   UNL     1      -9.241   3.449  66.654  1.00  0.00    -0.186 A  
HETATM    9  C   UNL     1      -9.344   3.462  68.039  1.00  0.00    -0.187 A  
BRANCH   4  10
HETATM   10  C   UNL     1      -8.906   7.140  68.854  1.00  0.00    -0.130 C  
HETATM   11  H   UNL     1     -10.814   7.765  68.283  1.00  0.00     0.000 HD 
HETATM   12  O   UNL     1      -7.872   7.415  69.448  1.00  0.00    -0.116 OA 
HETATM   13  N   UNL     1     -10.015   7.975  68.881  1.00  0.00    -0.189 N  
BRANCH  13  14
HETATM   14  C   UNL     1     -10.059   9.140  69.746  1.00  0.00    -0.199 C  
BRANCH  14  15
HETATM   15  C   UNL     1      -9.423  10.387  69.120  1.00  0.00    -0.220 C  
BRANCH  15  16
HETATM   16  C   UNL     1     -10.201  11.023  67.981  1.00  0.00    -0.201 A  
HETATM   17  C   UNL     1      -9.833  10.893  66.632  1.00  0.00    -0.237 A  
HETATM   18  C   UNL     1     -10.539  11.559  65.626  1.00  0.00    -0.326 A  
HETATM   19  C   UNL     1     -11.633  12.358  65.957  1.00  0.00    -0.401 A  
HETATM   20  C   UNL     1     -11.328  11.803  68.292  1.00  0.00    -0.343 A  
HETATM   21  C   UNL     1     -12.033  12.479  67.290  1.00  0.00    -0.286 A  
BRANCH  19  22
HETATM   22  S   UNL     1     -12.414  13.337  64.693  1.00  0.00    -0.317 S  
HETATM   23  O   UNL     1     -13.407  14.166  65.348  1.00  0.00    -0.705 OA 
HETATM   24  O   UNL     1     -12.787  12.480  63.592  1.00  0.00    -0.731 OA 
BRANCH  22  25
HETATM   25  N   UNL     1     -11.233  14.396  64.195  1.00  0.00    -0.579 N  
HETATM   26  H   UNL     1     -10.536  14.058  63.532  1.00  0.00     0.000 HD 
BRANCH  25  27
HETATM   27  C   UNL     1     -11.139  15.708  64.625  1.00  0.00    -0.373 C  
HETATM   28  O   UNL     1     -11.493  16.656  63.950  1.00  0.00    -1.186 OA 
BRANCH  27  29
HETATM   29  N   UNL     1     -10.594  15.826  65.874  1.00  0.00    -0.329 N  
HETATM   30  H   UNL     1     -11.199  15.911  66.690  1.00  0.00     0.000 HD 
BRANCH  29  31
HETATM   31  C   UNL     1      -9.146  15.831  66.035  1.00  0.00    -0.326 C  
HETATM   32  C   UNL     1      -8.618  17.232  66.361  1.00  0.00    -0.294 C  
HETATM   33  C   UNL     1      -8.918  17.659  67.796  1.00  0.00    -0.247 C  
HETATM   34  C   UNL     1      -8.415  16.626  68.799  1.00  0.00    -0.255 C  
HETATM   35  C   UNL     1      -8.981  15.240  68.511  1.00  0.00    -0.187 C  
HETATM   36  C   UNL     1      -8.700  14.800  67.076  1.00  0.00    -0.258 C  
ENDBRANCH  29  31
ENDBRANCH  27  29
ENDBRANCH  25  27
ENDBRANCH  22  25
ENDBRANCH  19  22
ENDBRANCH  15  16
ENDBRANCH  14  15
ENDBRANCH  13  14
ENDBRANCH   4  10
ENDBRANCH   2   3
TORSDOF 10
ENDMDL
MODEL       54
REMARK 921   NORMALIZED FREE ENERGY PREDICTED BY IDOCK:   -6.11 KCAL/MOL
REMARK 922        TOTAL FREE ENERGY PREDICTED BY IDOCK:  -11.65 KCAL/MOL
REMARK 923 INTER-LIGAND FREE ENERGY PREDICTED BY IDOCK:   -9.67 KCAL/MOL
REMARK 924 INTRA-LIGAND FREE ENERGY PREDICTED BY IDOCK:   -1.98 KCAL/MOL
REMARK 927      BINDING AFFINITY PREDICTED BY RF-SCORE:    0.00 PKD
ROOT
HETATM    1  C   UNL     1     -12.620  15.684  74.068  1.00  0.00    -0.628 C  
HETATM    2  O   UNL     1     -12.597  14.559  73.190  1.00  0.00    -0.391 OA 
ENDROOT
BRANCH   2   3
HETATM    3  C   UNL     1     -12.284  14.831  71.883  1.00  0.00    -0.342 A  
HETATM    4  C   UNL     1     -12.397  13.807  70.919  1.00  0.00    -0.456 A  
HETATM    5  C   UNL     1     -12.065  14.082  69.580  1.00  0.00    -0.408 A  
HETATM    6  C   UNL     1     -11.769  16.080  71.500  1.00  0.00    -0.554 A  
HETATM    7 CL   UNL     1     -11.129  15.643  67.588  1.00  0.00    -0.323 Cl 
HETATM    8  C   UNL     1     -11.406  16.328  70.177  1.00  0.00    -0.292 A  
HETATM    9  C   UNL     1     -11.566  15.333  69.222  1.00  0.00    -0.332 A  
BRANCH   4  10
HETATM   10  C   UNL     1     -12.877  12.432  71.283  1.00  0.00    -0.240 C  
HETATM   11  H   UNL     1     -11.757  11.587  69.736  1.00  0.00     0.000 HD 
HETATM   12  O   UNL     1     -13.688  12.247  72.181  1.00  0.00    -0.376 OA 
HETATM   13  N   UNL     1     -12.340  11.383  70.548  1.00  0.00    -0.353 N  
BRANCH  13  14
HETATM   14  C   UNL     1     -12.593  10.001  70.914  1.00  0.00    -0.332 C  
BRANCH  14  15
HETATM   15  C   UNL     1     -11.345   9.266  71.417  1.00  0.00    -0.434 C  
BRANCH  15  16
HETATM   16  C   UNL     1     -10.282   8.979  70.371  1.00  0.00    -0.250 A  
HETATM   17  C   UNL     1      -9.102   9.731  70.249  1.00  0.00    -0.208 A  
HETATM   18  C   UNL     1      -8.188   9.475  69.223  1.00  0.00    -0.112 A  
HETATM   19  C   UNL     1      -8.439   8.453  68.309  1.00  0.00    -0.135 A  
HETATM   20  C   UNL     1     -10.500   7.930  69.463  1.00  0.00    -0.226 A  
HETATM   21  C   UNL     1      -9.594   7.676  68.428  1.00  0.00    -0.155 A  
BRANCH  19  22
HETATM   22  S   UNL     1      -7.362   8.251  66.907  1.00  0.00    -0.084 S  
HETATM   23  O   UNL     1      -8.150   7.657  65.844  1.00  0.00    -0.108 OA 
HETATM   24  O   UNL     1      -6.131   7.630  67.340  1.00  0.00    -0.045 OA 
BRANCH  22  25
HETATM   25  N   UNL     1      -7.048   9.801  66.393  1.00  0.00    -0.092 N  
HETATM   26  H   UNL     1      -6.438  10.382  66.968  1.00  0.00     0.000 HD 
BRANCH  25  27
HETATM   27  C   UNL     1      -7.564  10.349  65.232  1.00  0.00    -0.118 C  
HETATM   28  O   UNL     1      -7.082  10.153  64.132  1.00  0.00    -0.130 OA 
BRANCH  27  29
HETATM   29  N   UNL     1      -8.654  11.146  65.452  1.00  0.00    -0.367 N  
HETATM   30  H   UNL     1      -8.529  12.106  65.772  1.00  0.00     0.000 HD 
BRANCH  29  31
HETATM   31  C   UNL     1      -9.994  10.619  65.229  1.00  0.00    -0.294 C  
HETATM   32  C   UNL     1     -10.825  10.624  66.516  1.00  0.00    -0.168 C  
HETATM   33  C   UNL     1     -11.291  12.022  66.914  1.00  0.00    -0.400 C  
HETATM   34  C   UNL     1     -12.030  12.708  65.770  1.00  0.00    -0.503 C  
HETATM   35  C   UNL     1     -11.185  12.754  64.502  1.00  0.00    -0.373 C  
HETATM   36  C   UNL     1     -10.701  11.365  64.093  1.00  0.00    -0.434 C  
ENDBRANCH  29  31
ENDBRANCH  27  29
ENDBRANCH  25  27
ENDBRANCH  22  25
ENDBRANCH  19  22
ENDBRANCH  15  16
ENDBRANCH  14  15
ENDBRANCH  13  14
ENDBRANCH   4  10
ENDBRANCH   2   3
TORSDOF 10
ENDMDL
MODEL       55
REMARK 921   NORMALIZED FREE ENERGY PREDICTED BY IDOCK:   -6.10 KCAL/MOL
REMARK 922        TOTAL FREE ENERGY PREDICTED BY IDOCK:  -11.63 KCAL/MOL
REMARK 923 INTER-LIGAND FREE ENERGY PREDICTED BY IDOCK:   -9.75 KCAL/MOL
REMARK 924 INTRA-LIGAND FREE ENERGY PREDICTED BY IDOCK:   -1.88 KCAL/MOL
REMARK 927      BINDING AFFINITY PREDICTED BY RF-SCORE:    0.00 PKD
ROOT
HETATM    1  C   UNL     1      -7.896   6.808  67.592  1.00  0.00    -0.112 C  
HETATM    2  O   UNL     1      -7.983   7.416  68.880  1.00  0.00    -0.121 OA 
ENDROOT
BRANCH   2   3
HETATM    3  C   UNL     1      -8.803   6.787  69.780  1.00  0.00    -0.141 A  
HETATM    4  C   UNL     1      -9.925   7.474  70.290  1.00  0.00    -0.192 A  
HETATM    5  C   UNL     1     -10.760   6.833  71.223  1.00  0.00    -0.257 A  
HETATM    6  C   UNL     1      -8.501   5.507  70.273  1.00  0.00    -0.121 A  
HETATM    7 CL   UNL     1     -11.454   4.803  72.859  1.00  0.00    -0.265 Cl 
HETATM    8  C   UNL     1      -9.314   4.898  71.228  1.00  0.00    -0.202 A  
HETATM    9  C   UNL     1     -10.445   5.558  71.689  1.00  0.00    -0.231 A  
BRANCH   4  10
HETATM   10  C   UNL     1     -10.260   8.870  69.851  1.00  0.00    -0.200 C  
HETATM   11  H   UNL     1     -10.763   8.194  67.941  1.00  0.00     0.000 HD 
HETATM   12  O   UNL     1     -10.108   9.833  70.591  1.00  0.00    -0.272 OA 
HETATM   13  N   UNL     1     -10.759   9.003  68.563  1.00  0.00    -0.148 N  
BRANCH  13  14
HETATM   14  C   UNL     1     -11.277  10.272  68.083  1.00  0.00    -0.229 C  
BRANCH  14  15
HETATM   15  C   UNL     1     -10.564  10.784  66.826  1.00  0.00    -0.307 C  
BRANCH  15  16
HETATM   16  C   UNL     1     -10.538  12.292  66.651  1.00  0.00    -0.257 A  
HETATM   17  C   UNL     1     -11.664  13.041  66.268  1.00  0.00    -0.440 A  
HETATM   18  C   UNL     1     -11.572  14.418  66.048  1.00  0.00    -0.364 A  
HETATM   19  C   UNL     1     -10.350  15.068  66.220  1.00  0.00    -0.296 A  
HETATM   20  C   UNL     1      -9.325  12.971  66.854  1.00  0.00    -0.241 A  
HETATM   21  C   UNL     1      -9.224  14.348  66.626  1.00  0.00    -0.283 A  
BRANCH  19  22
HETATM   22  S   UNL     1     -10.203  16.783  65.769  1.00  0.00    -0.235 S  
HETATM   23  O   UNL     1     -11.114  17.015  64.664  1.00  0.00    -0.997 OA 
HETATM   24  O   UNL     1      -8.804  17.124  65.647  1.00  0.00    -0.482 OA 
BRANCH  22  25
HETATM   25  N   UNL     1     -10.864  17.611  67.050  1.00  0.00    -0.154 N  
HETATM   26  H   UNL     1     -11.594  18.296  66.852  1.00  0.00     0.000 HD 
BRANCH  25  27
HETATM   27  C   UNL     1     -10.484  17.427  68.368  1.00  0.00    -0.384 C  
HETATM   28  O   UNL     1      -9.442  17.857  68.826  1.00  0.00    -0.300 OA 
BRANCH  27  29
HETATM   29  N   UNL     1     -11.390  16.700  69.092  1.00  0.00    -0.236 N  
HETATM   30  H   UNL     1     -12.381  16.736  68.853  1.00  0.00     0.000 HD 
BRANCH  29  31
HETATM   31  C   UNL     1     -10.935  15.875  70.203  1.00  0.00    -0.364 C  
HETATM   32  C   UNL     1     -11.777  16.109  71.461  1.00  0.00    -0.533 C  
HETATM   33  C   UNL     1     -13.162  15.471  71.374  1.00  0.00    -0.587 C  
HETATM   34  C   UNL     1     -13.069  13.989  71.032  1.00  0.00    -0.342 C  
HETATM   35  C   UNL     1     -12.278  13.754  69.749  1.00  0.00    -0.368 C  
HETATM   36  C   UNL     1     -10.893  14.395  69.814  1.00  0.00    -0.087 C  
ENDBRANCH  29  31
ENDBRANCH  27  29
ENDBRANCH  25  27
ENDBRANCH  22  25
ENDBRANCH  19  22
ENDBRANCH  15  16
ENDBRANCH  14  15
ENDBRANCH  13  14
ENDBRANCH   4  10
ENDBRANCH   2   3
TORSDOF 10
ENDMDL
MODEL       56
REMARK 921   NORMALIZED FREE ENERGY PREDICTED BY IDOCK:   -6.08 KCAL/MOL
REMARK 922        TOTAL FREE ENERGY PREDICTED BY IDOCK:  -11.61 KCAL/MOL
REMARK 923 INTER-LIGAND FREE ENERGY PREDICTED BY IDOCK:   -9.28 KCAL/MOL
REMARK 924 INTRA-LIGAND FREE ENERGY PREDICTED BY IDOCK:   -2.33 KCAL/MOL
REMARK 927      BINDING AFFINITY PREDICTED BY RF-SCORE:    0.00 PKD
ROOT
HETATM    1  C   UNL     1     -12.742  11.944  63.457  1.00  0.00    -0.405 C  
HETATM    2  O   UNL     1     -12.973  12.628  64.687  1.00  0.00    -0.768 OA 
ENDROOT
BRANCH   2   3
HETATM    3  C   UNL     1     -12.045  13.579  65.023  1.00  0.00    -0.397 A  
HETATM    4  C   UNL     1     -11.122  13.308  66.056  1.00  0.00    -0.298 A  
HETATM    5  C   UNL     1     -10.177  14.288  66.408  1.00  0.00    -0.295 A  
HETATM    6  C   UNL     1     -12.050  14.848  64.423  1.00  0.00    -0.417 A  
HETATM    7 CL   UNL     1      -9.057  16.739  66.260  1.00  0.00    -0.317 Cl 
HETATM    8  C   UNL     1     -11.133  15.826  64.809  1.00  0.00    -0.413 A  
HETATM    9  C   UNL     1     -10.195  15.538  65.791  1.00  0.00    -0.366 A  
BRANCH   4  10
HETATM   10  C   UNL     1     -11.114  11.994  66.781  1.00  0.00    -0.305 C  
HETATM   11  H   UNL     1     -12.124  12.835  68.403  1.00  0.00     0.000 HD 
HETATM   12  O   UNL     1     -10.561  11.005  66.317  1.00  0.00    -0.254 OA 
HETATM   13  N   UNL     1     -11.776  11.964  68.000  1.00  0.00    -0.326 N  
BRANCH  13  14
HETATM   14  C   UNL     1     -11.984  10.717  68.714  1.00  0.00    -0.087 C  
BRANCH  14  15
HETATM   15  C   UNL     1     -11.926  10.871  70.239  1.00  0.00    -0.448 C  
BRANCH  15  16
HETATM   16  C   UNL     1     -11.391   9.672  71.002  1.00  0.00    -0.444 A  
HETATM   17  C   UNL     1     -10.023   9.459  71.239  1.00  0.00    -0.274 A  
HETATM   18  C   UNL     1      -9.575   8.302  71.882  1.00  0.00    -0.288 A  
HETATM   19  C   UNL     1     -10.494   7.345  72.309  1.00  0.00    -0.223 A  
HETATM   20  C   UNL     1     -12.305   8.714  71.472  1.00  0.00    -0.370 A  
HETATM   21  C   UNL     1     -11.862   7.549  72.108  1.00  0.00    -0.338 A  
BRANCH  19  22
HETATM   22  S   UNL     1      -9.905   5.801  72.966  1.00  0.00    -0.170 S  
HETATM   23  O   UNL     1     -10.656   5.538  74.179  1.00  0.00    -0.277 OA 
HETATM   24  O   UNL     1      -8.460   5.815  72.990  1.00  0.00    -0.118 OA 
BRANCH  22  25
HETATM   25  N   UNL     1     -10.429   4.656  71.881  1.00  0.00    -0.149 N  
HETATM   26  H   UNL     1     -11.370   4.282  71.997  1.00  0.00     0.000 HD 
BRANCH  25  27
HETATM   27  C   UNL     1      -9.664   4.180  70.830  1.00  0.00    -0.196 C  
HETATM   28  O   UNL     1      -9.576   2.998  70.552  1.00  0.00    -0.165 OA 
BRANCH  27  29
HETATM   29  N   UNL     1      -9.007   5.170  70.152  1.00  0.00    -0.117 N  
HETATM   30  H   UNL     1      -8.514   5.900  70.665  1.00  0.00     0.000 HD 
BRANCH  29  31
HETATM   31  C   UNL     1      -9.014   5.180  68.695  1.00  0.00    -0.105 C  
HETATM   32  C   UNL     1     -10.436   5.300  68.137  1.00  0.00    -0.140 C  
HETATM   33  C   UNL     1     -11.014   6.706  68.287  1.00  0.00    -0.321 C  
HETATM   34  C   UNL     1     -10.086   7.754  67.682  1.00  0.00    -0.254 C  
HETATM   35  C   UNL     1      -8.683   7.674  68.274  1.00  0.00    -0.123 C  
HETATM   36  C   UNL     1      -8.093   6.272  68.143  1.00  0.00    -0.115 C  
ENDBRANCH  29  31
ENDBRANCH  27  29
ENDBRANCH  25  27
ENDBRANCH  22  25
ENDBRANCH  19  22
ENDBRANCH  15  16
ENDBRANCH  14  15
ENDBRANCH  13  14
ENDBRANCH   4  10
ENDBRANCH   2   3
TORSDOF 10
ENDMDL
MODEL       57
REMARK 921   NORMALIZED FREE ENERGY PREDICTED BY IDOCK:   -6.07 KCAL/MOL
REMARK 922        TOTAL FREE ENERGY PREDICTED BY IDOCK:  -11.58 KCAL/MOL
REMARK 923 INTER-LIGAND FREE ENERGY PREDICTED BY IDOCK:  -10.29 KCAL/MOL
REMARK 924 INTRA-LIGAND FREE ENERGY PREDICTED BY IDOCK:   -1.29 KCAL/MOL
REMARK 927      BINDING AFFINITY PREDICTED BY RF-SCORE:    0.00 PKD
ROOT
HETATM    1  C   UNL     1      -8.105   2.666  71.826  1.00  0.00    -0.057 C  
HETATM    2  O   UNL     1      -9.419   2.957  71.352  1.00  0.00    -0.123 OA 
ENDROOT
BRANCH   2   3
HETATM    3  C   UNL     1      -9.494   3.482  70.087  1.00  0.00    -0.182 A  
HETATM    4  C   UNL     1      -9.874   4.831  69.921  1.00  0.00    -0.291 A  
HETATM    5  C   UNL     1      -9.961   5.366  68.624  1.00  0.00    -0.232 A  
HETATM    6  C   UNL     1      -9.287   2.683  68.952  1.00  0.00    -0.223 A  
HETATM    7 CL   UNL     1      -9.889   5.215  65.930  1.00  0.00    -0.172 Cl 
HETATM    8  C   UNL     1      -9.416   3.215  67.669  1.00  0.00    -0.202 A  
HETATM    9  C   UNL     1      -9.741   4.556  67.512  1.00  0.00    -0.169 A  
BRANCH   4  10
HETATM   10  C   UNL     1     -10.174   5.715  71.096  1.00  0.00    -0.220 C  
HETATM   11  H   UNL     1     -12.087   6.114  70.360  1.00  0.00     0.000 HD 
HETATM   12  O   UNL     1      -9.337   5.951  71.958  1.00  0.00    -0.150 OA 
HETATM   13  N   UNL     1     -11.458   6.241  71.153  1.00  0.00    -0.314 N  
BRANCH  13  14
HETATM   14  C   UNL     1     -11.922   6.970  72.320  1.00  0.00    -0.211 C  
BRANCH  14  15
HETATM   15  C   UNL     1     -11.189   8.298  72.541  1.00  0.00    -0.446 C  
BRANCH  15  16
HETATM   16  C   UNL     1     -11.145   9.233  71.345  1.00  0.00    -0.437 A  
HETATM   17  C   UNL     1     -10.037   9.331  70.486  1.00  0.00    -0.313 A  
HETATM   18  C   UNL     1     -10.015  10.261  69.443  1.00  0.00    -0.254 A  
HETATM   19  C   UNL     1     -11.109  11.100  69.237  1.00  0.00    -0.259 A  
HETATM   20  C   UNL     1     -12.252  10.062  71.100  1.00  0.00    -0.477 A  
HETATM   21  C   UNL     1     -12.232  11.001  70.063  1.00  0.00    -0.418 A  
BRANCH  19  22
HETATM   22  S   UNL     1     -11.001  12.394  68.022  1.00  0.00    -0.241 S  
HETATM   23  O   UNL     1     -12.349  12.652  67.550  1.00  0.00    -0.304 OA 
HETATM   24  O   UNL     1      -9.947  12.079  67.085  1.00  0.00    -0.194 OA 
BRANCH  22  25
HETATM   25  N   UNL     1     -10.584  13.750  68.889  1.00  0.00    -0.341 N  
HETATM   26  H   UNL     1      -9.798  13.681  69.535  1.00  0.00     0.000 HD 
BRANCH  25  27
HETATM   27  C   UNL     1     -11.239  14.965  68.787  1.00  0.00    -0.275 C  
HETATM   28  O   UNL     1     -10.914  15.831  67.997  1.00  0.00    -0.307 OA 
BRANCH  27  29
HETATM   29  N   UNL     1     -12.271  15.095  69.676  1.00  0.00    -0.490 N  
HETATM   30  H   UNL     1     -13.040  15.734  69.475  1.00  0.00     0.000 HD 
BRANCH  29  31
HETATM   31  C   UNL     1     -12.269  14.319  70.908  1.00  0.00    -0.355 C  
HETATM   32  C   UNL     1     -11.430  14.993  71.999  1.00  0.00    -0.353 C  
HETATM   33  C   UNL     1     -12.118  16.213  72.606  1.00  0.00    -0.652 C  
HETATM   34  C   UNL     1     -13.515  15.870  73.109  1.00  0.00    -0.650 C  
HETATM   35  C   UNL     1     -14.373  15.249  72.012  1.00  0.00    -0.689 C  
HETATM   36  C   UNL     1     -13.695  14.032  71.386  1.00  0.00    -0.293 C  
ENDBRANCH  29  31
ENDBRANCH  27  29
ENDBRANCH  25  27
ENDBRANCH  22  25
ENDBRANCH  19  22
ENDBRANCH  15  16
ENDBRANCH  14  15
ENDBRANCH  13  14
ENDBRANCH   4  10
ENDBRANCH   2   3
TORSDOF 10
ENDMDL
MODEL       58
REMARK 921   NORMALIZED FREE ENERGY PREDICTED BY IDOCK:   -6.07 KCAL/MOL
REMARK 922        TOTAL FREE ENERGY PREDICTED BY IDOCK:  -11.58 KCAL/MOL
REMARK 923 INTER-LIGAND FREE ENERGY PREDICTED BY IDOCK:  -10.85 KCAL/MOL
REMARK 924 INTRA-LIGAND FREE ENERGY PREDICTED BY IDOCK:   -0.73 KCAL/MOL
REMARK 927      BINDING AFFINITY PREDICTED BY RF-SCORE:    0.00 PKD
ROOT
HETATM    1  C   UNL     1     -10.871   6.392  67.270  1.00  0.00    -0.385 C  
HETATM    2  O   UNL     1      -9.642   6.315  67.992  1.00  0.00    -0.116 OA 
ENDROOT
BRANCH   2   3
HETATM    3  C   UNL     1      -9.651   5.506  69.098  1.00  0.00    -0.143 A  
HETATM    4  C   UNL     1      -9.537   6.086  70.379  1.00  0.00    -0.194 A  
HETATM    5  C   UNL     1      -9.535   5.255  71.514  1.00  0.00    -0.191 A  
HETATM    6  C   UNL     1      -9.682   4.107  68.979  1.00  0.00    -0.188 A  
HETATM    7 CL   UNL     1      -9.534   2.865  72.766  1.00  0.00    -0.138 Cl 
HETATM    8  C   UNL     1      -9.638   3.292  70.110  1.00  0.00    -0.191 A  
HETATM    9  C   UNL     1      -9.577   3.869  71.371  1.00  0.00    -0.166 A  
BRANCH   4  10
HETATM   10  C   UNL     1      -9.432   7.572  70.564  1.00  0.00    -0.164 C  
HETATM   11  H   UNL     1     -11.504   7.780  70.415  1.00  0.00     0.000 HD 
HETATM   12  O   UNL     1      -8.350   8.135  70.669  1.00  0.00    -0.116 OA 
HETATM   13  N   UNL     1     -10.632   8.268  70.620  1.00  0.00    -0.211 N  
BRANCH  13  14
HETATM   14  C   UNL     1     -10.669   9.678  70.964  1.00  0.00    -0.323 C  
BRANCH  14  15
HETATM   15  C   UNL     1     -11.939  10.389  70.480  1.00  0.00    -0.427 C  
BRANCH  15  16
HETATM   16  C   UNL     1     -11.764  11.315  69.289  1.00  0.00    -0.403 A  
HETATM   17  C   UNL     1     -12.014  12.696  69.346  1.00  0.00    -0.318 A  
HETATM   18  C   UNL     1     -11.910  13.494  68.203  1.00  0.00    -0.400 A  
HETATM   19  C   UNL     1     -11.541  12.920  66.987  1.00  0.00    -0.362 A  
HETATM   20  C   UNL     1     -11.358  10.761  68.063  1.00  0.00    -0.378 A  
HETATM   21  C   UNL     1     -11.261  11.553  66.914  1.00  0.00    -0.363 A  
BRANCH  19  22
HETATM   22  S   UNL     1     -11.581  13.908  65.508  1.00  0.00    -0.339 S  
HETATM   23  O   UNL     1     -12.975  14.078  65.145  1.00  0.00    -0.744 OA 
HETATM   24  O   UNL     1     -10.638  13.372  64.553  1.00  0.00    -0.392 OA 
BRANCH  22  25
HETATM   25  N   UNL     1     -11.078  15.415  65.996  1.00  0.00    -0.282 N  
HETATM   26  H   UNL     1     -10.834  15.543  66.978  1.00  0.00     0.000 HD 
BRANCH  25  27
HETATM   27  C   UNL     1     -10.969  16.506  65.151  1.00  0.00    -0.191 C  
HETATM   28  O   UNL     1     -11.430  16.523  64.025  1.00  0.00    -1.137 OA 
BRANCH  27  29
HETATM   29  N   UNL     1     -10.278  17.548  65.706  1.00  0.00    -0.234 N  
HETATM   30  H   UNL     1      -9.409  17.870  65.279  1.00  0.00     0.000 HD 
BRANCH  29  31
HETATM   31  C   UNL     1     -10.786  18.198  66.907  1.00  0.00    -0.224 C  
HETATM   32  C   UNL     1     -10.241  17.540  68.178  1.00  0.00    -0.359 C  
HETATM   33  C   UNL     1      -8.778  17.885  68.444  1.00  0.00    -0.296 C  
HETATM   34  C   UNL     1      -8.557  19.393  68.457  1.00  0.00    -0.401 C  
HETATM   35  C   UNL     1      -9.048  20.047  67.170  1.00  0.00    -0.468 C  
HETATM   36  C   UNL     1     -10.508  19.703  66.883  1.00  0.00    -0.606 C  
ENDBRANCH  29  31
ENDBRANCH  27  29
ENDBRANCH  25  27
ENDBRANCH  22  25
ENDBRANCH  19  22
ENDBRANCH  15  16
ENDBRANCH  14  15
ENDBRANCH  13  14
ENDBRANCH   4  10
ENDBRANCH   2   3
TORSDOF 10
ENDMDL
MODEL       59
REMARK 921   NORMALIZED FREE ENERGY PREDICTED BY IDOCK:   -6.06 KCAL/MOL
REMARK 922        TOTAL FREE ENERGY PREDICTED BY IDOCK:  -11.58 KCAL/MOL
REMARK 923 INTER-LIGAND FREE ENERGY PREDICTED BY IDOCK:  -10.30 KCAL/MOL
REMARK 924 INTRA-LIGAND FREE ENERGY PREDICTED BY IDOCK:   -1.28 KCAL/MOL
REMARK 927      BINDING AFFINITY PREDICTED BY RF-SCORE:    0.00 PKD
ROOT
HETATM    1  C   UNL     1      -9.801   6.306  74.540  1.00  0.00    -0.323 C  
HETATM    2  O   UNL     1      -9.909   7.056  73.331  1.00  0.00    -0.190 OA 
ENDROOT
BRANCH   2   3
HETATM    3  C   UNL     1      -9.748   6.343  72.172  1.00  0.00    -0.152 A  
HETATM    4  C   UNL     1     -10.821   6.259  71.259  1.00  0.00    -0.317 A  
HETATM    5  C   UNL     1     -10.661   5.517  70.075  1.00  0.00    -0.384 A  
HETATM    6  C   UNL     1      -8.571   5.623  71.915  1.00  0.00    -0.131 A  
HETATM    7 CL   UNL     1      -9.311   3.886  68.402  1.00  0.00    -0.211 Cl 
HETATM    8  C   UNL     1      -8.438   4.859  70.756  1.00  0.00    -0.115 A  
HETATM    9  C   UNL     1      -9.478   4.819  69.837  1.00  0.00    -0.161 A  
BRANCH   4  10
HETATM   10  C   UNL     1     -12.128   6.951  71.514  1.00  0.00    -0.358 C  
HETATM   11  H   UNL     1     -11.373   8.744  70.756  1.00  0.00     0.000 HD 
HETATM   12  O   UNL     1     -13.068   6.380  72.052  1.00  0.00    -0.156 OA 
HETATM   13  N   UNL     1     -12.212   8.272  71.095  1.00  0.00    -0.273 N  
BRANCH  13  14
HETATM   14  C   UNL     1     -13.470   8.995  71.130  1.00  0.00    -0.098 C  
BRANCH  14  15
HETATM   15  C   UNL     1     -13.461  10.188  72.093  1.00  0.00    -0.371 C  
BRANCH  15  16
HETATM   16  C   UNL     1     -12.957  11.499  71.513  1.00  0.00    -0.485 A  
HETATM   17  C   UNL     1     -12.072  11.568  70.425  1.00  0.00    -0.471 A  
HETATM   18  C   UNL     1     -11.578  12.796  69.975  1.00  0.00    -0.194 A  
HETATM   19  C   UNL     1     -11.974  13.975  70.603  1.00  0.00    -0.305 A  
HETATM   20  C   UNL     1     -13.373  12.701  72.110  1.00  0.00    -0.570 A  
HETATM   21  C   UNL     1     -12.876  13.932  71.670  1.00  0.00    -0.432 A  
BRANCH  19  22
HETATM   22  S   UNL     1     -11.208  15.512  70.138  1.00  0.00    -0.351 S  
HETATM   23  O   UNL     1      -9.800  15.239  69.918  1.00  0.00    -0.229 OA 
HETATM   24  O   UNL     1     -11.617  16.545  71.062  1.00  0.00    -0.302 OA 
BRANCH  22  25
HETATM   25  N   UNL     1     -11.821  15.846  68.630  1.00  0.00    -0.465 N  
HETATM   26  H   UNL     1     -12.806  16.099  68.558  1.00  0.00     0.000 HD 
BRANCH  25  27
HETATM   27  C   UNL     1     -11.075  15.802  67.465  1.00  0.00    -0.258 C  
HETATM   28  O   UNL     1     -11.191  14.921  66.633  1.00  0.00    -0.341 OA 
BRANCH  27  29
HETATM   29  N   UNL     1     -10.186  16.836  67.356  1.00  0.00    -0.282 N  
HETATM   30  H   UNL     1      -9.225  16.655  67.064  1.00  0.00     0.000 HD 
BRANCH  29  31
HETATM   31  C   UNL     1     -10.613  18.195  67.659  1.00  0.00    -0.406 C  
HETATM   32  C   UNL     1      -9.781  18.811  68.789  1.00  0.00    -0.432 C  
HETATM   33  C   UNL     1      -8.376  19.206  68.341  1.00  0.00    -0.384 C  
HETATM   34  C   UNL     1      -8.418  20.116  67.118  1.00  0.00    -0.403 C  
HETATM   35  C   UNL     1      -9.200  19.484  65.972  1.00  0.00    -0.256 C  
HETATM   36  C   UNL     1     -10.605  19.072  66.404  1.00  0.00    -0.492 C  
ENDBRANCH  29  31
ENDBRANCH  27  29
ENDBRANCH  25  27
ENDBRANCH  22  25
ENDBRANCH  19  22
ENDBRANCH  15  16
ENDBRANCH  14  15
ENDBRANCH  13  14
ENDBRANCH   4  10
ENDBRANCH   2   3
TORSDOF 10
ENDMDL
MODEL       60
REMARK 921   NORMALIZED FREE ENERGY PREDICTED BY IDOCK:   -6.05 KCAL/MOL
REMARK 922        TOTAL FREE ENERGY PREDICTED BY IDOCK:  -11.55 KCAL/MOL
REMARK 923 INTER-LIGAND FREE ENERGY PREDICTED BY IDOCK:   -9.99 KCAL/MOL
REMARK 924 INTRA-LIGAND FREE ENERGY PREDICTED BY IDOCK:   -1.56 KCAL/MOL
REMARK 927      BINDING AFFINITY PREDICTED BY RF-SCORE:    0.00 PKD
ROOT
HETATM    1  C   UNL     1      -9.894   4.450  67.240  1.00  0.00    -0.162 C  
HETATM    2  O   UNL     1     -10.123   5.115  68.482  1.00  0.00    -0.171 OA 
ENDROOT
BRANCH   2   3
HETATM    3  C   UNL     1      -9.920   4.360  69.608  1.00  0.00    -0.138 A  
HETATM    4  C   UNL     1     -10.215   4.914  70.872  1.00  0.00    -0.272 A  
HETATM    5  C   UNL     1      -9.997   4.144  72.028  1.00  0.00    -0.250 A  
HETATM    6  C   UNL     1      -9.344   3.082  69.536  1.00  0.00    -0.213 A  
HETATM    7 CL   UNL     1      -9.137   1.958  73.357  1.00  0.00    -0.066 Cl 
HETATM    8  C   UNL     1      -9.095   2.344  70.693  1.00  0.00    -0.177 A  
HETATM    9  C   UNL     1      -9.433   2.873  71.931  1.00  0.00    -0.133 A  
BRANCH   4  10
HETATM   10  C   UNL     1     -10.769   6.302  71.015  1.00  0.00    -0.259 C  
HETATM   11  H   UNL     1      -8.850   7.087  71.262  1.00  0.00     0.000 HD 
HETATM   12  O   UNL     1     -11.973   6.520  71.007  1.00  0.00    -0.361 OA 
HETATM   13  N   UNL     1      -9.836   7.322  71.146  1.00  0.00    -0.182 N  
BRANCH  13  14
HETATM   14  C   UNL     1     -10.238   8.717  71.122  1.00  0.00    -0.230 C  
BRANCH  14  15
HETATM   15  C   UNL     1      -9.215   9.633  70.440  1.00  0.00    -0.258 C  
BRANCH  15  16
HETATM   16  C   UNL     1      -9.746  10.472  69.291  1.00  0.00    -0.215 A  
HETATM   17  C   UNL     1      -8.968  11.425  68.611  1.00  0.00    -0.133 A  
HETATM   18  C   UNL     1      -9.523  12.226  67.609  1.00  0.00    -0.188 A  
HETATM   19  C   UNL     1     -10.866  12.076  67.265  1.00  0.00    -0.246 A  
HETATM   20  C   UNL     1     -11.087  10.311  68.905  1.00  0.00    -0.278 A  
HETATM   21  C   UNL     1     -11.651  11.116  67.910  1.00  0.00    -0.328 A  
BRANCH  19  22
HETATM   22  S   UNL     1     -11.605  13.215  66.116  1.00  0.00    -0.374 S  
HETATM   23  O   UNL     1     -12.626  12.486  65.388  1.00  0.00    -0.656 OA 
HETATM   24  O   UNL     1     -10.562  13.918  65.406  1.00  0.00    -0.304 OA 
BRANCH  22  25
HETATM   25  N   UNL     1     -12.443  14.288  67.071  1.00  0.00    -0.543 N  
HETATM   26  H   UNL     1     -13.412  14.492  66.825  1.00  0.00     0.000 HD 
BRANCH  25  27
HETATM   27  C   UNL     1     -11.906  14.920  68.179  1.00  0.00    -0.278 C  
HETATM   28  O   UNL     1     -10.937  15.655  68.120  1.00  0.00    -0.288 OA 
BRANCH  27  29
HETATM   29  N   UNL     1     -12.563  14.620  69.340  1.00  0.00    -0.572 N  
HETATM   30  H   UNL     1     -13.570  14.767  69.410  1.00  0.00     0.000 HD 
BRANCH  29  31
HETATM   31  C   UNL     1     -11.821  14.090  70.477  1.00  0.00    -0.269 C  
HETATM   32  C   UNL     1     -11.396  15.201  71.442  1.00  0.00    -0.380 C  
HETATM   33  C   UNL     1     -12.558  15.738  72.275  1.00  0.00    -0.528 C  
HETATM   34  C   UNL     1     -13.285  14.614  73.003  1.00  0.00    -0.587 C  
HETATM   35  C   UNL     1     -13.759  13.531  72.039  1.00  0.00    -0.568 C  
HETATM   36  C   UNL     1     -12.611  12.989  71.190  1.00  0.00    -0.388 C  
ENDBRANCH  29  31
ENDBRANCH  27  29
ENDBRANCH  25  27
ENDBRANCH  22  25
ENDBRANCH  19  22
ENDBRANCH  15  16
ENDBRANCH  14  15
ENDBRANCH  13  14
ENDBRANCH   4  10
ENDBRANCH   2   3
TORSDOF 10
ENDMDL
MODEL       61
REMARK 921   NORMALIZED FREE ENERGY PREDICTED BY IDOCK:   -6.04 KCAL/MOL
REMARK 922        TOTAL FREE ENERGY PREDICTED BY IDOCK:  -11.54 KCAL/MOL
REMARK 923 INTER-LIGAND FREE ENERGY PREDICTED BY IDOCK:  -10.41 KCAL/MOL
REMARK 924 INTRA-LIGAND FREE ENERGY PREDICTED BY IDOCK:   -1.13 KCAL/MOL
REMARK 927      BINDING AFFINITY PREDICTED BY RF-SCORE:    0.00 PKD
ROOT
HETATM    1  C   UNL     1     -12.089  13.031  69.856  1.00  0.00    -0.277 C  
HETATM    2  O   UNL     1     -11.396  11.894  69.344  1.00  0.00    -0.259 OA 
ENDROOT
BRANCH   2   3
HETATM    3  C   UNL     1     -11.593  10.720  70.024  1.00  0.00    -0.334 A  
HETATM    4  C   UNL     1     -10.846   9.579  69.661  1.00  0.00    -0.255 A  
HETATM    5  C   UNL     1     -11.056   8.372  70.351  1.00  0.00    -0.240 A  
HETATM    6  C   UNL     1     -12.583  10.606  71.012  1.00  0.00    -0.516 A  
HETATM    7 CL   UNL     1     -12.309   6.792  72.145  1.00  0.00    -0.283 Cl 
HETATM    8  C   UNL     1     -12.810   9.393  71.662  1.00  0.00    -0.461 A  
HETATM    9  C   UNL     1     -12.038   8.286  71.336  1.00  0.00    -0.300 A  
BRANCH   4  10
HETATM   10  C   UNL     1      -9.822   9.623  68.565  1.00  0.00    -0.157 C  
HETATM   11  H   UNL     1     -11.190   8.836  67.198  1.00  0.00     0.000 HD 
HETATM   12  O   UNL     1      -8.671   9.986  68.771  1.00  0.00    -0.124 OA 
HETATM   13  N   UNL     1     -10.258   9.239  67.304  1.00  0.00    -0.233 N  
BRANCH  13  14
HETATM   14  C   UNL     1      -9.414   9.399  66.134  1.00  0.00    -0.226 C  
BRANCH  14  15
HETATM   15  C   UNL     1     -10.109  10.124  64.976  1.00  0.00    -0.305 C  
BRANCH  15  16
HETATM   16  C   UNL     1     -10.268  11.626  65.139  1.00  0.00    -0.319 A  
HETATM   17  C   UNL     1     -11.008  12.421  64.249  1.00  0.00    -0.396 A  
HETATM   18  C   UNL     1     -11.063  13.810  64.400  1.00  0.00    -0.356 A  
HETATM   19  C   UNL     1     -10.384  14.421  65.453  1.00  0.00    -0.378 A  
HETATM   20  C   UNL     1      -9.621  12.256  66.215  1.00  0.00    -0.248 A  
HETATM   21  C   UNL     1      -9.664  13.646  66.366  1.00  0.00    -0.300 A  
BRANCH  19  22
HETATM   22  S   UNL     1     -10.316  16.197  65.535  1.00  0.00    -0.325 S  
HETATM   23  O   UNL     1     -11.195  16.707  64.499  1.00  0.00    -0.909 OA 
HETATM   24  O   UNL     1      -8.935  16.617  65.594  1.00  0.00    -0.463 OA 
BRANCH  22  25
HETATM   25  N   UNL     1     -11.072  16.580  66.965  1.00  0.00     0.002 N  
HETATM   26  H   UNL     1     -11.966  16.134  67.168  1.00  0.00     0.000 HD 
BRANCH  25  27
HETATM   27  C   UNL     1     -10.561  17.468  67.896  1.00  0.00    -0.390 C  
HETATM   28  O   UNL     1     -10.652  17.297  69.097  1.00  0.00    -0.320 OA 
BRANCH  27  29
HETATM   29  N   UNL     1      -9.963  18.559  67.327  1.00  0.00    -0.316 N  
HETATM   30  H   UNL     1     -10.182  18.817  66.365  1.00  0.00     0.000 HD 
BRANCH  29  31
HETATM   31  C   UNL     1      -9.013  19.350  68.097  1.00  0.00    -0.326 C  
HETATM   32  C   UNL     1      -7.876  18.486  68.652  1.00  0.00    -0.338 C  
HETATM   33  C   UNL     1      -6.871  18.071  67.580  1.00  0.00    -0.196 C  
HETATM   34  C   UNL     1      -6.335  19.280  66.824  1.00  0.00    -0.190 C  
HETATM   35  C   UNL     1      -7.461  20.115  66.223  1.00  0.00    -0.304 C  
HETATM   36  C   UNL     1      -8.482  20.530  67.279  1.00  0.00    -0.365 C  
ENDBRANCH  29  31
ENDBRANCH  27  29
ENDBRANCH  25  27
ENDBRANCH  22  25
ENDBRANCH  19  22
ENDBRANCH  15  16
ENDBRANCH  14  15
ENDBRANCH  13  14
ENDBRANCH   4  10
ENDBRANCH   2   3
TORSDOF 10
ENDMDL
MODEL       62
REMARK 921   NORMALIZED FREE ENERGY PREDICTED BY IDOCK:   -6.04 KCAL/MOL
REMARK 922        TOTAL FREE ENERGY PREDICTED BY IDOCK:  -11.54 KCAL/MOL
REMARK 923 INTER-LIGAND FREE ENERGY PREDICTED BY IDOCK:   -8.71 KCAL/MOL
REMARK 924 INTRA-LIGAND FREE ENERGY PREDICTED BY IDOCK:   -2.82 KCAL/MOL
REMARK 927      BINDING AFFINITY PREDICTED BY RF-SCORE:    0.00 PKD
ROOT
HETATM    1  C   UNL     1     -12.076  13.665  69.534  1.00  0.00    -0.314 C  
HETATM    2  O   UNL     1     -12.031  13.889  68.125  1.00  0.00    -0.355 OA 
ENDROOT
BRANCH   2   3
HETATM    3  C   UNL     1     -11.416  15.047  67.725  1.00  0.00    -0.334 A  
HETATM    4  C   UNL     1     -11.287  15.319  66.347  1.00  0.00    -0.161 A  
HETATM    5  C   UNL     1     -10.645  16.501  65.936  1.00  0.00    -0.279 A  
HETATM    6  C   UNL     1     -10.835  15.923  68.655  1.00  0.00    -0.291 A  
HETATM    7 CL   UNL     1      -9.271  18.785  66.359  1.00  0.00    -0.324 Cl 
HETATM    8  C   UNL     1     -10.166  17.072  68.234  1.00  0.00    -0.326 A  
HETATM    9  C   UNL     1     -10.085  17.362  66.878  1.00  0.00    -0.314 A  
BRANCH   4  10
HETATM   10  C   UNL     1     -11.828  14.384  65.305  1.00  0.00    -0.373 C  
HETATM   11  H   UNL     1      -9.904  13.990  64.598  1.00  0.00     0.000 HD 
HETATM   12  O   UNL     1     -13.030  14.205  65.160  1.00  0.00    -0.729 OA 
HETATM   13  N   UNL     1     -10.887  13.728  64.523  1.00  0.00    -0.401 N  
BRANCH  13  14
HETATM   14  C   UNL     1     -11.275  12.677  63.600  1.00  0.00    -0.466 C  
BRANCH  14  15
HETATM   15  C   UNL     1     -10.365  11.444  63.663  1.00  0.00    -0.463 C  
BRANCH  15  16
HETATM   16  C   UNL     1     -10.380  10.682  64.977  1.00  0.00    -0.341 A  
HETATM   17  C   UNL     1     -11.112  11.100  66.100  1.00  0.00    -0.152 A  
HETATM   18  C   UNL     1     -11.034  10.405  67.310  1.00  0.00    -0.306 A  
HETATM   19  C   UNL     1     -10.228   9.272  67.409  1.00  0.00    -0.243 A  
HETATM   20  C   UNL     1      -9.601   9.517  65.085  1.00  0.00    -0.270 A  
HETATM   21  C   UNL     1      -9.512   8.823  66.296  1.00  0.00    -0.300 A  
BRANCH  19  22
HETATM   22  S   UNL     1      -9.999   8.499  68.995  1.00  0.00    -0.198 S  
HETATM   23  O   UNL     1     -10.336   7.096  68.840  1.00  0.00    -0.185 OA 
HETATM   24  O   UNL     1     -10.645   9.298  70.010  1.00  0.00    -0.207 OA 
BRANCH  22  25
HETATM   25  N   UNL     1      -8.355   8.520  69.238  1.00  0.00    -0.118 N  
HETATM   26  H   UNL     1      -7.799   7.775  68.819  1.00  0.00     0.000 HD 
BRANCH  25  27
HETATM   27  C   UNL     1      -7.694   9.489  69.974  1.00  0.00    -0.142 C  
HETATM   28  O   UNL     1      -7.068   9.242  70.988  1.00  0.00    -0.121 OA 
BRANCH  27  29
HETATM   29  N   UNL     1      -7.834  10.747  69.454  1.00  0.00    -0.305 N  
HETATM   30  H   UNL     1      -8.642  11.317  69.707  1.00  0.00     0.000 HD 
BRANCH  29  31
HETATM   31  C   UNL     1      -6.829  11.270  68.540  1.00  0.00    -0.071 C  
HETATM   32  C   UNL     1      -7.447  11.699  67.205  1.00  0.00    -0.143 C  
HETATM   33  C   UNL     1      -8.231  13.005  67.308  1.00  0.00    -0.174 C  
HETATM   34  C   UNL     1      -7.381  14.116  67.912  1.00  0.00    -0.163 C  
HETATM   35  C   UNL     1      -6.808  13.715  69.267  1.00  0.00    -0.063 C  
HETATM   36  C   UNL     1      -6.028  12.405  69.185  1.00  0.00    -0.081 C  
ENDBRANCH  29  31
ENDBRANCH  27  29
ENDBRANCH  25  27
ENDBRANCH  22  25
ENDBRANCH  19  22
ENDBRANCH  15  16
ENDBRANCH  14  15
ENDBRANCH  13  14
ENDBRANCH   4  10
ENDBRANCH   2   3
TORSDOF 10
ENDMDL
MODEL       63
REMARK 921   NORMALIZED FREE ENERGY PREDICTED BY IDOCK:   -6.02 KCAL/MOL
REMARK 922        TOTAL FREE ENERGY PREDICTED BY IDOCK:  -11.51 KCAL/MOL
REMARK 923 INTER-LIGAND FREE ENERGY PREDICTED BY IDOCK:  -10.10 KCAL/MOL
REMARK 924 INTRA-LIGAND FREE ENERGY PREDICTED BY IDOCK:   -1.41 KCAL/MOL
REMARK 927      BINDING AFFINITY PREDICTED BY RF-SCORE:    0.00 PKD
ROOT
HETATM    1  C   UNL     1      -6.498  16.439  69.457  1.00  0.00    -0.210 C  
HETATM    2  O   UNL     1      -7.913  16.273  69.383  1.00  0.00    -0.216 OA 
ENDROOT
BRANCH   2   3
HETATM    3  C   UNL     1      -8.570  17.126  68.535  1.00  0.00    -0.258 A  
HETATM    4  C   UNL     1      -9.683  16.655  67.807  1.00  0.00    -0.240 A  
HETATM    5  C   UNL     1     -10.350  17.528  66.929  1.00  0.00    -0.315 A  
HETATM    6  C   UNL     1      -8.104  18.432  68.309  1.00  0.00    -0.315 A  
HETATM    7 CL   UNL     1     -10.679  19.866  65.622  1.00  0.00    -0.505 Cl 
HETATM    8  C   UNL     1      -8.750  19.275  67.405  1.00  0.00    -0.326 A  
HETATM    9  C   UNL     1      -9.875  18.823  66.728  1.00  0.00    -0.343 A  
BRANCH   4  10
HETATM   10  C   UNL     1     -10.184  15.249  67.957  1.00  0.00    -0.230 C  
HETATM   11  H   UNL     1     -11.517  15.837  69.452  1.00  0.00     0.000 HD 
HETATM   12  O   UNL     1      -9.707  14.322  67.315  1.00  0.00    -0.226 OA 
HETATM   13  N   UNL     1     -11.225  15.062  68.856  1.00  0.00    -0.261 N  
BRANCH  13  14
HETATM   14  C   UNL     1     -11.907  13.785  68.965  1.00  0.00    -0.357 C  
BRANCH  14  15
HETATM   15  C   UNL     1     -12.238  13.392  70.410  1.00  0.00    -0.415 C  
BRANCH  15  16
HETATM   16  C   UNL     1     -12.255  11.902  70.699  1.00  0.00    -0.424 A  
HETATM   17  C   UNL     1     -11.497  10.969  69.973  1.00  0.00    -0.398 A  
HETATM   18  C   UNL     1     -11.604   9.599  70.228  1.00  0.00    -0.255 A  
HETATM   19  C   UNL     1     -12.466   9.144  71.225  1.00  0.00    -0.300 A  
HETATM   20  C   UNL     1     -13.091  11.427  71.723  1.00  0.00    -0.523 A  
HETATM   21  C   UNL     1     -13.210  10.056  71.978  1.00  0.00    -0.545 A  
BRANCH  19  22
HETATM   22  S   UNL     1     -12.726   7.395  71.423  1.00  0.00    -0.352 S  
HETATM   23  O   UNL     1     -11.999   6.731  70.358  1.00  0.00    -0.373 OA 
HETATM   24  O   UNL     1     -14.136   7.143  71.613  1.00  0.00    -0.400 OA 
BRANCH  22  25
HETATM   25  N   UNL     1     -11.902   7.004  72.813  1.00  0.00    -0.521 N  
HETATM   26  H   UNL     1     -12.090   7.553  73.652  1.00  0.00     0.000 HD 
BRANCH  25  27
HETATM   27  C   UNL     1     -10.977   5.978  72.901  1.00  0.00    -0.269 C  
HETATM   28  O   UNL     1     -11.283   4.825  73.138  1.00  0.00    -0.287 OA 
BRANCH  27  29
HETATM   29  N   UNL     1      -9.689   6.399  72.712  1.00  0.00    -0.158 N  
HETATM   30  H   UNL     1      -8.999   5.768  72.304  1.00  0.00     0.000 HD 
BRANCH  29  31
HETATM   31  C   UNL     1      -9.304   7.751  73.095  1.00  0.00    -0.255 C  
HETATM   32  C   UNL     1      -8.383   7.751  74.319  1.00  0.00    -0.293 C  
HETATM   33  C   UNL     1      -6.964   7.293  73.992  1.00  0.00    -0.094 C  
HETATM   34  C   UNL     1      -6.369   8.102  72.845  1.00  0.00    -0.084 C  
HETATM   35  C   UNL     1      -7.256   8.060  71.606  1.00  0.00    -0.074 C  
HETATM   36  C   UNL     1      -8.683   8.506  71.916  1.00  0.00    -0.270 C  
ENDBRANCH  29  31
ENDBRANCH  27  29
ENDBRANCH  25  27
ENDBRANCH  22  25
ENDBRANCH  19  22
ENDBRANCH  15  16
ENDBRANCH  14  15
ENDBRANCH  13  14
ENDBRANCH   4  10
ENDBRANCH   2   3
TORSDOF 10
ENDMDL
MODEL       64
REMARK 921   NORMALIZED FREE ENERGY PREDICTED BY IDOCK:   -5.99 KCAL/MOL
REMARK 922        TOTAL FREE ENERGY PREDICTED BY IDOCK:  -11.47 KCAL/MOL
REMARK 923 INTER-LIGAND FREE ENERGY PREDICTED BY IDOCK:   -9.44 KCAL/MOL
REMARK 924 INTRA-LIGAND FREE ENERGY PREDICTED BY IDOCK:   -2.03 KCAL/MOL
REMARK 927      BINDING AFFINITY PREDICTED BY RF-SCORE:    0.00 PKD
ROOT
HETATM    1  C   UNL     1     -10.530   9.326  67.749  1.00  0.00    -0.255 C  
HETATM    2  O   UNL     1     -10.273  10.235  68.818  1.00  0.00    -0.174 OA 
ENDROOT
BRANCH   2   3
HETATM    3  C   UNL     1     -10.025   9.664  70.039  1.00  0.00    -0.247 A  
HETATM    4  C   UNL     1      -8.691   9.429  70.433  1.00  0.00    -0.278 A  
HETATM    5  C   UNL     1      -8.437   8.832  71.682  1.00  0.00    -0.209 A  
HETATM    6  C   UNL     1     -11.072   9.227  70.866  1.00  0.00    -0.374 A  
HETATM    7 CL   UNL     1      -9.167   7.653  73.997  1.00  0.00    -0.298 Cl 
HETATM    8  C   UNL     1     -10.808   8.600  72.084  1.00  0.00    -0.424 A  
HETATM    9  C   UNL     1      -9.493   8.416  72.490  1.00  0.00    -0.289 A  
BRANCH   4  10
HETATM   10  C   UNL     1      -7.532   9.812  69.560  1.00  0.00    -0.101 C  
HETATM   11  H   UNL     1      -7.504  11.736  70.370  1.00  0.00     0.000 HD 
HETATM   12  O   UNL     1      -7.065   9.040  68.732  1.00  0.00    -0.068 OA 
HETATM   13  N   UNL     1      -7.016  11.086  69.753  1.00  0.00    -0.126 N  
BRANCH  13  14
HETATM   14  C   UNL     1      -5.795  11.512  69.093  1.00  0.00    -0.048 C  
BRANCH  14  15
HETATM   15  C   UNL     1      -5.567  13.027  69.153  1.00  0.00    -0.073 C  
BRANCH  15  16
HETATM   16  C   UNL     1      -6.756  13.888  68.765  1.00  0.00    -0.102 A  
HETATM   17  C   UNL     1      -7.336  14.831  69.629  1.00  0.00    -0.114 A  
HETATM   18  C   UNL     1      -8.476  15.547  69.253  1.00  0.00    -0.265 A  
HETATM   19  C   UNL     1      -9.046  15.336  67.999  1.00  0.00    -0.176 A  
HETATM   20  C   UNL     1      -7.323  13.715  67.491  1.00  0.00    -0.178 A  
HETATM   21  C   UNL     1      -8.470  14.422  67.113  1.00  0.00    -0.229 A  
BRANCH  19  22
HETATM   22  S   UNL     1     -10.593  16.119  67.599  1.00  0.00    -0.315 S  
HETATM   23  O   UNL     1     -10.456  16.681  66.268  1.00  0.00    -0.306 OA 
HETATM   24  O   UNL     1     -11.003  16.952  68.706  1.00  0.00    -0.311 OA 
BRANCH  22  25
HETATM   25  N   UNL     1     -11.667  14.862  67.424  1.00  0.00    -0.339 N  
HETATM   26  H   UNL     1     -12.167  14.779  66.539  1.00  0.00     0.000 HD 
BRANCH  25  27
HETATM   27  C   UNL     1     -11.923  13.922  68.407  1.00  0.00    -0.356 C  
HETATM   28  O   UNL     1     -11.693  12.735  68.268  1.00  0.00    -0.309 OA 
BRANCH  27  29
HETATM   29  N   UNL     1     -12.474  14.462  69.536  1.00  0.00    -0.540 N  
HETATM   30  H   UNL     1     -13.188  15.187  69.460  1.00  0.00     0.000 HD 
BRANCH  29  31
HETATM   31  C   UNL     1     -12.042  13.999  70.848  1.00  0.00    -0.329 C  
HETATM   32  C   UNL     1     -11.360  15.116  71.645  1.00  0.00    -0.394 C  
HETATM   33  C   UNL     1     -12.349  16.147  72.183  1.00  0.00    -0.503 C  
HETATM   34  C   UNL     1     -13.459  15.484  72.989  1.00  0.00    -0.632 C  
HETATM   35  C   UNL     1     -14.177  14.408  72.182  1.00  0.00    -0.626 C  
HETATM   36  C   UNL     1     -13.202  13.373  71.626  1.00  0.00    -0.449 C  
ENDBRANCH  29  31
ENDBRANCH  27  29
ENDBRANCH  25  27
ENDBRANCH  22  25
ENDBRANCH  19  22
ENDBRANCH  15  16
ENDBRANCH  14  15
ENDBRANCH  13  14
ENDBRANCH   4  10
ENDBRANCH   2   3
TORSDOF 10
ENDMDL
MODEL       65
REMARK 921   NORMALIZED FREE ENERGY PREDICTED BY IDOCK:   -5.98 KCAL/MOL
REMARK 922        TOTAL FREE ENERGY PREDICTED BY IDOCK:  -11.45 KCAL/MOL
REMARK 923 INTER-LIGAND FREE ENERGY PREDICTED BY IDOCK:  -10.52 KCAL/MOL
REMARK 924 INTRA-LIGAND FREE ENERGY PREDICTED BY IDOCK:   -0.93 KCAL/MOL
REMARK 927      BINDING AFFINITY PREDICTED BY RF-SCORE:    0.00 PKD
ROOT
HETATM    1  C   UNL     1      -8.714   4.535  71.598  1.00  0.00    -0.116 C  
HETATM    2  O   UNL     1      -8.415   5.512  70.603  1.00  0.00    -0.117 OA 
ENDROOT
BRANCH   2   3
HETATM    3  C   UNL     1      -8.862   5.231  69.338  1.00  0.00    -0.100 A  
HETATM    4  C   UNL     1      -9.207   6.293  68.476  1.00  0.00    -0.123 A  
HETATM    5  C   UNL     1      -9.677   6.004  67.182  1.00  0.00    -0.148 A  
HETATM    6  C   UNL     1      -9.068   3.908  68.915  1.00  0.00    -0.196 A  
HETATM    7 CL   UNL     1     -10.475   4.346  65.208  1.00  0.00    -0.255 Cl 
HETATM    8  C   UNL     1      -9.572   3.635  67.643  1.00  0.00    -0.193 A  
HETATM    9  C   UNL     1      -9.863   4.683  66.780  1.00  0.00    -0.218 A  
BRANCH   4  10
HETATM   10  C   UNL     1      -9.073   7.727  68.899  1.00  0.00    -0.141 C  
HETATM   11  H   UNL     1     -10.778   7.577  70.095  1.00  0.00     0.000 HD 
HETATM   12  O   UNL     1      -8.195   8.453  68.451  1.00  0.00    -0.121 OA 
HETATM   13  N   UNL     1      -9.995   8.178  69.833  1.00  0.00    -0.187 N  
BRANCH  13  14
HETATM   14  C   UNL     1      -9.868   9.488  70.446  1.00  0.00    -0.271 C  
BRANCH  14  15
HETATM   15  C   UNL     1     -11.159  10.314  70.390  1.00  0.00    -0.391 C  
BRANCH  15  16
HETATM   16  C   UNL     1     -11.346  11.160  69.142  1.00  0.00    -0.340 A  
HETATM   17  C   UNL     1     -11.134  10.670  67.843  1.00  0.00    -0.371 A  
HETATM   18  C   UNL     1     -11.247  11.508  66.730  1.00  0.00    -0.350 A  
HETATM   19  C   UNL     1     -11.586  12.849  66.902  1.00  0.00    -0.368 A  
HETATM   20  C   UNL     1     -11.722  12.505  69.293  1.00  0.00    -0.379 A  
HETATM   21  C   UNL     1     -11.828  13.351  68.184  1.00  0.00    -0.396 A  
BRANCH  19  22
HETATM   22  S   UNL     1     -11.555  13.945  65.501  1.00  0.00    -0.339 S  
HETATM   23  O   UNL     1     -12.924  14.088  65.041  1.00  0.00    -0.728 OA 
HETATM   24  O   UNL     1     -10.518  13.520  64.589  1.00  0.00    -0.400 OA 
BRANCH  22  25
HETATM   25  N   UNL     1     -11.159  15.428  66.137  1.00  0.00    -0.280 N  
HETATM   26  H   UNL     1     -11.116  15.517  67.152  1.00  0.00     0.000 HD 
BRANCH  25  27
HETATM   27  C   UNL     1     -10.884  16.549  65.373  1.00  0.00    -0.206 C  
HETATM   28  O   UNL     1     -11.358  16.733  64.268  1.00  0.00    -1.170 OA 
BRANCH  27  29
HETATM   29  N   UNL     1     -10.014  17.413  65.981  1.00  0.00    -0.254 N  
HETATM   30  H   UNL     1      -9.068  17.525  65.617  1.00  0.00     0.000 HD 
BRANCH  29  31
HETATM   31  C   UNL     1     -10.442  18.172  67.148  1.00  0.00    -0.378 C  
HETATM   32  C   UNL     1      -9.686  17.744  68.409  1.00  0.00    -0.333 C  
HETATM   33  C   UNL     1      -8.246  18.250  68.437  1.00  0.00    -0.326 C  
HETATM   34  C   UNL     1      -8.184  19.760  68.235  1.00  0.00    -0.312 C  
HETATM   35  C   UNL     1      -8.889  20.186  66.952  1.00  0.00    -0.426 C  
HETATM   36  C   UNL     1     -10.328  19.679  66.901  1.00  0.00    -0.583 C  
ENDBRANCH  29  31
ENDBRANCH  27  29
ENDBRANCH  25  27
ENDBRANCH  22  25
ENDBRANCH  19  22
ENDBRANCH  15  16
ENDBRANCH  14  15
ENDBRANCH  13  14
ENDBRANCH   4  10
ENDBRANCH   2   3
TORSDOF 10
ENDMDL
MODEL       66
REMARK 921   NORMALIZED FREE ENERGY PREDICTED BY IDOCK:   -5.98 KCAL/MOL
REMARK 922        TOTAL FREE ENERGY PREDICTED BY IDOCK:  -11.44 KCAL/MOL
REMARK 923 INTER-LIGAND FREE ENERGY PREDICTED BY IDOCK:  -10.29 KCAL/MOL
REMARK 924 INTRA-LIGAND FREE ENERGY PREDICTED BY IDOCK:   -1.15 KCAL/MOL
REMARK 927      BINDING AFFINITY PREDICTED BY RF-SCORE:    0.00 PKD
ROOT
HETATM    1  C   UNL     1     -12.461  10.411  70.746  1.00  0.00    -0.368 C  
HETATM    2  O   UNL     1     -11.121   9.924  70.775  1.00  0.00    -0.303 OA 
ENDROOT
BRANCH   2   3
HETATM    3  C   UNL     1     -10.965   8.635  71.215  1.00  0.00    -0.267 A  
HETATM    4  C   UNL     1      -9.972   7.821  70.630  1.00  0.00    -0.186 A  
HETATM    5  C   UNL     1      -9.819   6.495  71.074  1.00  0.00    -0.196 A  
HETATM    6  C   UNL     1     -11.831   8.081  72.171  1.00  0.00    -0.401 A  
HETATM    7 CL   UNL     1     -10.510   4.335  72.536  1.00  0.00    -0.243 Cl 
HETATM    8  C   UNL     1     -11.695   6.752  72.574  1.00  0.00    -0.196 A  
HETATM    9  C   UNL     1     -10.684   5.970  72.032  1.00  0.00    -0.235 A  
BRANCH   4  10
HETATM   10  C   UNL     1      -9.062   8.339  69.555  1.00  0.00    -0.154 C  
HETATM   11  H   UNL     1      -9.851   6.984  68.177  1.00  0.00     0.000 HD 
HETATM   12  O   UNL     1      -8.228   9.207  69.777  1.00  0.00    -0.110 OA 
HETATM   13  N   UNL     1      -9.227   7.782  68.294  1.00  0.00    -0.140 N  
BRANCH  13  14
HETATM   14  C   UNL     1      -8.528   8.314  67.138  1.00  0.00    -0.123 C  
BRANCH  14  15
HETATM   15  C   UNL     1      -9.462   8.686  65.979  1.00  0.00    -0.278 C  
BRANCH  15  16
HETATM   16  C   UNL     1     -10.016  10.099  66.007  1.00  0.00    -0.322 A  
HETATM   17  C   UNL     1     -10.847  10.579  67.033  1.00  0.00    -0.288 A  
HETATM   18  C   UNL     1     -11.393  11.864  66.976  1.00  0.00    -0.392 A  
HETATM   19  C   UNL     1     -11.105  12.693  65.893  1.00  0.00    -0.289 A  
HETATM   20  C   UNL     1      -9.709  10.962  64.942  1.00  0.00    -0.318 A  
HETATM   21  C   UNL     1     -10.260  12.246  64.874  1.00  0.00    -0.307 A  
BRANCH  19  22
HETATM   22  S   UNL     1     -11.942  14.256  65.743  1.00  0.00    -0.384 S  
HETATM   23  O   UNL     1     -13.285  13.978  65.270  1.00  0.00    -0.782 OA 
HETATM   24  O   UNL     1     -11.093  15.183  65.029  1.00  0.00    -0.375 OA 
BRANCH  22  25
HETATM   25  N   UNL     1     -12.137  14.779  67.309  1.00  0.00    -0.476 N  
HETATM   26  H   UNL     1     -13.063  14.697  67.728  1.00  0.00     0.000 HD 
BRANCH  25  27
HETATM   27  C   UNL     1     -11.120  15.317  68.077  1.00  0.00    -0.312 C  
HETATM   28  O   UNL     1     -10.273  14.640  68.629  1.00  0.00    -0.230 OA 
BRANCH  27  29
HETATM   29  N   UNL     1     -11.178  16.681  68.165  1.00  0.00    -0.287 N  
HETATM   30  H   UNL     1     -11.722  17.123  68.906  1.00  0.00     0.000 HD 
BRANCH  29  31
HETATM   31  C   UNL     1     -10.460  17.502  67.199  1.00  0.00    -0.312 C  
HETATM   32  C   UNL     1     -10.761  18.992  67.388  1.00  0.00    -0.559 C  
HETATM   33  C   UNL     1     -10.068  19.585  68.613  1.00  0.00    -0.535 C  
HETATM   34  C   UNL     1      -8.568  19.317  68.586  1.00  0.00    -0.401 C  
HETATM   35  C   UNL     1      -8.262  17.829  68.452  1.00  0.00    -0.298 C  
HETATM   36  C   UNL     1      -8.956  17.217  67.237  1.00  0.00    -0.228 C  
ENDBRANCH  29  31
ENDBRANCH  27  29
ENDBRANCH  25  27
ENDBRANCH  22  25
ENDBRANCH  19  22
ENDBRANCH  15  16
ENDBRANCH  14  15
ENDBRANCH  13  14
ENDBRANCH   4  10
ENDBRANCH   2   3
TORSDOF 10
ENDMDL
MODEL       67
REMARK 921   NORMALIZED FREE ENERGY PREDICTED BY IDOCK:   -5.97 KCAL/MOL
REMARK 922        TOTAL FREE ENERGY PREDICTED BY IDOCK:  -11.43 KCAL/MOL
REMARK 923 INTER-LIGAND FREE ENERGY PREDICTED BY IDOCK:   -9.63 KCAL/MOL
REMARK 924 INTRA-LIGAND FREE ENERGY PREDICTED BY IDOCK:   -1.80 KCAL/MOL
REMARK 927      BINDING AFFINITY PREDICTED BY RF-SCORE:    0.00 PKD
ROOT
HETATM    1  C   UNL     1     -11.760  13.558  67.242  1.00  0.00    -0.383 C  
HETATM    2  O   UNL     1     -11.588  12.896  68.494  1.00  0.00    -0.279 OA 
ENDROOT
BRANCH   2   3
HETATM    3  C   UNL     1     -12.007  13.593  69.598  1.00  0.00    -0.343 A  
HETATM    4  C   UNL     1     -12.525  12.886  70.704  1.00  0.00    -0.333 A  
HETATM    5  C   UNL     1     -12.966  13.601  71.833  1.00  0.00    -0.432 A  
HETATM    6  C   UNL     1     -12.014  14.996  69.617  1.00  0.00    -0.356 A  
HETATM    7 CL   UNL     1     -13.530  15.856  73.204  1.00  0.00    -0.678 Cl 
HETATM    8  C   UNL     1     -12.491  15.695  70.726  1.00  0.00    -0.484 A  
HETATM    9  C   UNL     1     -12.953  14.995  71.832  1.00  0.00    -0.345 A  
BRANCH   4  10
HETATM   10  C   UNL     1     -12.607  11.387  70.714  1.00  0.00    -0.316 C  
HETATM   11  H   UNL     1     -13.218  11.392  72.711  1.00  0.00     0.000 HD 
HETATM   12  O   UNL     1     -12.288  10.717  69.741  1.00  0.00    -0.327 OA 
HETATM   13  N   UNL     1     -13.072  10.808  71.887  1.00  0.00    -0.494 N  
BRANCH  13  14
HETATM   14  C   UNL     1     -13.356   9.386  71.963  1.00  0.00    -0.450 C  
BRANCH  14  15
HETATM   15  C   UNL     1     -12.254   8.582  72.664  1.00  0.00    -0.297 C  
BRANCH  15  16
HETATM   16  C   UNL     1     -11.162   8.035  71.762  1.00  0.00    -0.317 A  
HETATM   17  C   UNL     1      -9.979   8.736  71.476  1.00  0.00    -0.370 A  
HETATM   18  C   UNL     1      -9.037   8.223  70.580  1.00  0.00    -0.154 A  
HETATM   19  C   UNL     1      -9.262   6.992  69.965  1.00  0.00    -0.148 A  
HETATM   20  C   UNL     1     -11.354   6.780  71.161  1.00  0.00    -0.342 A  
HETATM   21  C   UNL     1     -10.419   6.265  70.256  1.00  0.00    -0.276 A  
BRANCH  19  22
HETATM   22  S   UNL     1      -8.145   6.432  68.698  1.00  0.00    -0.114 S  
HETATM   23  O   UNL     1      -7.540   5.202  69.175  1.00  0.00    -0.067 OA 
HETATM   24  O   UNL     1      -7.318   7.536  68.272  1.00  0.00    -0.090 OA 
BRANCH  22  25
HETATM   25  N   UNL     1      -9.134   5.965  67.445  1.00  0.00    -0.111 N  
HETATM   26  H   UNL     1      -9.043   5.013  67.093  1.00  0.00     0.000 HD 
BRANCH  25  27
HETATM   27  C   UNL     1     -10.072   6.792  66.852  1.00  0.00    -0.202 C  
HETATM   28  O   UNL     1     -11.267   6.559  66.866  1.00  0.00    -0.387 OA 
BRANCH  27  29
HETATM   29  N   UNL     1      -9.517   7.880  66.237  1.00  0.00    -0.344 N  
HETATM   30  H   UNL     1      -8.608   7.801  65.782  1.00  0.00     0.000 HD 
BRANCH  29  31
HETATM   31  C   UNL     1     -10.228   9.152  66.233  1.00  0.00    -0.187 C  
HETATM   32  C   UNL     1     -10.011   9.925  67.537  1.00  0.00    -0.229 C  
HETATM   33  C   UNL     1      -8.619  10.546  67.632  1.00  0.00    -0.118 C  
HETATM   34  C   UNL     1      -8.312  11.409  66.414  1.00  0.00    -0.140 C  
HETATM   35  C   UNL     1      -8.473  10.628  65.115  1.00  0.00    -0.146 C  
HETATM   36  C   UNL     1      -9.857   9.991  65.006  1.00  0.00    -0.374 C  
ENDBRANCH  29  31
ENDBRANCH  27  29
ENDBRANCH  25  27
ENDBRANCH  22  25
ENDBRANCH  19  22
ENDBRANCH  15  16
ENDBRANCH  14  15
ENDBRANCH  13  14
ENDBRANCH   4  10
ENDBRANCH   2   3
TORSDOF 10
ENDMDL
MODEL       68
REMARK 921   NORMALIZED FREE ENERGY PREDICTED BY IDOCK:   -5.97 KCAL/MOL
REMARK 922        TOTAL FREE ENERGY PREDICTED BY IDOCK:  -11.43 KCAL/MOL
REMARK 923 INTER-LIGAND FREE ENERGY PREDICTED BY IDOCK:   -8.83 KCAL/MOL
REMARK 924 INTRA-LIGAND FREE ENERGY PREDICTED BY IDOCK:   -2.60 KCAL/MOL
REMARK 927      BINDING AFFINITY PREDICTED BY RF-SCORE:    0.00 PKD
ROOT
HETATM    1  C   UNL     1     -13.793  13.985  72.364  1.00  0.00    -0.551 C  
HETATM    2  O   UNL     1     -12.836  12.953  72.130  1.00  0.00    -0.234 OA 
ENDROOT
BRANCH   2   3
HETATM    3  C   UNL     1     -12.520  12.721  70.816  1.00  0.00    -0.271 A  
HETATM    4  C   UNL     1     -12.245  11.403  70.395  1.00  0.00    -0.450 A  
HETATM    5  C   UNL     1     -11.909  11.166  69.049  1.00  0.00    -0.418 A  
HETATM    6  C   UNL     1     -12.376  13.777  69.903  1.00  0.00    -0.334 A  
HETATM    7 CL   UNL     1     -11.333  11.929  66.526  1.00  0.00    -0.397 Cl 
HETATM    8  C   UNL     1     -12.003  13.534  68.581  1.00  0.00    -0.378 A  
HETATM    9  C   UNL     1     -11.783  12.230  68.158  1.00  0.00    -0.349 A  
BRANCH   4  10
HETATM   10  C   UNL     1     -12.315  10.241  71.343  1.00  0.00    -0.401 C  
HETATM   11  H   UNL     1     -10.421   9.591  70.754  1.00  0.00     0.000 HD 
HETATM   12  O   UNL     1     -13.311  10.020  72.019  1.00  0.00    -0.429 OA 
HETATM   13  N   UNL     1     -11.184   9.441  71.414  1.00  0.00    -0.358 N  
BRANCH  13  14
HETATM   14  C   UNL     1     -11.064   8.393  72.412  1.00  0.00    -0.361 C  
BRANCH  14  15
HETATM   15  C   UNL     1     -11.723   7.073  71.991  1.00  0.00    -0.332 C  
BRANCH  15  16
HETATM   16  C   UNL     1     -11.100   6.379  70.792  1.00  0.00    -0.365 A  
HETATM   17  C   UNL     1     -11.530   6.591  69.472  1.00  0.00    -0.384 A  
HETATM   18  C   UNL     1     -10.976   5.872  68.410  1.00  0.00    -0.264 A  
HETATM   19  C   UNL     1      -9.971   4.937  68.654  1.00  0.00    -0.125 A  
HETATM   20  C   UNL     1     -10.062   5.459  71.015  1.00  0.00    -0.281 A  
HETATM   21  C   UNL     1      -9.509   4.729  69.956  1.00  0.00    -0.240 A  
BRANCH  19  22
HETATM   22  S   UNL     1      -9.397   3.905  67.323  1.00  0.00    -0.200 S  
HETATM   23  O   UNL     1     -10.155   4.269  66.142  1.00  0.00    -0.226 OA 
HETATM   24  O   UNL     1      -9.355   2.532  67.771  1.00  0.00    -0.192 OA 
BRANCH  22  25
HETATM   25  N   UNL     1      -7.850   4.435  67.021  1.00  0.00    -0.097 N  
HETATM   26  H   UNL     1      -7.102   4.098  67.626  1.00  0.00     0.000 HD 
BRANCH  25  27
HETATM   27  C   UNL     1      -7.518   5.305  65.997  1.00  0.00    -0.082 C  
HETATM   28  O   UNL     1      -6.577   5.122  65.247  1.00  0.00    -0.038 OA 
BRANCH  27  29
HETATM   29  N   UNL     1      -8.342   6.395  65.930  1.00  0.00    -0.137 N  
HETATM   30  H   UNL     1      -9.343   6.271  65.780  1.00  0.00     0.000 HD 
BRANCH  29  31
HETATM   31  C   UNL     1      -7.786   7.734  66.073  1.00  0.00    -0.100 C  
HETATM   32  C   UNL     1      -8.857   8.814  65.881  1.00  0.00    -0.222 C  
HETATM   33  C   UNL     1      -9.802   8.929  67.075  1.00  0.00    -0.277 C  
HETATM   34  C   UNL     1      -9.032   9.131  68.375  1.00  0.00    -0.133 C  
HETATM   35  C   UNL     1      -8.003   8.029  68.598  1.00  0.00    -0.123 C  
HETATM   36  C   UNL     1      -7.054   7.892  67.409  1.00  0.00    -0.083 C  
ENDBRANCH  29  31
ENDBRANCH  27  29
ENDBRANCH  25  27
ENDBRANCH  22  25
ENDBRANCH  19  22
ENDBRANCH  15  16
ENDBRANCH  14  15
ENDBRANCH  13  14
ENDBRANCH   4  10
ENDBRANCH   2   3
TORSDOF 10
ENDMDL
MODEL       69
REMARK 921   NORMALIZED FREE ENERGY PREDICTED BY IDOCK:   -5.97 KCAL/MOL
REMARK 922        TOTAL FREE ENERGY PREDICTED BY IDOCK:  -11.42 KCAL/MOL
REMARK 923 INTER-LIGAND FREE ENERGY PREDICTED BY IDOCK:   -9.99 KCAL/MOL
REMARK 924 INTRA-LIGAND FREE ENERGY PREDICTED BY IDOCK:   -1.43 KCAL/MOL
REMARK 927      BINDING AFFINITY PREDICTED BY RF-SCORE:    0.00 PKD
ROOT
HETATM    1  C   UNL     1     -12.701   8.733  71.841  1.00  0.00    -0.374 C  
HETATM    2  O   UNL     1     -11.327   9.072  71.661  1.00  0.00    -0.310 OA 
ENDROOT
BRANCH   2   3
HETATM    3  C   UNL     1     -10.423   8.221  72.242  1.00  0.00    -0.321 A  
HETATM    4  C   UNL     1      -9.211   7.942  71.575  1.00  0.00    -0.171 A  
HETATM    5  C   UNL     1      -8.288   7.060  72.165  1.00  0.00    -0.107 A  
HETATM    6  C   UNL     1     -10.715   7.553  73.441  1.00  0.00    -0.387 A  
HETATM    7 CL   UNL     1      -7.474   5.311  74.052  1.00  0.00    -0.086 Cl 
HETATM    8  C   UNL     1      -9.809   6.650  73.997  1.00  0.00    -0.316 A  
HETATM    9  C   UNL     1      -8.596   6.417  73.362  1.00  0.00    -0.124 A  
BRANCH   4  10
HETATM   10  C   UNL     1      -8.874   8.574  70.256  1.00  0.00    -0.148 C  
HETATM   11  H   UNL     1      -8.960   6.721  69.299  1.00  0.00     0.000 HD 
HETATM   12  O   UNL     1      -8.630   9.770  70.157  1.00  0.00    -0.203 OA 
HETATM   13  N   UNL     1      -8.864   7.727  69.157  1.00  0.00    -0.138 N  
BRANCH  13  14
HETATM   14  C   UNL     1      -8.720   8.244  67.808  1.00  0.00    -0.134 C  
BRANCH  14  15
HETATM   15  C   UNL     1     -10.060   8.506  67.109  1.00  0.00    -0.331 C  
BRANCH  15  16
HETATM   16  C   UNL     1     -10.438   9.966  66.935  1.00  0.00    -0.284 A  
HETATM   17  C   UNL     1     -11.174  10.689  67.888  1.00  0.00    -0.376 A  
HETATM   18  C   UNL     1     -11.562  12.010  67.649  1.00  0.00    -0.392 A  
HETATM   19  C   UNL     1     -11.208  12.631  66.452  1.00  0.00    -0.305 A  
HETATM   20  C   UNL     1     -10.060  10.620  65.750  1.00  0.00    -0.327 A  
HETATM   21  C   UNL     1     -10.453  11.939  65.501  1.00  0.00    -0.309 A  
BRANCH  19  22
HETATM   22  S   UNL     1     -11.853  14.247  66.082  1.00  0.00    -0.397 S  
HETATM   23  O   UNL     1     -13.208  14.066  65.598  1.00  0.00    -0.634 OA 
HETATM   24  O   UNL     1     -10.886  14.976  65.294  1.00  0.00    -0.334 OA 
BRANCH  22  25
HETATM   25  N   UNL     1     -12.023  14.980  67.565  1.00  0.00    -0.416 N  
HETATM   26  H   UNL     1     -12.949  14.990  67.991  1.00  0.00     0.000 HD 
BRANCH  25  27
HETATM   27  C   UNL     1     -10.982  15.576  68.257  1.00  0.00    -0.305 C  
HETATM   28  O   UNL     1     -10.574  15.166  69.327  1.00  0.00    -0.233 OA 
BRANCH  27  29
HETATM   29  N   UNL     1     -10.478  16.678  67.622  1.00  0.00    -0.313 N  
HETATM   30  H   UNL     1     -10.648  16.816  66.626  1.00  0.00     0.000 HD 
BRANCH  29  31
HETATM   31  C   UNL     1      -9.697  17.652  68.372  1.00  0.00    -0.321 C  
HETATM   32  C   UNL     1      -8.229  17.658  67.934  1.00  0.00    -0.234 C  
HETATM   33  C   UNL     1      -8.019  18.329  66.578  1.00  0.00    -0.294 C  
HETATM   34  C   UNL     1      -8.615  19.731  66.554  1.00  0.00    -0.396 C  
HETATM   35  C   UNL     1     -10.091  19.724  66.937  1.00  0.00    -0.559 C  
HETATM   36  C   UNL     1     -10.321  19.048  68.286  1.00  0.00    -0.415 C  
ENDBRANCH  29  31
ENDBRANCH  27  29
ENDBRANCH  25  27
ENDBRANCH  22  25
ENDBRANCH  19  22
ENDBRANCH  15  16
ENDBRANCH  14  15
ENDBRANCH  13  14
ENDBRANCH   4  10
ENDBRANCH   2   3
TORSDOF 10
ENDMDL
MODEL       70
REMARK 921   NORMALIZED FREE ENERGY PREDICTED BY IDOCK:   -5.96 KCAL/MOL
REMARK 922        TOTAL FREE ENERGY PREDICTED BY IDOCK:  -11.42 KCAL/MOL
REMARK 923 INTER-LIGAND FREE ENERGY PREDICTED BY IDOCK:   -9.69 KCAL/MOL
REMARK 924 INTRA-LIGAND FREE ENERGY PREDICTED BY IDOCK:   -1.73 KCAL/MOL
REMARK 927      BINDING AFFINITY PREDICTED BY RF-SCORE:    0.00 PKD
ROOT
HETATM    1  C   UNL     1      -9.587  13.308  66.854  1.00  0.00    -0.249 C  
HETATM    2  O   UNL     1     -10.766  14.084  67.061  1.00  0.00    -0.281 OA 
ENDROOT
BRANCH   2   3
HETATM    3  C   UNL     1     -10.642  15.430  66.829  1.00  0.00    -0.309 A  
HETATM    4  C   UNL     1     -10.598  16.317  67.926  1.00  0.00    -0.318 A  
HETATM    5  C   UNL     1     -10.482  17.699  67.688  1.00  0.00    -0.372 A  
HETATM    6  C   UNL     1     -10.647  15.950  65.525  1.00  0.00    -0.419 A  
HETATM    7 CL   UNL     1     -10.373  19.885  66.111  1.00  0.00    -0.591 Cl 
HETATM    8  C   UNL     1     -10.571  17.325  65.303  1.00  0.00    -0.002 A  
HETATM    9  C   UNL     1     -10.478  18.191  66.384  1.00  0.00    -0.350 A  
BRANCH   4  10
HETATM   10  C   UNL     1     -10.658  15.824  69.342  1.00  0.00    -0.255 C  
HETATM   11  H   UNL     1     -12.686  16.307  69.468  1.00  0.00     0.000 HD 
HETATM   12  O   UNL     1      -9.664  15.412  69.925  1.00  0.00    -0.267 OA 
HETATM   13  N   UNL     1     -11.908  15.853  69.947  1.00  0.00    -0.327 N  
BRANCH  13  14
HETATM   14  C   UNL     1     -12.129  15.248  71.248  1.00  0.00    -0.349 C  
BRANCH  14  15
HETATM   15  C   UNL     1     -13.281  14.237  71.262  1.00  0.00    -0.412 C  
BRANCH  15  16
HETATM   16  C   UNL     1     -12.882  12.781  71.092  1.00  0.00    -0.315 A  
HETATM   17  C   UNL     1     -13.313  11.760  71.955  1.00  0.00    -0.417 A  
HETATM   18  C   UNL     1     -12.858  10.447  71.801  1.00  0.00    -0.561 A  
HETATM   19  C   UNL     1     -11.973  10.136  70.770  1.00  0.00    -0.348 A  
HETATM   20  C   UNL     1     -12.019  12.441  70.037  1.00  0.00    -0.372 A  
HETATM   21  C   UNL     1     -11.553  11.131  69.883  1.00  0.00    -0.416 A  
BRANCH  19  22
HETATM   22  S   UNL     1     -11.266   8.505  70.689  1.00  0.00    -0.234 S  
HETATM   23  O   UNL     1     -12.299   7.571  71.094  1.00  0.00    -0.320 OA 
HETATM   24  O   UNL     1      -9.984   8.510  71.355  1.00  0.00    -0.195 OA 
BRANCH  22  25
HETATM   25  N   UNL     1     -11.045   8.225  69.066  1.00  0.00    -0.413 N  
HETATM   26  H   UNL     1     -11.151   9.011  68.425  1.00  0.00     0.000 HD 
BRANCH  25  27
HETATM   27  C   UNL     1     -10.727   6.988  68.531  1.00  0.00    -0.179 C  
HETATM   28  O   UNL     1     -11.159   6.594  67.464  1.00  0.00    -0.321 OA 
BRANCH  27  29
HETATM   29  N   UNL     1      -9.895   6.255  69.332  1.00  0.00    -0.150 N  
HETATM   30  H   UNL     1      -9.020   6.658  69.666  1.00  0.00     0.000 HD 
BRANCH  29  31
HETATM   31  C   UNL     1     -10.263   4.896  69.708  1.00  0.00    -0.214 C  
HETATM   32  C   UNL     1      -9.464   3.855  68.917  1.00  0.00    -0.234 C  
HETATM   33  C   UNL     1      -8.015   3.740  69.386  1.00  0.00    -0.059 C  
HETATM   34  C   UNL     1      -7.936   3.483  70.886  1.00  0.00    -0.058 C  
HETATM   35  C   UNL     1      -8.684   4.547  71.681  1.00  0.00    -0.133 C  
HETATM   36  C   UNL     1     -10.133   4.684  71.219  1.00  0.00    -0.245 C  
ENDBRANCH  29  31
ENDBRANCH  27  29
ENDBRANCH  25  27
ENDBRANCH  22  25
ENDBRANCH  19  22
ENDBRANCH  15  16
ENDBRANCH  14  15
ENDBRANCH  13  14
ENDBRANCH   4  10
ENDBRANCH   2   3
TORSDOF 10
ENDMDL
MODEL       71
REMARK 921   NORMALIZED FREE ENERGY PREDICTED BY IDOCK:   -5.95 KCAL/MOL
REMARK 922        TOTAL FREE ENERGY PREDICTED BY IDOCK:  -11.40 KCAL/MOL
REMARK 923 INTER-LIGAND FREE ENERGY PREDICTED BY IDOCK:   -9.75 KCAL/MOL
REMARK 924 INTRA-LIGAND FREE ENERGY PREDICTED BY IDOCK:   -1.64 KCAL/MOL
REMARK 927      BINDING AFFINITY PREDICTED BY RF-SCORE:    0.00 PKD
ROOT
HETATM    1  C   UNL     1     -11.067   6.642  67.033  1.00  0.00    -0.325 C  
HETATM    2  O   UNL     1     -10.481   7.025  68.277  1.00  0.00    -0.185 OA 
ENDROOT
BRANCH   2   3
HETATM    3  C   UNL     1     -10.178   5.998  69.133  1.00  0.00    -0.204 A  
HETATM    4  C   UNL     1     -10.158   6.242  70.523  1.00  0.00    -0.230 A  
HETATM    5  C   UNL     1      -9.836   5.192  71.401  1.00  0.00    -0.239 A  
HETATM    6  C   UNL     1      -9.801   4.734  68.653  1.00  0.00    -0.208 A  
HETATM    7 CL   UNL     1      -9.047   2.678  71.986  1.00  0.00    -0.130 Cl 
HETATM    8  C   UNL     1      -9.445   3.712  69.532  1.00  0.00    -0.246 A  
HETATM    9  C   UNL     1      -9.476   3.942  70.901  1.00  0.00    -0.166 A  
BRANCH   4  10
HETATM   10  C   UNL     1     -10.485   7.592  71.091  1.00  0.00    -0.208 C  
HETATM   11  H   UNL     1     -12.389   6.943  71.649  1.00  0.00     0.000 HD 
HETATM   12  O   UNL     1      -9.701   8.530  71.018  1.00  0.00    -0.171 OA 
HETATM   13  N   UNL     1     -11.721   7.712  71.710  1.00  0.00    -0.273 N  
BRANCH  13  14
HETATM   14  C   UNL     1     -12.083   8.912  72.443  1.00  0.00    -0.274 C  
BRANCH  14  15
HETATM   15  C   UNL     1     -13.171   9.743  71.752  1.00  0.00    -0.532 C  
BRANCH  15  16
HETATM   16  C   UNL     1     -12.676  10.916  70.924  1.00  0.00    -0.464 A  
HETATM   17  C   UNL     1     -12.799  12.254  71.336  1.00  0.00    -0.373 A  
HETATM   18  C   UNL     1     -12.396  13.303  70.506  1.00  0.00    -0.389 A  
HETATM   19  C   UNL     1     -11.853  13.027  69.252  1.00  0.00    -0.316 A  
HETATM   20  C   UNL     1     -12.093  10.656  69.673  1.00  0.00    -0.312 A  
HETATM   21  C   UNL     1     -11.696  11.703  68.833  1.00  0.00    -0.397 A  
BRANCH  19  22
HETATM   22  S   UNL     1     -11.506  14.368  68.135  1.00  0.00    -0.328 S  
HETATM   23  O   UNL     1     -11.344  15.563  68.940  1.00  0.00    -0.281 OA 
HETATM   24  O   UNL     1     -12.460  14.340  67.050  1.00  0.00    -0.304 OA 
BRANCH  22  25
HETATM   25  N   UNL     1      -9.987  14.039  67.545  1.00  0.00    -0.234 N  
HETATM   26  H   UNL     1      -9.238  13.874  68.217  1.00  0.00     0.000 HD 
BRANCH  25  27
HETATM   27  C   UNL     1      -9.679  13.976  66.197  1.00  0.00    -0.280 C  
HETATM   28  O   UNL     1      -9.693  14.948  65.465  1.00  0.00    -0.331 OA 
BRANCH  27  29
HETATM   29  N   UNL     1      -9.376  12.711  65.774  1.00  0.00    -0.456 N  
HETATM   30  H   UNL     1      -8.408  12.389  65.778  1.00  0.00     0.000 HD 
BRANCH  29  31
HETATM   31  C   UNL     1     -10.438  11.825  65.319  1.00  0.00    -0.274 C  
HETATM   32  C   UNL     1     -10.829  12.111  63.865  1.00  0.00    -0.461 C  
HETATM   33  C   UNL     1      -9.792  11.609  62.864  1.00  0.00    -0.219 C  
HETATM   34  C   UNL     1      -9.484  10.131  63.078  1.00  0.00    -0.292 C  
HETATM   35  C   UNL     1      -9.042   9.849  64.509  1.00  0.00    -0.296 C  
HETATM   36  C   UNL     1     -10.062  10.355  65.526  1.00  0.00    -0.352 C  
ENDBRANCH  29  31
ENDBRANCH  27  29
ENDBRANCH  25  27
ENDBRANCH  22  25
ENDBRANCH  19  22
ENDBRANCH  15  16
ENDBRANCH  14  15
ENDBRANCH  13  14
ENDBRANCH   4  10
ENDBRANCH   2   3
TORSDOF 10
ENDMDL
MODEL       72
REMARK 921   NORMALIZED FREE ENERGY PREDICTED BY IDOCK:   -5.94 KCAL/MOL
REMARK 922        TOTAL FREE ENERGY PREDICTED BY IDOCK:  -11.39 KCAL/MOL
REMARK 923 INTER-LIGAND FREE ENERGY PREDICTED BY IDOCK:   -9.74 KCAL/MOL
REMARK 924 INTRA-LIGAND FREE ENERGY PREDICTED BY IDOCK:   -1.65 KCAL/MOL
REMARK 927      BINDING AFFINITY PREDICTED BY RF-SCORE:    0.00 PKD
ROOT
HETATM    1  C   UNL     1     -10.853  19.409  65.735  1.00  0.00    -0.280 C  
HETATM    2  O   UNL     1     -10.820  19.170  67.141  1.00  0.00    -0.464 OA 
ENDROOT
BRANCH   2   3
HETATM    3  C   UNL     1      -9.590  18.866  67.664  1.00  0.00    -0.308 A  
HETATM    4  C   UNL     1      -9.308  17.535  68.037  1.00  0.00    -0.272 A  
HETATM    5  C   UNL     1      -8.051  17.225  68.585  1.00  0.00    -0.261 A  
HETATM    6  C   UNL     1      -8.637  19.866  67.919  1.00  0.00    -0.341 A  
HETATM    7 CL   UNL     1      -5.598  17.844  69.524  1.00  0.00    -0.206 Cl 
HETATM    8  C   UNL     1      -7.408  19.552  68.499  1.00  0.00    -0.368 A  
HETATM    9  C   UNL     1      -7.117  18.233  68.819  1.00  0.00    -0.280 A  
BRANCH   4  10
HETATM   10  C   UNL     1     -10.314  16.436  67.853  1.00  0.00    -0.286 C  
HETATM   11  H   UNL     1      -9.128  15.541  66.385  1.00  0.00     0.000 HD 
HETATM   12  O   UNL     1     -11.374  16.421  68.464  1.00  0.00    -0.371 OA 
HETATM   13  N   UNL     1      -9.966  15.433  66.957  1.00  0.00    -0.235 N  
BRANCH  13  14
HETATM   14  C   UNL     1     -10.773  14.235  66.818  1.00  0.00    -0.287 C  
BRANCH  14  15
HETATM   15  C   UNL     1     -10.835  13.390  68.096  1.00  0.00    -0.273 C  
BRANCH  15  16
HETATM   16  C   UNL     1     -10.387  11.946  67.954  1.00  0.00    -0.212 A  
HETATM   17  C   UNL     1     -11.189  10.946  67.380  1.00  0.00    -0.345 A  
HETATM   18  C   UNL     1     -10.762   9.615  67.340  1.00  0.00    -0.308 A  
HETATM   19  C   UNL     1      -9.517   9.270  67.865  1.00  0.00    -0.137 A  
HETATM   20  C   UNL     1      -9.121  11.585  68.446  1.00  0.00    -0.185 A  
HETATM   21  C   UNL     1      -8.692  10.253  68.416  1.00  0.00    -0.129 A  
BRANCH  19  22
HETATM   22  S   UNL     1      -9.059   7.554  67.967  1.00  0.00    -0.130 S  
HETATM   23  O   UNL     1      -8.313   7.383  69.199  1.00  0.00    -0.129 OA 
HETATM   24  O   UNL     1      -8.492   7.138  66.705  1.00  0.00    -0.115 OA 
BRANCH  22  25
HETATM   25  N   UNL     1     -10.493   6.751  68.220  1.00  0.00    -0.190 N  
HETATM   26  H   UNL     1     -11.041   6.481  67.403  1.00  0.00     0.000 HD 
BRANCH  25  27
HETATM   27  C   UNL     1     -10.988   6.429  69.472  1.00  0.00    -0.359 C  
HETATM   28  O   UNL     1     -10.760   5.369  70.024  1.00  0.00    -0.308 OA 
BRANCH  27  29
HETATM   29  N   UNL     1     -11.771   7.413  70.010  1.00  0.00    -0.507 N  
HETATM   30  H   UNL     1     -12.553   7.793  69.476  1.00  0.00     0.000 HD 
BRANCH  29  31
HETATM   31  C   UNL     1     -11.485   7.917  71.346  1.00  0.00    -0.260 C  
HETATM   32  C   UNL     1     -10.758   9.265  71.298  1.00  0.00    -0.422 C  
HETATM   33  C   UNL     1     -11.677  10.420  70.909  1.00  0.00    -0.455 C  
HETATM   34  C   UNL     1     -12.905  10.481  71.810  1.00  0.00    -0.559 C  
HETATM   35  C   UNL     1     -13.664   9.158  71.819  1.00  0.00    -0.465 C  
HETATM   36  C   UNL     1     -12.757   7.989  72.196  1.00  0.00    -0.293 C  
ENDBRANCH  29  31
ENDBRANCH  27  29
ENDBRANCH  25  27
ENDBRANCH  22  25
ENDBRANCH  19  22
ENDBRANCH  15  16
ENDBRANCH  14  15
ENDBRANCH  13  14
ENDBRANCH   4  10
ENDBRANCH   2   3
TORSDOF 10
ENDMDL
MODEL       73
REMARK 921   NORMALIZED FREE ENERGY PREDICTED BY IDOCK:   -5.94 KCAL/MOL
REMARK 922        TOTAL FREE ENERGY PREDICTED BY IDOCK:  -11.38 KCAL/MOL
REMARK 923 INTER-LIGAND FREE ENERGY PREDICTED BY IDOCK:   -8.77 KCAL/MOL
REMARK 924 INTRA-LIGAND FREE ENERGY PREDICTED BY IDOCK:   -2.61 KCAL/MOL
REMARK 927      BINDING AFFINITY PREDICTED BY RF-SCORE:    0.00 PKD
ROOT
HETATM    1  C   UNL     1      -7.861   8.587  71.840  1.00  0.00    -0.111 C  
HETATM    2  O   UNL     1      -8.491   7.375  71.429  1.00  0.00    -0.112 OA 
ENDROOT
BRANCH   2   3
HETATM    3  C   UNL     1      -9.857   7.348  71.534  1.00  0.00    -0.173 A  
HETATM    4  C   UNL     1     -10.637   7.256  70.362  1.00  0.00    -0.240 A  
HETATM    5  C   UNL     1     -12.040   7.240  70.468  1.00  0.00    -0.154 A  
HETATM    6  C   UNL     1     -10.497   7.499  72.774  1.00  0.00    -0.348 A  
HETATM    7 CL   UNL     1     -14.369   7.398  71.822  1.00  0.00    -0.577 Cl 
HETATM    8  C   UNL     1     -11.889   7.522  72.863  1.00  0.00    -0.066 A  
HETATM    9  C   UNL     1     -12.653   7.381  71.712  1.00  0.00    -0.335 A  
BRANCH   4  10
HETATM   10  C   UNL     1     -10.009   7.161  69.002  1.00  0.00    -0.174 C  
HETATM   11  H   UNL     1     -10.605   9.108  68.545  1.00  0.00     0.000 HD 
HETATM   12  O   UNL     1      -9.479   6.131  68.607  1.00  0.00    -0.124 OA 
HETATM   13  N   UNL     1     -10.056   8.310  68.225  1.00  0.00    -0.192 N  
BRANCH  13  14
HETATM   14  C   UNL     1      -9.339   8.397  66.966  1.00  0.00    -0.159 C  
BRANCH  14  15
HETATM   15  C   UNL     1     -10.024   9.304  65.936  1.00  0.00    -0.289 C  
BRANCH  15  16
HETATM   16  C   UNL     1      -9.845  10.797  66.150  1.00  0.00    -0.269 A  
HETATM   17  C   UNL     1      -8.742  11.350  66.821  1.00  0.00    -0.174 A  
HETATM   18  C   UNL     1      -8.659  12.725  67.059  1.00  0.00    -0.177 A  
HETATM   19  C   UNL     1      -9.677  13.569  66.616  1.00  0.00    -0.280 A  
HETATM   20  C   UNL     1     -10.843  11.667  65.679  1.00  0.00    -0.330 A  
HETATM   21  C   UNL     1     -10.770  13.043  65.922  1.00  0.00    -0.292 A  
BRANCH  19  22
HETATM   22  S   UNL     1      -9.648  15.287  67.074  1.00  0.00    -0.231 S  
HETATM   23  O   UNL     1     -10.996  15.796  66.911  1.00  0.00    -0.300 OA 
HETATM   24  O   UNL     1      -8.537  15.936  66.416  1.00  0.00    -0.285 OA 
BRANCH  22  25
HETATM   25  N   UNL     1      -9.389  15.278  68.716  1.00  0.00    -0.199 N  
HETATM   26  H   UNL     1      -8.425  15.249  69.049  1.00  0.00     0.000 HD 
BRANCH  25  27
HETATM   27  C   UNL     1     -10.401  15.308  69.659  1.00  0.00    -0.262 C  
HETATM   28  O   UNL     1     -10.877  16.341  70.092  1.00  0.00    -0.334 OA 
BRANCH  27  29
HETATM   29  N   UNL     1     -10.795  14.062  70.064  1.00  0.00    -0.410 N  
HETATM   30  H   UNL     1     -10.180  13.497  70.649  1.00  0.00     0.000 HD 
BRANCH  29  31
HETATM   31  C   UNL     1     -12.095  13.545  69.658  1.00  0.00    -0.306 C  
HETATM   32  C   UNL     1     -12.003  12.088  69.193  1.00  0.00    -0.326 C  
HETATM   33  C   UNL     1     -11.820  11.108  70.350  1.00  0.00    -0.462 C  
HETATM   34  C   UNL     1     -12.903  11.289  71.407  1.00  0.00    -0.515 C  
HETATM   35  C   UNL     1     -12.962  12.726  71.913  1.00  0.00    -0.400 C  
HETATM   36  C   UNL     1     -13.134  13.722  70.769  1.00  0.00    -0.165 C  
ENDBRANCH  29  31
ENDBRANCH  27  29
ENDBRANCH  25  27
ENDBRANCH  22  25
ENDBRANCH  19  22
ENDBRANCH  15  16
ENDBRANCH  14  15
ENDBRANCH  13  14
ENDBRANCH   4  10
ENDBRANCH   2   3
TORSDOF 10
ENDMDL
MODEL       74
REMARK 921   NORMALIZED FREE ENERGY PREDICTED BY IDOCK:   -5.94 KCAL/MOL
REMARK 922        TOTAL FREE ENERGY PREDICTED BY IDOCK:  -11.38 KCAL/MOL
REMARK 923 INTER-LIGAND FREE ENERGY PREDICTED BY IDOCK:   -8.64 KCAL/MOL
REMARK 924 INTRA-LIGAND FREE ENERGY PREDICTED BY IDOCK:   -2.74 KCAL/MOL
REMARK 927      BINDING AFFINITY PREDICTED BY RF-SCORE:    0.00 PKD
ROOT
HETATM    1  C   UNL     1     -10.702  17.130  68.160  1.00  0.00    -0.366 C  
HETATM    2  O   UNL     1     -11.234  15.833  67.896  1.00  0.00    -0.341 OA 
ENDROOT
BRANCH   2   3
HETATM    3  C   UNL     1     -11.708  15.151  68.987  1.00  0.00    -0.335 A  
HETATM    4  C   UNL     1     -11.704  13.740  68.973  1.00  0.00    -0.372 A  
HETATM    5  C   UNL     1     -12.201  13.040  70.087  1.00  0.00    -0.342 A  
HETATM    6  C   UNL     1     -12.278  15.825  70.078  1.00  0.00    -0.309 A  
HETATM    7 CL   UNL     1     -13.391  12.861  72.503  1.00  0.00    -0.534 Cl 
HETATM    8  C   UNL     1     -12.804  15.119  71.159  1.00  0.00    -0.469 A  
HETATM    9  C   UNL     1     -12.753  13.731  71.164  1.00  0.00    -0.362 A  
BRANCH   4  10
HETATM   10  C   UNL     1     -11.170  12.964  67.805  1.00  0.00    -0.280 C  
HETATM   11  H   UNL     1      -9.209  13.477  68.306  1.00  0.00     0.000 HD 
HETATM   12  O   UNL     1     -11.912  12.407  67.006  1.00  0.00    -0.541 OA 
HETATM   13  N   UNL     1      -9.788  12.907  67.689  1.00  0.00    -0.207 N  
BRANCH  13  14
HETATM   14  C   UNL     1      -9.149  12.052  66.704  1.00  0.00    -0.205 C  
BRANCH  14  15
HETATM   15  C   UNL     1      -8.398  10.867  67.323  1.00  0.00    -0.123 C  
BRANCH  15  16
HETATM   16  C   UNL     1      -9.151  10.096  68.394  1.00  0.00    -0.133 A  
HETATM   17  C   UNL     1      -8.715  10.008  69.726  1.00  0.00    -0.198 A  
HETATM   18  C   UNL     1      -9.402   9.225  70.658  1.00  0.00    -0.329 A  
HETATM   19  C   UNL     1     -10.545   8.527  70.269  1.00  0.00    -0.226 A  
HETATM   20  C   UNL     1     -10.324   9.415  68.030  1.00  0.00    -0.267 A  
HETATM   21  C   UNL     1     -11.012   8.623  68.956  1.00  0.00     0.061 A  
BRANCH  19  22
HETATM   22  S   UNL     1     -11.310   7.398  71.413  1.00  0.00    -0.264 S  
HETATM   23  O   UNL     1     -12.401   6.752  70.710  1.00  0.00    -0.377 OA 
HETATM   24  O   UNL     1     -11.548   8.079  72.665  1.00  0.00    -0.388 OA 
BRANCH  22  25
HETATM   25  N   UNL     1     -10.178   6.202  71.640  1.00  0.00    -0.194 N  
HETATM   26  H   UNL     1      -9.437   6.368  72.321  1.00  0.00     0.000 HD 
BRANCH  25  27
HETATM   27  C   UNL     1     -10.182   4.995  70.963  1.00  0.00    -0.213 C  
HETATM   28  O   UNL     1     -10.013   3.923  71.513  1.00  0.00    -0.183 OA 
BRANCH  27  29
HETATM   29  N   UNL     1     -10.374   5.136  69.616  1.00  0.00    -0.272 N  
HETATM   30  H   UNL     1     -11.185   5.646  69.266  1.00  0.00     0.000 HD 
BRANCH  29  31
HETATM   31  C   UNL     1      -9.418   4.557  68.682  1.00  0.00    -0.158 C  
HETATM   32  C   UNL     1      -9.926   4.625  67.238  1.00  0.00    -0.203 C  
HETATM   33  C   UNL     1      -9.855   6.033  66.651  1.00  0.00    -0.202 C  
HETATM   34  C   UNL     1      -8.452   6.616  66.778  1.00  0.00    -0.117 C  
HETATM   35  C   UNL     1      -7.963   6.601  68.222  1.00  0.00    -0.111 C  
HETATM   36  C   UNL     1      -8.037   5.202  68.829  1.00  0.00    -0.085 C  
ENDBRANCH  29  31
ENDBRANCH  27  29
ENDBRANCH  25  27
ENDBRANCH  22  25
ENDBRANCH  19  22
ENDBRANCH  15  16
ENDBRANCH  14  15
ENDBRANCH  13  14
ENDBRANCH   4  10
ENDBRANCH   2   3
TORSDOF 10
ENDMDL
MODEL       75
REMARK 921   NORMALIZED FREE ENERGY PREDICTED BY IDOCK:   -5.93 KCAL/MOL
REMARK 922        TOTAL FREE ENERGY PREDICTED BY IDOCK:  -11.37 KCAL/MOL
REMARK 923 INTER-LIGAND FREE ENERGY PREDICTED BY IDOCK:   -9.85 KCAL/MOL
REMARK 924 INTRA-LIGAND FREE ENERGY PREDICTED BY IDOCK:   -1.53 KCAL/MOL
REMARK 927      BINDING AFFINITY PREDICTED BY RF-SCORE:    0.00 PKD
ROOT
HETATM    1  C   UNL     1     -12.246  10.387  70.608  1.00  0.00    -0.347 C  
HETATM    2  O   UNL     1     -11.285   9.562  69.950  1.00  0.00    -0.234 OA 
ENDROOT
BRANCH   2   3
HETATM    3  C   UNL     1     -10.997   8.374  70.570  1.00  0.00    -0.242 A  
HETATM    4  C   UNL     1     -10.655   7.252  69.785  1.00  0.00    -0.247 A  
HETATM    5  C   UNL     1     -10.370   6.030  70.419  1.00  0.00    -0.282 A  
HETATM    6  C   UNL     1     -11.120   8.227  71.960  1.00  0.00    -0.379 A  
HETATM    7 CL   UNL     1     -10.174   4.399  72.561  1.00  0.00    -0.235 Cl 
HETATM    8  C   UNL     1     -10.874   6.999  72.574  1.00  0.00    -0.285 A  
HETATM    9  C   UNL     1     -10.489   5.910  71.803  1.00  0.00    -0.227 A  
BRANCH   4  10
HETATM   10  C   UNL     1     -10.574   7.332  68.288  1.00  0.00    -0.172 C  
HETATM   11  H   UNL     1      -8.813   8.447  68.401  1.00  0.00     0.000 HD 
HETATM   12  O   UNL     1     -11.443   6.858  67.569  1.00  0.00    -0.073 OA 
HETATM   13  N   UNL     1      -9.454   7.967  67.769  1.00  0.00    -0.143 N  
BRANCH  13  14
HETATM   14  C   UNL     1      -9.177   7.960  66.344  1.00  0.00    -0.191 C  
BRANCH  14  15
HETATM   15  C   UNL     1      -8.536   9.259  65.842  1.00  0.00    -0.163 C  
BRANCH  15  16
HETATM   16  C   UNL     1      -9.504  10.334  65.376  1.00  0.00    -0.287 A  
HETATM   17  C   UNL     1      -9.307  11.091  64.210  1.00  0.00    -0.232 A  
HETATM   18  C   UNL     1     -10.188  12.120  63.863  1.00  0.00    -0.426 A  
HETATM   19  C   UNL     1     -11.286  12.398  64.676  1.00  0.00    -0.312 A  
HETATM   20  C   UNL     1     -10.636  10.604  66.163  1.00  0.00    -0.211 A  
HETATM   21  C   UNL     1     -11.515  11.639  65.826  1.00  0.00    -0.175 A  
BRANCH  19  22
HETATM   22  S   UNL     1     -12.298  13.817  64.321  1.00  0.00    -0.284 S  
HETATM   23  O   UNL     1     -13.338  13.864  65.331  1.00  0.00    -0.710 OA 
HETATM   24  O   UNL     1     -12.641  13.817  62.918  1.00  0.00    -0.611 OA 
BRANCH  22  25
HETATM   25  N   UNL     1     -11.321  15.121  64.652  1.00  0.00    -0.588 N  
HETATM   26  H   UNL     1     -11.314  15.895  63.988  1.00  0.00     0.000 HD 
BRANCH  25  27
HETATM   27  C   UNL     1     -10.517  15.220  65.774  1.00  0.00    -0.349 C  
HETATM   28  O   UNL     1      -9.313  15.387  65.717  1.00  0.00    -0.325 OA 
BRANCH  27  29
HETATM   29  N   UNL     1     -11.211  15.091  66.946  1.00  0.00    -0.336 N  
HETATM   30  H   UNL     1     -12.034  15.668  67.118  1.00  0.00     0.000 HD 
BRANCH  29  31
HETATM   31  C   UNL     1     -10.772  14.128  67.947  1.00  0.00    -0.240 C  
HETATM   32  C   UNL     1      -9.629  14.684  68.803  1.00  0.00    -0.210 C  
HETATM   33  C   UNL     1     -10.100  15.727  69.813  1.00  0.00    -0.277 C  
HETATM   34  C   UNL     1     -11.235  15.191  70.678  1.00  0.00    -0.321 C  
HETATM   35  C   UNL     1     -12.399  14.686  69.831  1.00  0.00    -0.341 C  
HETATM   36  C   UNL     1     -11.945  13.649  68.807  1.00  0.00    -0.394 C  
ENDBRANCH  29  31
ENDBRANCH  27  29
ENDBRANCH  25  27
ENDBRANCH  22  25
ENDBRANCH  19  22
ENDBRANCH  15  16
ENDBRANCH  14  15
ENDBRANCH  13  14
ENDBRANCH   4  10
ENDBRANCH   2   3
TORSDOF 10
ENDMDL
MODEL       76
REMARK 921   NORMALIZED FREE ENERGY PREDICTED BY IDOCK:   -5.93 KCAL/MOL
REMARK 922        TOTAL FREE ENERGY PREDICTED BY IDOCK:  -11.36 KCAL/MOL
REMARK 923 INTER-LIGAND FREE ENERGY PREDICTED BY IDOCK:   -9.89 KCAL/MOL
REMARK 924 INTRA-LIGAND FREE ENERGY PREDICTED BY IDOCK:   -1.48 KCAL/MOL
REMARK 927      BINDING AFFINITY PREDICTED BY RF-SCORE:    0.00 PKD
ROOT
HETATM    1  C   UNL     1      -8.269   9.322  70.644  1.00  0.00    -0.190 C  
HETATM    2  O   UNL     1      -8.669   7.956  70.735  1.00  0.00    -0.130 OA 
ENDROOT
BRANCH   2   3
HETATM    3  C   UNL     1      -9.992   7.741  71.025  1.00  0.00    -0.177 A  
HETATM    4  C   UNL     1     -10.787   7.011  70.116  1.00  0.00    -0.285 A  
HETATM    5  C   UNL     1     -12.147   6.800  70.407  1.00  0.00    -0.270 A  
HETATM    6  C   UNL     1     -10.591   8.306  72.162  1.00  0.00    -0.380 A  
HETATM    7 CL   UNL     1     -14.390   7.128  71.871  1.00  0.00    -0.512 Cl 
HETATM    8  C   UNL     1     -11.950   8.123  72.419  1.00  0.00    -0.431 A  
HETATM    9  C   UNL     1     -12.718   7.363  71.548  1.00  0.00    -0.372 A  
BRANCH   4  10
HETATM   10  C   UNL     1     -10.217   6.442  68.850  1.00  0.00    -0.184 C  
HETATM   11  H   UNL     1     -10.937   8.062  67.747  1.00  0.00     0.000 HD 
HETATM   12  O   UNL     1      -9.650   5.357  68.828  1.00  0.00    -0.123 OA 
HETATM   13  N   UNL     1     -10.361   7.220  67.710  1.00  0.00    -0.194 N  
BRANCH  13  14
HETATM   14  C   UNL     1      -9.707   6.860  66.465  1.00  0.00    -0.124 C  
BRANCH  14  15
HETATM   15  C   UNL     1      -8.535   7.781  66.104  1.00  0.00    -0.143 C  
BRANCH  15  16
HETATM   16  C   UNL     1      -8.832   9.270  66.134  1.00  0.00    -0.183 A  
HETATM   17  C   UNL     1      -8.225  10.157  67.037  1.00  0.00    -0.118 A  
HETATM   18  C   UNL     1      -8.588  11.507  67.076  1.00  0.00    -0.161 A  
HETATM   19  C   UNL     1      -9.558  11.989  66.199  1.00  0.00    -0.239 A  
HETATM   20  C   UNL     1      -9.782   9.782  65.234  1.00  0.00    -0.371 A  
HETATM   21  C   UNL     1     -10.155  11.130  65.273  1.00  0.00    -0.329 A  
BRANCH  19  22
HETATM   22  S   UNL     1     -10.136  13.663  66.372  1.00  0.00    -0.301 S  
HETATM   23  O   UNL     1     -10.856  13.995  65.157  1.00  0.00    -0.327 OA 
HETATM   24  O   UNL     1      -9.048  14.496  66.829  1.00  0.00    -0.245 OA 
BRANCH  22  25
HETATM   25  N   UNL     1     -11.304  13.582  67.553  1.00  0.00    -0.294 N  
HETATM   26  H   UNL     1     -11.689  12.666  67.784  1.00  0.00     0.000 HD 
BRANCH  25  27
HETATM   27  C   UNL     1     -11.785  14.682  68.241  1.00  0.00    -0.328 C  
HETATM   28  O   UNL     1     -11.547  15.829  67.913  1.00  0.00    -0.283 OA 
BRANCH  27  29
HETATM   29  N   UNL     1     -12.537  14.346  69.333  1.00  0.00    -0.532 N  
HETATM   30  H   UNL     1     -13.554  14.415  69.295  1.00  0.00     0.000 HD 
BRANCH  29  31
HETATM   31  C   UNL     1     -11.883  13.888  70.552  1.00  0.00    -0.247 C  
HETATM   32  C   UNL     1     -11.269  15.053  71.335  1.00  0.00    -0.260 C  
HETATM   33  C   UNL     1     -12.317  15.901  72.052  1.00  0.00    -0.550 C  
HETATM   34  C   UNL     1     -13.214  15.044  72.938  1.00  0.00    -0.585 C  
HETATM   35  C   UNL     1     -13.870  13.915  72.151  1.00  0.00    -0.636 C  
HETATM   36  C   UNL     1     -12.838  13.062  71.418  1.00  0.00    -0.385 C  
ENDBRANCH  29  31
ENDBRANCH  27  29
ENDBRANCH  25  27
ENDBRANCH  22  25
ENDBRANCH  19  22
ENDBRANCH  15  16
ENDBRANCH  14  15
ENDBRANCH  13  14
ENDBRANCH   4  10
ENDBRANCH   2   3
TORSDOF 10
ENDMDL
MODEL       77
REMARK 921   NORMALIZED FREE ENERGY PREDICTED BY IDOCK:   -5.90 KCAL/MOL
REMARK 922        TOTAL FREE ENERGY PREDICTED BY IDOCK:  -11.33 KCAL/MOL
REMARK 923 INTER-LIGAND FREE ENERGY PREDICTED BY IDOCK:  -10.09 KCAL/MOL
REMARK 924 INTRA-LIGAND FREE ENERGY PREDICTED BY IDOCK:   -1.23 KCAL/MOL
REMARK 927      BINDING AFFINITY PREDICTED BY RF-SCORE:    0.00 PKD
ROOT
HETATM    1  C   UNL     1     -10.519   6.960  68.530  1.00  0.00    -0.203 C  
HETATM    2  O   UNL     1     -11.477   6.253  69.316  1.00  0.00    -0.411 OA 
ENDROOT
BRANCH   2   3
HETATM    3  C   UNL     1     -11.026   5.781  70.521  1.00  0.00    -0.249 A  
HETATM    4  C   UNL     1     -11.626   6.246  71.711  1.00  0.00    -0.358 A  
HETATM    5  C   UNL     1     -11.156   5.771  72.949  1.00  0.00    -0.321 A  
HETATM    6  C   UNL     1      -9.924   4.916  70.601  1.00  0.00    -0.305 A  
HETATM    7 CL   UNL     1      -9.480   4.361  74.526  1.00  0.00    -0.127 Cl 
HETATM    8  C   UNL     1      -9.442   4.483  71.836  1.00  0.00    -0.201 A  
HETATM    9  C   UNL     1     -10.067   4.903  73.003  1.00  0.00    -0.163 A  
BRANCH   4  10
HETATM   10  C   UNL     1     -12.763   7.225  71.691  1.00  0.00    -0.375 C  
HETATM   11  H   UNL     1     -11.446   8.825  71.942  1.00  0.00     0.000 HD 
HETATM   12  O   UNL     1     -13.929   6.859  71.609  1.00  0.00    -0.299 OA 
HETATM   13  N   UNL     1     -12.416   8.567  71.760  1.00  0.00    -0.324 N  
BRANCH  13  14
HETATM   14  C   UNL     1     -13.407   9.612  71.579  1.00  0.00    -0.388 C  
BRANCH  14  15
HETATM   15  C   UNL     1     -12.851  11.024  71.798  1.00  0.00    -0.496 C  
BRANCH  15  16
HETATM   16  C   UNL     1     -12.203  11.672  70.587  1.00  0.00    -0.461 A  
HETATM   17  C   UNL     1     -11.390  10.969  69.682  1.00  0.00    -0.363 A  
HETATM   18  C   UNL     1     -10.755  11.626  68.625  1.00  0.00    -0.246 A  
HETATM   19  C   UNL     1     -10.934  12.998  68.452  1.00  0.00    -0.262 A  
HETATM   20  C   UNL     1     -12.400  13.047  70.376  1.00  0.00    -0.351 A  
HETATM   21  C   UNL     1     -11.759  13.712  69.324  1.00  0.00    -0.376 A  
BRANCH  19  22
HETATM   22  S   UNL     1      -9.985  13.853  67.213  1.00  0.00    -0.246 S  
HETATM   23  O   UNL     1     -10.893  14.752  66.525  1.00  0.00    -0.307 OA 
HETATM   24  O   UNL     1      -9.202  12.894  66.469  1.00  0.00    -0.235 OA 
BRANCH  22  25
HETATM   25  N   UNL     1      -8.969  14.847  68.075  1.00  0.00    -0.168 N  
HETATM   26  H   UNL     1      -9.007  14.802  69.093  1.00  0.00     0.000 HD 
BRANCH  25  27
HETATM   27  C   UNL     1      -8.075  15.730  67.495  1.00  0.00    -0.159 C  
HETATM   28  O   UNL     1      -6.876  15.530  67.452  1.00  0.00    -0.182 OA 
BRANCH  27  29
HETATM   29  N   UNL     1      -8.677  16.852  66.995  1.00  0.00    -0.201 N  
HETATM   30  H   UNL     1      -8.842  16.940  65.993  1.00  0.00     0.000 HD 
BRANCH  29  31
HETATM   31  C   UNL     1      -9.082  17.921  67.898  1.00  0.00    -0.260 C  
HETATM   32  C   UNL     1      -8.106  19.101  67.850  1.00  0.00    -0.323 C  
HETATM   33  C   UNL     1      -8.248  19.935  66.579  1.00  0.00    -0.364 C  
HETATM   34  C   UNL     1      -9.687  20.392  66.372  1.00  0.00    -0.400 C  
HETATM   35  C   UNL     1     -10.657  19.215  66.364  1.00  0.00    -0.522 C  
HETATM   36  C   UNL     1     -10.522  18.364  67.625  1.00  0.00    -0.445 C  
ENDBRANCH  29  31
ENDBRANCH  27  29
ENDBRANCH  25  27
ENDBRANCH  22  25
ENDBRANCH  19  22
ENDBRANCH  15  16
ENDBRANCH  14  15
ENDBRANCH  13  14
ENDBRANCH   4  10
ENDBRANCH   2   3
TORSDOF 10
ENDMDL
MODEL       78
REMARK 921   NORMALIZED FREE ENERGY PREDICTED BY IDOCK:   -5.89 KCAL/MOL
REMARK 922        TOTAL FREE ENERGY PREDICTED BY IDOCK:  -11.31 KCAL/MOL
REMARK 923 INTER-LIGAND FREE ENERGY PREDICTED BY IDOCK:  -10.31 KCAL/MOL
REMARK 924 INTRA-LIGAND FREE ENERGY PREDICTED BY IDOCK:   -1.00 KCAL/MOL
REMARK 927      BINDING AFFINITY PREDICTED BY RF-SCORE:    0.00 PKD
ROOT
HETATM    1  C   UNL     1     -11.542   9.631  71.039  1.00  0.00    -0.359 C  
HETATM    2  O   UNL     1     -11.967   8.456  70.349  1.00  0.00    -0.030 OA 
ENDROOT
BRANCH   2   3
HETATM    3  C   UNL     1     -11.447   7.274  70.810  1.00  0.00    -0.299 A  
HETATM    4  C   UNL     1     -10.693   6.464  69.935  1.00  0.00    -0.332 A  
HETATM    5  C   UNL     1     -10.170   5.246  70.405  1.00  0.00    -0.338 A  
HETATM    6  C   UNL     1     -11.724   6.812  72.107  1.00  0.00    -0.332 A  
HETATM    7 CL   UNL     1      -9.834   3.303  72.247  1.00  0.00    -0.223 Cl 
HETATM    8  C   UNL     1     -11.233   5.584  72.548  1.00  0.00    -0.330 A  
HETATM    9  C   UNL     1     -10.449   4.813  71.700  1.00  0.00    -0.093 A  
BRANCH   4  10
HETATM   10  C   UNL     1     -10.423   6.874  68.517  1.00  0.00    -0.203 C  
HETATM   11  H   UNL     1      -8.695   7.893  69.097  1.00  0.00     0.000 HD 
HETATM   12  O   UNL     1     -11.191   6.594  67.606  1.00  0.00    -0.296 OA 
HETATM   13  N   UNL     1      -9.248   7.581  68.298  1.00  0.00    -0.139 N  
BRANCH  13  14
HETATM   14  C   UNL     1      -8.792   7.886  66.954  1.00  0.00    -0.133 C  
BRANCH  14  15
HETATM   15  C   UNL     1      -8.109   9.254  66.838  1.00  0.00    -0.108 C  
BRANCH  15  16
HETATM   16  C   UNL     1      -9.041  10.449  66.727  1.00  0.00    -0.161 A  
HETATM   17  C   UNL     1     -10.430  10.326  66.559  1.00  0.00    -0.241 A  
HETATM   18  C   UNL     1     -11.237  11.454  66.387  1.00  0.00    -0.250 A  
HETATM   19  C   UNL     1     -10.664  12.725  66.392  1.00  0.00    -0.262 A  
HETATM   20  C   UNL     1      -8.487  11.739  66.766  1.00  0.00    -0.177 A  
HETATM   21  C   UNL     1      -9.288  12.871  66.585  1.00  0.00    -0.240 A  
BRANCH  19  22
HETATM   22  S   UNL     1     -11.670  14.139  65.999  1.00  0.00    -0.396 S  
HETATM   23  O   UNL     1     -12.806  13.656  65.236  1.00  0.00    -0.672 OA 
HETATM   24  O   UNL     1     -10.828  15.189  65.472  1.00  0.00    -0.325 OA 
BRANCH  22  25
HETATM   25  N   UNL     1     -12.306  14.619  67.458  1.00  0.00    -0.536 N  
HETATM   26  H   UNL     1     -13.254  14.322  67.688  1.00  0.00     0.000 HD 
BRANCH  25  27
HETATM   27  C   UNL     1     -11.627  15.399  68.378  1.00  0.00    -0.354 C  
HETATM   28  O   UNL     1     -10.577  15.961  68.128  1.00  0.00    -0.261 OA 
BRANCH  27  29
HETATM   29  N   UNL     1     -12.247  15.454  69.596  1.00  0.00    -0.524 N  
HETATM   30  H   UNL     1     -13.113  15.981  69.705  1.00  0.00     0.000 HD 
BRANCH  29  31
HETATM   31  C   UNL     1     -11.667  14.759  70.738  1.00  0.00    -0.300 C  
HETATM   32  C   UNL     1     -11.422  15.710  71.914  1.00  0.00    -0.501 C  
HETATM   33  C   UNL     1     -12.709  16.105  72.633  1.00  0.00    -0.457 C  
HETATM   34  C   UNL     1     -13.504  14.878  73.064  1.00  0.00    -0.496 C  
HETATM   35  C   UNL     1     -13.797  13.954  71.887  1.00  0.00    -0.519 C  
HETATM   36  C   UNL     1     -12.521  13.557  71.148  1.00  0.00    -0.424 C  
ENDBRANCH  29  31
ENDBRANCH  27  29
ENDBRANCH  25  27
ENDBRANCH  22  25
ENDBRANCH  19  22
ENDBRANCH  15  16
ENDBRANCH  14  15
ENDBRANCH  13  14
ENDBRANCH   4  10
ENDBRANCH   2   3
TORSDOF 10
ENDMDL
MODEL       79
REMARK 921   NORMALIZED FREE ENERGY PREDICTED BY IDOCK:   -5.87 KCAL/MOL
REMARK 922        TOTAL FREE ENERGY PREDICTED BY IDOCK:  -11.28 KCAL/MOL
REMARK 923 INTER-LIGAND FREE ENERGY PREDICTED BY IDOCK:   -9.41 KCAL/MOL
REMARK 924 INTRA-LIGAND FREE ENERGY PREDICTED BY IDOCK:   -1.87 KCAL/MOL
REMARK 927      BINDING AFFINITY PREDICTED BY RF-SCORE:    0.00 PKD
ROOT
HETATM    1  C   UNL     1     -12.328  11.969  70.566  1.00  0.00    -0.282 C  
HETATM    2  O   UNL     1     -11.341  11.100  70.012  1.00  0.00    -0.279 OA 
ENDROOT
BRANCH   2   3
HETATM    3  C   UNL     1     -11.324   9.823  70.510  1.00  0.00    -0.314 A  
HETATM    4  C   UNL     1     -10.599   8.825  69.826  1.00  0.00    -0.227 A  
HETATM    5  C   UNL     1     -10.591   7.512  70.330  1.00  0.00    -0.236 A  
HETATM    6  C   UNL     1     -12.085   9.469  71.635  1.00  0.00    -0.474 A  
HETATM    7 CL   UNL     1     -11.357   5.569  72.039  1.00  0.00    -0.237 Cl 
HETATM    8  C   UNL     1     -12.101   8.155  72.103  1.00  0.00    -0.408 A  
HETATM    9  C   UNL     1     -11.346   7.186  71.456  1.00  0.00    -0.255 A  
BRANCH   4  10
HETATM   10  C   UNL     1      -9.823   9.130  68.578  1.00  0.00    -0.164 C  
HETATM   11  H   UNL     1     -11.533   8.891  67.405  1.00  0.00     0.000 HD 
HETATM   12  O   UNL     1      -8.616   9.333  68.602  1.00  0.00    -0.125 OA 
HETATM   13  N   UNL     1     -10.554   9.178  67.399  1.00  0.00    -0.274 N  
BRANCH  13  14
HETATM   14  C   UNL     1      -9.952   9.627  66.157  1.00  0.00    -0.276 C  
BRANCH  14  15
HETATM   15  C   UNL     1     -10.648  10.852  65.551  1.00  0.00    -0.240 C  
BRANCH  15  16
HETATM   16  C   UNL     1     -10.730  12.074  66.448  1.00  0.00    -0.294 A  
HETATM   17  C   UNL     1     -11.918  12.792  66.662  1.00  0.00    -0.411 A  
HETATM   18  C   UNL     1     -11.928  13.955  67.438  1.00  0.00    -0.436 A  
HETATM   19  C   UNL     1     -10.746  14.410  68.021  1.00  0.00    -0.241 A  
HETATM   20  C   UNL     1      -9.557  12.528  67.074  1.00  0.00    -0.216 A  
HETATM   21  C   UNL     1      -9.558  13.696  67.844  1.00  0.00    -0.223 A  
BRANCH  19  22
HETATM   22  S   UNL     1     -10.733  15.980  68.858  1.00  0.00    -0.298 S  
HETATM   23  O   UNL     1      -9.442  16.106  69.509  1.00  0.00    -0.231 OA 
HETATM   24  O   UNL     1     -11.953  16.122  69.619  1.00  0.00    -0.245 OA 
BRANCH  22  25
HETATM   25  N   UNL     1     -10.708  17.106  67.635  1.00  0.00    -0.336 N  
HETATM   26  H   UNL     1     -10.835  16.776  66.679  1.00  0.00     0.000 HD 
BRANCH  25  27
HETATM   27  C   UNL     1     -10.527  18.463  67.838  1.00  0.00    -0.391 C  
HETATM   28  O   UNL     1     -11.262  19.310  67.365  1.00  0.00    -0.344 OA 
BRANCH  27  29
HETATM   29  N   UNL     1      -9.431  18.750  68.604  1.00  0.00    -0.359 N  
HETATM   30  H   UNL     1      -9.443  18.557  69.606  1.00  0.00     0.000 HD 
BRANCH  29  31
HETATM   31  C   UNL     1      -8.247  19.332  67.988  1.00  0.00    -0.311 C  
HETATM   32  C   UNL     1      -7.072  19.395  68.969  1.00  0.00    -0.397 C  
HETATM   33  C   UNL     1      -6.437  18.030  69.222  1.00  0.00    -0.246 C  
HETATM   34  C   UNL     1      -6.038  17.353  67.916  1.00  0.00    -0.148 C  
HETATM   35  C   UNL     1      -7.218  17.238  66.957  1.00  0.00    -0.218 C  
HETATM   36  C   UNL     1      -7.872  18.594  66.700  1.00  0.00    -0.271 C  
ENDBRANCH  29  31
ENDBRANCH  27  29
ENDBRANCH  25  27
ENDBRANCH  22  25
ENDBRANCH  19  22
ENDBRANCH  15  16
ENDBRANCH  14  15
ENDBRANCH  13  14
ENDBRANCH   4  10
ENDBRANCH   2   3
TORSDOF 10
ENDMDL
MODEL       80
REMARK 921   NORMALIZED FREE ENERGY PREDICTED BY IDOCK:   -5.86 KCAL/MOL
REMARK 922        TOTAL FREE ENERGY PREDICTED BY IDOCK:  -11.26 KCAL/MOL
REMARK 923 INTER-LIGAND FREE ENERGY PREDICTED BY IDOCK:   -9.58 KCAL/MOL
REMARK 924 INTRA-LIGAND FREE ENERGY PREDICTED BY IDOCK:   -1.68 KCAL/MOL
REMARK 927      BINDING AFFINITY PREDICTED BY RF-SCORE:    0.00 PKD
ROOT
HETATM    1  C   UNL     1     -11.060   6.517  67.016  1.00  0.00    -0.339 C  
HETATM    2  O   UNL     1     -10.440   6.822  68.264  1.00  0.00    -0.177 OA 
ENDROOT
BRANCH   2   3
HETATM    3  C   UNL     1     -10.219   5.755  69.096  1.00  0.00    -0.223 A  
HETATM    4  C   UNL     1     -10.335   5.933  70.491  1.00  0.00    -0.297 A  
HETATM    5  C   UNL     1     -10.097   4.842  71.346  1.00  0.00    -0.259 A  
HETATM    6  C   UNL     1      -9.794   4.515  68.595  1.00  0.00    -0.168 A  
HETATM    7 CL   UNL     1      -9.363   2.302  71.885  1.00  0.00    -0.157 Cl 
HETATM    8  C   UNL     1      -9.522   3.451  69.456  1.00  0.00    -0.219 A  
HETATM    9  C   UNL     1      -9.687   3.616  70.825  1.00  0.00    -0.152 A  
BRANCH   4  10
HETATM   10  C   UNL     1     -10.719   7.256  71.088  1.00  0.00    -0.228 C  
HETATM   11  H   UNL     1     -12.652   6.567  71.473  1.00  0.00     0.000 HD 
HETATM   12  O   UNL     1      -9.943   8.202  71.113  1.00  0.00    -0.175 OA 
HETATM   13  N   UNL     1     -12.000   7.339  71.616  1.00  0.00    -0.292 N  
BRANCH  13  14
HETATM   14  C   UNL     1     -12.430   8.504  72.369  1.00  0.00    -0.353 C  
BRANCH  14  15
HETATM   15  C   UNL     1     -13.419   9.392  71.604  1.00  0.00    -0.467 C  
BRANCH  15  16
HETATM   16  C   UNL     1     -12.942  10.802  71.303  1.00  0.00    -0.502 A  
HETATM   17  C   UNL     1     -13.344  11.924  72.046  1.00  0.00    -0.425 A  
HETATM   18  C   UNL     1     -12.936  13.211  71.684  1.00  0.00    -0.429 A  
HETATM   19  C   UNL     1     -12.108  13.391  70.577  1.00  0.00    -0.323 A  
HETATM   20  C   UNL     1     -12.078  11.000  70.213  1.00  0.00    -0.448 A  
HETATM   21  C   UNL     1     -11.674  12.286  69.840  1.00  0.00    -0.346 A  
BRANCH  19  22
HETATM   22  S   UNL     1     -11.739  15.041  70.022  1.00  0.00    -0.330 S  
HETATM   23  O   UNL     1     -12.392  15.956  70.937  1.00  0.00    -0.415 OA 
HETATM   24  O   UNL     1     -11.983  15.129  68.600  1.00  0.00    -0.315 OA 
BRANCH  22  25
HETATM   25  N   UNL     1     -10.113  15.227  70.316  1.00  0.00    -0.487 N  
HETATM   26  H   UNL     1      -9.811  15.329  71.285  1.00  0.00     0.000 HD 
BRANCH  25  27
HETATM   27  C   UNL     1      -9.146  15.252  69.326  1.00  0.00    -0.240 C  
HETATM   28  O   UNL     1      -8.769  16.278  68.790  1.00  0.00    -0.219 OA 
BRANCH  27  29
HETATM   29  N   UNL     1      -8.675  14.009  69.004  1.00  0.00    -0.372 N  
HETATM   30  H   UNL     1      -8.596  13.290  69.723  1.00  0.00     0.000 HD 
BRANCH  29  31
HETATM   31  C   UNL     1      -8.288  13.714  67.631  1.00  0.00    -0.182 C  
HETATM   32  C   UNL     1      -7.574  12.363  67.524  1.00  0.00    -0.155 C  
HETATM   33  C   UNL     1      -8.527  11.177  67.655  1.00  0.00    -0.122 C  
HETATM   34  C   UNL     1      -9.680  11.280  66.663  1.00  0.00    -0.222 C  
HETATM   35  C   UNL     1     -10.429  12.601  66.803  1.00  0.00    -0.254 C  
HETATM   36  C   UNL     1      -9.489  13.799  66.685  1.00  0.00    -0.289 C  
ENDBRANCH  29  31
ENDBRANCH  27  29
ENDBRANCH  25  27
ENDBRANCH  22  25
ENDBRANCH  19  22
ENDBRANCH  15  16
ENDBRANCH  14  15
ENDBRANCH  13  14
ENDBRANCH   4  10
ENDBRANCH   2   3
TORSDOF 10
ENDMDL
MODEL       81
REMARK 921   NORMALIZED FREE ENERGY PREDICTED BY IDOCK:   -5.86 KCAL/MOL
REMARK 922        TOTAL FREE ENERGY PREDICTED BY IDOCK:  -11.25 KCAL/MOL
REMARK 923 INTER-LIGAND FREE ENERGY PREDICTED BY IDOCK:  -10.17 KCAL/MOL
REMARK 924 INTRA-LIGAND FREE ENERGY PREDICTED BY IDOCK:   -1.08 KCAL/MOL
REMARK 927      BINDING AFFINITY PREDICTED BY RF-SCORE:    0.00 PKD
ROOT
HETATM    1  C   UNL     1      -6.461  16.508  69.221  1.00  0.00    -0.201 C  
HETATM    2  O   UNL     1      -7.885  16.455  69.283  1.00  0.00    -0.238 OA 
ENDROOT
BRANCH   2   3
HETATM    3  C   UNL     1      -8.550  17.315  68.447  1.00  0.00    -0.251 A  
HETATM    4  C   UNL     1      -9.675  16.851  67.734  1.00  0.00    -0.250 A  
HETATM    5  C   UNL     1     -10.351  17.730  66.867  1.00  0.00    -0.344 A  
HETATM    6  C   UNL     1      -8.082  18.619  68.219  1.00  0.00    -0.339 A  
HETATM    7 CL   UNL     1     -10.688  20.074  65.574  1.00  0.00    -0.426 Cl 
HETATM    8  C   UNL     1      -8.737  19.468  67.328  1.00  0.00    -0.348 A  
HETATM    9  C   UNL     1      -9.873  19.024  66.665  1.00  0.00    -0.355 A  
BRANCH   4  10
HETATM   10  C   UNL     1     -10.180  15.446  67.885  1.00  0.00    -0.239 C  
HETATM   11  H   UNL     1     -11.477  16.032  69.413  1.00  0.00     0.000 HD 
HETATM   12  O   UNL     1      -9.722  14.521  67.227  1.00  0.00    -0.225 OA 
HETATM   13  N   UNL     1     -11.202  15.259  68.805  1.00  0.00    -0.269 N  
BRANCH  13  14
HETATM   14  C   UNL     1     -11.888  13.985  68.921  1.00  0.00    -0.355 C  
BRANCH  14  15
HETATM   15  C   UNL     1     -12.312  13.649  70.356  1.00  0.00    -0.415 C  
BRANCH  15  16
HETATM   16  C   UNL     1     -12.323  12.172  70.711  1.00  0.00    -0.391 A  
HETATM   17  C   UNL     1     -11.562  11.212  70.025  1.00  0.00    -0.421 A  
HETATM   18  C   UNL     1     -11.662   9.854  70.341  1.00  0.00    -0.333 A  
HETATM   19  C   UNL     1     -12.521   9.439  71.358  1.00  0.00    -0.352 A  
HETATM   20  C   UNL     1     -13.155  11.740  71.757  1.00  0.00    -0.480 A  
HETATM   21  C   UNL     1     -13.267  10.381  72.071  1.00  0.00    -0.497 A  
BRANCH  19  22
HETATM   22  S   UNL     1     -12.773   7.700  71.634  1.00  0.00    -0.344 S  
HETATM   23  O   UNL     1     -11.995   6.992  70.635  1.00  0.00    -0.345 OA 
HETATM   24  O   UNL     1     -14.187   7.442  71.778  1.00  0.00    -0.407 OA 
BRANCH  22  25
HETATM   25  N   UNL     1     -12.004   7.389  73.075  1.00  0.00    -0.440 N  
HETATM   26  H   UNL     1     -12.457   7.696  73.935  1.00  0.00     0.000 HD 
BRANCH  25  27
HETATM   27  C   UNL     1     -10.787   6.737  73.177  1.00  0.00    -0.284 C  
HETATM   28  O   UNL     1      -9.745   7.311  73.435  1.00  0.00    -0.199 OA 
BRANCH  27  29
HETATM   29  N   UNL     1     -10.876   5.393  72.941  1.00  0.00    -0.250 N  
HETATM   30  H   UNL     1     -11.575   5.033  72.290  1.00  0.00     0.000 HD 
BRANCH  29  31
HETATM   31  C   UNL     1      -9.970   4.476  73.619  1.00  0.00    -0.149 C  
HETATM   32  C   UNL     1     -10.734   3.435  74.444  1.00  0.00    -0.155 C  
HETATM   33  C   UNL     1     -11.393   2.362  73.580  1.00  0.00    -0.311 C  
HETATM   34  C   UNL     1     -10.384   1.704  72.647  1.00  0.00    -0.221 C  
HETATM   35  C   UNL     1      -9.660   2.731  71.784  1.00  0.00    -0.218 C  
HETATM   36  C   UNL     1      -9.003   3.818  72.631  1.00  0.00    -0.119 C  
ENDBRANCH  29  31
ENDBRANCH  27  29
ENDBRANCH  25  27
ENDBRANCH  22  25
ENDBRANCH  19  22
ENDBRANCH  15  16
ENDBRANCH  14  15
ENDBRANCH  13  14
ENDBRANCH   4  10
ENDBRANCH   2   3
TORSDOF 10
ENDMDL
MODEL       82
REMARK 921   NORMALIZED FREE ENERGY PREDICTED BY IDOCK:   -5.85 KCAL/MOL
REMARK 922        TOTAL FREE ENERGY PREDICTED BY IDOCK:  -11.25 KCAL/MOL
REMARK 923 INTER-LIGAND FREE ENERGY PREDICTED BY IDOCK:  -10.02 KCAL/MOL
REMARK 924 INTRA-LIGAND FREE ENERGY PREDICTED BY IDOCK:   -1.23 KCAL/MOL
REMARK 927      BINDING AFFINITY PREDICTED BY RF-SCORE:    0.00 PKD
ROOT
HETATM    1  C   UNL     1      -9.886   2.670  72.127  1.00  0.00    -0.165 C  
HETATM    2  O   UNL     1     -10.358   4.010  72.256  1.00  0.00    -0.175 OA 
ENDROOT
BRANCH   2   3
HETATM    3  C   UNL     1      -9.393   4.983  72.264  1.00  0.00    -0.138 A  
HETATM    4  C   UNL     1      -9.709   6.273  71.789  1.00  0.00    -0.168 A  
HETATM    5  C   UNL     1      -8.716   7.269  71.786  1.00  0.00    -0.123 A  
HETATM    6  C   UNL     1      -8.073   4.699  72.652  1.00  0.00    -0.100 A  
HETATM    7 CL   UNL     1      -6.202   8.184  72.142  1.00  0.00    -0.050 Cl 
HETATM    8  C   UNL     1      -7.087   5.685  72.608  1.00  0.00    -0.089 A  
HETATM    9  C   UNL     1      -7.416   6.966  72.187  1.00  0.00    -0.091 A  
BRANCH   4  10
HETATM   10  C   UNL     1     -11.085   6.616  71.296  1.00  0.00    -0.267 C  
HETATM   11  H   UNL     1     -11.608   7.386  73.165  1.00  0.00     0.000 HD 
HETATM   12  O   UNL     1     -11.453   6.337  70.163  1.00  0.00    -0.400 OA 
HETATM   13  N   UNL     1     -11.911   7.274  72.198  1.00  0.00    -0.293 N  
BRANCH  13  14
HETATM   14  C   UNL     1     -13.198   7.808  71.789  1.00  0.00    -0.318 C  
BRANCH  14  15
HETATM   15  C   UNL     1     -13.458   9.230  72.301  1.00  0.00    -0.548 C  
BRANCH  15  16
HETATM   16  C   UNL     1     -12.893  10.351  71.448  1.00  0.00    -0.556 A  
HETATM   17  C   UNL     1     -13.073  11.711  71.749  1.00  0.00    -0.487 A  
HETATM   18  C   UNL     1     -12.597  12.708  70.892  1.00  0.00    -0.338 A  
HETATM   19  C   UNL     1     -11.922  12.355  69.724  1.00  0.00    -0.289 A  
HETATM   20  C   UNL     1     -12.179  10.016  70.285  1.00  0.00    -0.186 A  
HETATM   21  C   UNL     1     -11.709  11.008  69.419  1.00  0.00    -0.394 A  
BRANCH  19  22
HETATM   22  S   UNL     1     -11.476  13.621  68.556  1.00  0.00    -0.337 S  
HETATM   23  O   UNL     1     -12.155  13.313  67.312  1.00  0.00    -0.357 OA 
HETATM   24  O   UNL     1     -10.044  13.807  68.582  1.00  0.00    -0.231 OA 
BRANCH  22  25
HETATM   25  N   UNL     1     -12.223  14.994  69.122  1.00  0.00    -0.564 N  
HETATM   26  H   UNL     1     -13.242  15.030  69.099  1.00  0.00     0.000 HD 
BRANCH  25  27
HETATM   27  C   UNL     1     -11.545  16.092  69.624  1.00  0.00    -0.299 C  
HETATM   28  O   UNL     1     -11.180  16.176  70.782  1.00  0.00    -0.369 OA 
BRANCH  27  29
HETATM   29  N   UNL     1     -11.347  17.073  68.692  1.00  0.00    -0.105 N  
HETATM   30  H   UNL     1     -12.146  17.547  68.270  1.00  0.00     0.000 HD 
BRANCH  29  31
HETATM   31  C   UNL     1      -9.992  17.441  68.302  1.00  0.00    -0.320 C  
HETATM   32  C   UNL     1      -9.772  17.273  66.795  1.00  0.00    -0.285 C  
HETATM   33  C   UNL     1     -10.452  18.365  65.973  1.00  0.00    -0.400 C  
HETATM   34  C   UNL     1     -10.040  19.754  66.446  1.00  0.00    -0.600 C  
HETATM   35  C   UNL     1     -10.308  19.945  67.935  1.00  0.00    -0.545 C  
HETATM   36  C   UNL     1      -9.644  18.856  68.773  1.00  0.00    -0.433 C  
ENDBRANCH  29  31
ENDBRANCH  27  29
ENDBRANCH  25  27
ENDBRANCH  22  25
ENDBRANCH  19  22
ENDBRANCH  15  16
ENDBRANCH  14  15
ENDBRANCH  13  14
ENDBRANCH   4  10
ENDBRANCH   2   3
TORSDOF 10
ENDMDL
MODEL       83
REMARK 921   NORMALIZED FREE ENERGY PREDICTED BY IDOCK:   -5.78 KCAL/MOL
REMARK 922        TOTAL FREE ENERGY PREDICTED BY IDOCK:  -11.14 KCAL/MOL
REMARK 923 INTER-LIGAND FREE ENERGY PREDICTED BY IDOCK:  -10.01 KCAL/MOL
REMARK 924 INTRA-LIGAND FREE ENERGY PREDICTED BY IDOCK:   -1.13 KCAL/MOL
REMARK 927      BINDING AFFINITY PREDICTED BY RF-SCORE:    0.00 PKD
ROOT
HETATM    1  C   UNL     1     -10.225   3.864  74.272  1.00  0.00    -0.185 C  
HETATM    2  O   UNL     1      -9.981   4.937  73.364  1.00  0.00    -0.149 OA 
ENDROOT
BRANCH   2   3
HETATM    3  C   UNL     1      -9.788   4.578  72.055  1.00  0.00    -0.178 A  
HETATM    4  C   UNL     1      -9.575   5.583  71.088  1.00  0.00    -0.207 A  
HETATM    5  C   UNL     1      -9.388   5.216  69.743  1.00  0.00    -0.182 A  
HETATM    6  C   UNL     1      -9.886   3.239  71.644  1.00  0.00    -0.220 A  
HETATM    7 CL   UNL     1      -9.288   3.449  67.706  1.00  0.00    -0.237 Cl 
HETATM    8  C   UNL     1      -9.740   2.891  70.301  1.00  0.00    -0.042 A  
HETATM    9  C   UNL     1      -9.480   3.879  69.360  1.00  0.00    -0.190 A  
BRANCH   4  10
HETATM   10  C   UNL     1      -9.528   7.037  71.459  1.00  0.00    -0.154 C  
HETATM   11  H   UNL     1     -11.510   7.297  70.858  1.00  0.00     0.000 HD 
HETATM   12  O   UNL     1      -8.505   7.564  71.875  1.00  0.00    -0.105 OA 
HETATM   13  N   UNL     1     -10.714   7.744  71.313  1.00  0.00    -0.227 N  
BRANCH  13  14
HETATM   14  C   UNL     1     -10.843   9.107  71.796  1.00  0.00    -0.345 C  
BRANCH  14  15
HETATM   15  C   UNL     1     -12.177   9.762  71.421  1.00  0.00    -0.486 C  
BRANCH  15  16
HETATM   16  C   UNL     1     -12.099  10.872  70.386  1.00  0.00    -0.453 A  
HETATM   17  C   UNL     1     -11.715  10.653  69.053  1.00  0.00    -0.305 A  
HETATM   18  C   UNL     1     -11.586  11.718  68.157  1.00  0.00    -0.391 A  
HETATM   19  C   UNL     1     -11.851  13.019  68.583  1.00  0.00    -0.318 A  
HETATM   20  C   UNL     1     -12.396  12.185  70.787  1.00  0.00    -0.391 A  
HETATM   21  C   UNL     1     -12.260  13.256  69.898  1.00  0.00    -0.313 A  
BRANCH  19  22
HETATM   22  S   UNL     1     -11.515  14.382  67.489  1.00  0.00    -0.366 S  
HETATM   23  O   UNL     1     -12.486  14.315  66.413  1.00  0.00    -0.441 OA 
HETATM   24  O   UNL     1     -10.101  14.419  67.196  1.00  0.00    -0.249 OA 
BRANCH  22  25
HETATM   25  N   UNL     1     -11.935  15.733  68.361  1.00  0.00    -0.438 N  
HETATM   26  H   UNL     1     -12.927  15.933  68.485  1.00  0.00     0.000 HD 
BRANCH  25  27
HETATM   27  C   UNL     1     -11.020  16.602  68.929  1.00  0.00    -0.294 C  
HETATM   28  O   UNL     1     -10.822  16.670  70.128  1.00  0.00    -0.301 OA 
BRANCH  27  29
HETATM   29  N   UNL     1     -10.379  17.384  68.008  1.00  0.00    -0.345 N  
HETATM   30  H   UNL     1     -10.303  17.075  67.039  1.00  0.00     0.000 HD 
BRANCH  29  31
HETATM   31  C   UNL     1      -9.806  18.661  68.413  1.00  0.00    -0.384 C  
HETATM   32  C   UNL     1      -8.281  18.666  68.271  1.00  0.00    -0.349 C  
HETATM   33  C   UNL     1      -7.822  18.765  66.818  1.00  0.00    -0.255 C  
HETATM   34  C   UNL     1      -8.452  19.963  66.117  1.00  0.00    -0.350 C  
HETATM   35  C   UNL     1      -9.974  19.934  66.209  1.00  0.00    -0.596 C  
HETATM   36  C   UNL     1     -10.451  19.825  67.655  1.00  0.00    -0.564 C  
ENDBRANCH  29  31
ENDBRANCH  27  29
ENDBRANCH  25  27
ENDBRANCH  22  25
ENDBRANCH  19  22
ENDBRANCH  15  16
ENDBRANCH  14  15
ENDBRANCH  13  14
ENDBRANCH   4  10
ENDBRANCH   2   3
TORSDOF 10
ENDMDL
MODEL       84
REMARK 921   NORMALIZED FREE ENERGY PREDICTED BY IDOCK:   -5.78 KCAL/MOL
REMARK 922        TOTAL FREE ENERGY PREDICTED BY IDOCK:  -11.13 KCAL/MOL
REMARK 923 INTER-LIGAND FREE ENERGY PREDICTED BY IDOCK:   -9.87 KCAL/MOL
REMARK 924 INTRA-LIGAND FREE ENERGY PREDICTED BY IDOCK:   -1.26 KCAL/MOL
REMARK 927      BINDING AFFINITY PREDICTED BY RF-SCORE:    0.00 PKD
ROOT
HETATM    1  C   UNL     1      -8.505  11.056  68.736  1.00  0.00    -0.144 C  
HETATM    2  O   UNL     1      -8.974   9.821  69.274  1.00  0.00    -0.150 OA 
ENDROOT
BRANCH   2   3
HETATM    3  C   UNL     1      -8.254   9.318  70.327  1.00  0.00    -0.172 A  
HETATM    4  C   UNL     1      -8.877   8.430  71.228  1.00  0.00    -0.210 A  
HETATM    5  C   UNL     1      -8.142   7.923  72.315  1.00  0.00    -0.161 A  
HETATM    6  C   UNL     1      -6.938   9.738  70.578  1.00  0.00    -0.131 A  
HETATM    7 CL   UNL     1      -5.959   7.748  73.892  1.00  0.00    -0.071 Cl 
HETATM    8  C   UNL     1      -6.232   9.260  71.681  1.00  0.00    -0.022 A  
HETATM    9  C   UNL     1      -6.833   8.347  72.537  1.00  0.00    -0.088 A  
BRANCH   4  10
HETATM   10  C   UNL     1     -10.304   7.999  71.050  1.00  0.00    -0.201 C  
HETATM   11  H   UNL     1     -10.940   9.356  72.504  1.00  0.00     0.000 HD 
HETATM   12  O   UNL     1     -10.615   7.095  70.285  1.00  0.00    -0.216 OA 
HETATM   13  N   UNL     1     -11.249   8.690  71.795  1.00  0.00    -0.302 N  
BRANCH  13  14
HETATM   14  C   UNL     1     -12.671   8.483  71.587  1.00  0.00    -0.332 C  
BRANCH  14  15
HETATM   15  C   UNL     1     -13.535   9.648  72.084  1.00  0.00    -0.516 C  
BRANCH  15  16
HETATM   16  C   UNL     1     -13.129  11.027  71.593  1.00  0.00    -0.543 A  
HETATM   17  C   UNL     1     -12.252  11.231  70.515  1.00  0.00    -0.474 A  
HETATM   18  C   UNL     1     -11.849  12.518  70.147  1.00  0.00    -0.336 A  
HETATM   19  C   UNL     1     -12.329  13.622  70.850  1.00  0.00    -0.371 A  
HETATM   20  C   UNL     1     -13.630  12.154  72.265  1.00  0.00    -0.226 A  
HETATM   21  C   UNL     1     -13.224  13.444  71.908  1.00  0.00    -0.522 A  
BRANCH  19  22
HETATM   22  S   UNL     1     -11.677  15.238  70.489  1.00  0.00    -0.353 S  
HETATM   23  O   UNL     1     -10.243  15.092  70.320  1.00  0.00    -0.090 OA 
HETATM   24  O   UNL     1     -12.209  16.187  71.439  1.00  0.00    -0.423 OA 
BRANCH  22  25
HETATM   25  N   UNL     1     -12.253  15.592  68.970  1.00  0.00    -0.594 N  
HETATM   26  H   UNL     1     -13.254  15.753  68.864  1.00  0.00     0.000 HD 
BRANCH  25  27
HETATM   27  C   UNL     1     -11.456  15.683  67.842  1.00  0.00    -0.251 C  
HETATM   28  O   UNL     1     -10.759  16.650  67.596  1.00  0.00    -0.333 OA 
BRANCH  27  29
HETATM   29  N   UNL     1     -11.547  14.586  67.031  1.00  0.00    -0.374 N  
HETATM   30  H   UNL     1     -12.267  13.883  67.200  1.00  0.00     0.000 HD 
BRANCH  29  31
HETATM   31  C   UNL     1     -10.615  14.423  65.923  1.00  0.00    -0.307 C  
HETATM   32  C   UNL     1     -10.118  12.978  65.810  1.00  0.00    -0.294 C  
HETATM   33  C   UNL     1     -11.173  12.032  65.242  1.00  0.00    -0.374 C  
HETATM   34  C   UNL     1     -11.716  12.540  63.912  1.00  0.00    -0.530 C  
HETATM   35  C   UNL     1     -12.263  13.958  64.031  1.00  0.00    -0.413 C  
HETATM   36  C   UNL     1     -11.224  14.918  64.608  1.00  0.00    -0.349 C  
ENDBRANCH  29  31
ENDBRANCH  27  29
ENDBRANCH  25  27
ENDBRANCH  22  25
ENDBRANCH  19  22
ENDBRANCH  15  16
ENDBRANCH  14  15
ENDBRANCH  13  14
ENDBRANCH   4  10
ENDBRANCH   2   3
TORSDOF 10
ENDMDL
MODEL       85
REMARK 921   NORMALIZED FREE ENERGY PREDICTED BY IDOCK:   -5.78 KCAL/MOL
REMARK 922        TOTAL FREE ENERGY PREDICTED BY IDOCK:  -11.13 KCAL/MOL
REMARK 923 INTER-LIGAND FREE ENERGY PREDICTED BY IDOCK:   -9.24 KCAL/MOL
REMARK 924 INTRA-LIGAND FREE ENERGY PREDICTED BY IDOCK:   -1.89 KCAL/MOL
REMARK 927      BINDING AFFINITY PREDICTED BY RF-SCORE:    0.00 PKD
ROOT
HETATM    1  C   UNL     1      -8.308  19.523  67.544  1.00  0.00    -0.297 C  
HETATM    2  O   UNL     1      -8.401  18.544  68.578  1.00  0.00    -0.324 OA 
ENDROOT
BRANCH   2   3
HETATM    3  C   UNL     1      -7.902  17.305  68.272  1.00  0.00    -0.244 A  
HETATM    4  C   UNL     1      -8.695  16.163  68.513  1.00  0.00    -0.200 A  
HETATM    5  C   UNL     1      -8.179  14.890  68.209  1.00  0.00    -0.145 A  
HETATM    6  C   UNL     1      -6.587  17.141  67.808  1.00  0.00    -0.158 A  
HETATM    7 CL   UNL     1      -6.244  13.188  67.409  1.00  0.00    -0.127 Cl 
HETATM    8  C   UNL     1      -6.073  15.871  67.548  1.00  0.00    -0.174 A  
HETATM    9  C   UNL     1      -6.875  14.754  67.739  1.00  0.00    -0.177 A  
BRANCH   4  10
HETATM   10  C   UNL     1     -10.084  16.271  69.072  1.00  0.00    -0.259 C  
HETATM   11  H   UNL     1      -9.615  14.935  70.606  1.00  0.00     0.000 HD 
HETATM   12  O   UNL     1     -10.949  16.944  68.528  1.00  0.00    -0.350 OA 
HETATM   13  N   UNL     1     -10.326  15.573  70.248  1.00  0.00    -0.279 N  
BRANCH  13  14
HETATM   14  C   UNL     1     -11.571  15.732  70.976  1.00  0.00    -0.411 C  
BRANCH  14  15
HETATM   15  C   UNL     1     -12.718  14.882  70.415  1.00  0.00    -0.370 C  
BRANCH  15  16
HETATM   16  C   UNL     1     -12.637  13.394  70.705  1.00  0.00    -0.325 A  
HETATM   17  C   UNL     1     -13.274  12.789  71.801  1.00  0.00    -0.471 A  
HETATM   18  C   UNL     1     -13.109  11.427  72.068  1.00  0.00    -0.423 A  
HETATM   19  C   UNL     1     -12.310  10.647  71.232  1.00  0.00    -0.383 A  
HETATM   20  C   UNL     1     -11.866  12.585  69.854  1.00  0.00    -0.373 A  
HETATM   21  C   UNL     1     -11.689  11.223  70.121  1.00  0.00    -0.429 A  
BRANCH  19  22
HETATM   22  S   UNL     1     -11.966   8.960  71.678  1.00  0.00    -0.371 S  
HETATM   23  O   UNL     1     -13.127   8.460  72.390  1.00  0.00    -0.307 OA 
HETATM   24  O   UNL     1     -10.653   8.885  72.277  1.00  0.00    -0.320 OA 
BRANCH  22  25
HETATM   25  N   UNL     1     -11.962   8.137  70.233  1.00  0.00    -0.410 N  
HETATM   26  H   UNL     1     -12.766   8.250  69.616  1.00  0.00     0.000 HD 
BRANCH  25  27
HETATM   27  C   UNL     1     -10.933   7.309  69.818  1.00  0.00    -0.216 C  
HETATM   28  O   UNL     1     -11.046   6.101  69.732  1.00  0.00    -0.351 OA 
BRANCH  27  29
HETATM   29  N   UNL     1      -9.780   7.987  69.534  1.00  0.00    -0.168 N  
HETATM   30  H   UNL     1      -9.318   8.536  70.259  1.00  0.00     0.000 HD 
BRANCH  29  31
HETATM   31  C   UNL     1      -9.212   7.923  68.193  1.00  0.00    -0.136 C  
HETATM   32  C   UNL     1     -10.255   8.257  67.122  1.00  0.00    -0.365 C  
HETATM   33  C   UNL     1     -10.584   9.747  67.060  1.00  0.00    -0.269 C  
HETATM   34  C   UNL     1      -9.324  10.588  66.894  1.00  0.00    -0.181 C  
HETATM   35  C   UNL     1      -8.305  10.299  67.990  1.00  0.00    -0.114 C  
HETATM   36  C   UNL     1      -7.970   8.811  68.074  1.00  0.00    -0.106 C  
ENDBRANCH  29  31
ENDBRANCH  27  29
ENDBRANCH  25  27
ENDBRANCH  22  25
ENDBRANCH  19  22
ENDBRANCH  15  16
ENDBRANCH  14  15
ENDBRANCH  13  14
ENDBRANCH   4  10
ENDBRANCH   2   3
TORSDOF 10
ENDMDL
MODEL       86
REMARK 921   NORMALIZED FREE ENERGY PREDICTED BY IDOCK:   -5.76 KCAL/MOL
REMARK 922        TOTAL FREE ENERGY PREDICTED BY IDOCK:  -11.10 KCAL/MOL
REMARK 923 INTER-LIGAND FREE ENERGY PREDICTED BY IDOCK:   -9.30 KCAL/MOL
REMARK 924 INTRA-LIGAND FREE ENERGY PREDICTED BY IDOCK:   -1.80 KCAL/MOL
REMARK 927      BINDING AFFINITY PREDICTED BY RF-SCORE:    0.00 PKD
ROOT
HETATM    1  C   UNL     1      -6.886   5.867  66.640  1.00  0.00    -0.059 C  
HETATM    2  O   UNL     1      -8.190   6.302  66.256  1.00  0.00    -0.110 OA 
ENDROOT
BRANCH   2   3
HETATM    3  C   UNL     1      -9.112   6.382  67.267  1.00  0.00    -0.117 A  
HETATM    4  C   UNL     1      -9.648   7.640  67.614  1.00  0.00    -0.175 A  
HETATM    5  C   UNL     1     -10.586   7.724  68.659  1.00  0.00    -0.152 A  
HETATM    6  C   UNL     1      -9.468   5.253  68.022  1.00  0.00    -0.147 A  
HETATM    7 CL   UNL     1     -12.051   6.713  70.688  1.00  0.00    -0.421 Cl 
HETATM    8  C   UNL     1     -10.369   5.356  69.082  1.00  0.00    -0.300 A  
HETATM    9  C   UNL     1     -10.932   6.588  69.388  1.00  0.00    -0.337 A  
BRANCH   4  10
HETATM   10  C   UNL     1      -9.253   8.893  66.888  1.00  0.00    -0.147 C  
HETATM   11  H   UNL     1     -10.830   8.658  65.540  1.00  0.00     0.000 HD 
HETATM   12  O   UNL     1      -8.262   9.537  67.204  1.00  0.00    -0.112 OA 
HETATM   13  N   UNL     1     -10.082   9.281  65.844  1.00  0.00    -0.233 N  
BRANCH  13  14
HETATM   14  C   UNL     1      -9.904  10.558  65.176  1.00  0.00    -0.297 C  
BRANCH  14  15
HETATM   15  C   UNL     1     -10.921  11.620  65.612  1.00  0.00    -0.322 C  
BRANCH  15  16
HETATM   16  C   UNL     1     -10.397  13.044  65.682  1.00  0.00    -0.294 A  
HETATM   17  C   UNL     1      -9.209  13.394  66.344  1.00  0.00    -0.131 A  
HETATM   18  C   UNL     1      -8.807  14.729  66.446  1.00  0.00    -0.152 A  
HETATM   19  C   UNL     1      -9.586  15.733  65.874  1.00  0.00    -0.347 A  
HETATM   20  C   UNL     1     -11.150  14.066  65.081  1.00  0.00    -0.341 A  
HETATM   21  C   UNL     1     -10.758  15.405  65.187  1.00  0.00    -0.460 A  
BRANCH  19  22
HETATM   22  S   UNL     1      -9.160  17.437  66.157  1.00  0.00    -0.078 S  
HETATM   23  O   UNL     1     -10.310  18.235  65.775  1.00  0.00    -0.594 OA 
HETATM   24  O   UNL     1      -7.862  17.704  65.583  1.00  0.00    -0.533 OA 
BRANCH  22  25
HETATM   25  N   UNL     1      -9.072  17.577  67.812  1.00  0.00    -0.246 N  
HETATM   26  H   UNL     1      -8.199  17.316  68.268  1.00  0.00     0.000 HD 
BRANCH  25  27
HETATM   27  C   UNL     1     -10.113  18.026  68.606  1.00  0.00    -0.394 C  
HETATM   28  O   UNL     1     -10.234  19.187  68.950  1.00  0.00    -0.378 OA 
BRANCH  27  29
HETATM   29  N   UNL     1     -10.975  17.030  68.976  1.00  0.00    -0.284 N  
HETATM   30  H   UNL     1     -11.886  16.949  68.525  1.00  0.00     0.000 HD 
BRANCH  29  31
HETATM   31  C   UNL     1     -10.588  16.086  70.016  1.00  0.00    -0.296 C  
HETATM   32  C   UNL     1     -11.448  16.247  71.273  1.00  0.00    -0.369 C  
HETATM   33  C   UNL     1     -12.860  15.690  71.101  1.00  0.00    -0.540 C  
HETATM   34  C   UNL     1     -12.831  14.242  70.625  1.00  0.00    -0.378 C  
HETATM   35  C   UNL     1     -12.022  14.086  69.343  1.00  0.00    -0.390 C  
HETATM   36  C   UNL     1     -10.609  14.646  69.494  1.00  0.00    -0.166 C  
ENDBRANCH  29  31
ENDBRANCH  27  29
ENDBRANCH  25  27
ENDBRANCH  22  25
ENDBRANCH  19  22
ENDBRANCH  15  16
ENDBRANCH  14  15
ENDBRANCH  13  14
ENDBRANCH   4  10
ENDBRANCH   2   3
TORSDOF 10
ENDMDL
MODEL       87
REMARK 921   NORMALIZED FREE ENERGY PREDICTED BY IDOCK:   -5.71 KCAL/MOL
REMARK 922        TOTAL FREE ENERGY PREDICTED BY IDOCK:  -11.02 KCAL/MOL
REMARK 923 INTER-LIGAND FREE ENERGY PREDICTED BY IDOCK:   -9.68 KCAL/MOL
REMARK 924 INTRA-LIGAND FREE ENERGY PREDICTED BY IDOCK:   -1.34 KCAL/MOL
REMARK 927      BINDING AFFINITY PREDICTED BY RF-SCORE:    0.00 PKD
ROOT
HETATM    1  C   UNL     1     -10.655  19.910  65.805  1.00  0.00    -0.385 C  
HETATM    2  O   UNL     1     -10.540  18.806  66.701  1.00  0.00    -0.403 OA 
ENDROOT
BRANCH   2   3
HETATM    3  C   UNL     1      -9.290  18.254  66.810  1.00  0.00    -0.295 A  
HETATM    4  C   UNL     1      -9.109  16.889  66.501  1.00  0.00    -0.302 A  
HETATM    5  C   UNL     1      -7.828  16.320  66.624  1.00  0.00    -0.310 A  
HETATM    6  C   UNL     1      -8.206  18.995  67.307  1.00  0.00    -0.294 A  
HETATM    7 CL   UNL     1      -5.213  16.359  67.290  1.00  0.00    -0.144 Cl 
HETATM    8  C   UNL     1      -6.950  18.409  67.462  1.00  0.00    -0.206 A  
HETATM    9  C   UNL     1      -6.765  17.079  67.109  1.00  0.00    -0.179 A  
BRANCH   4  10
HETATM   10  C   UNL     1     -10.246  16.030  66.032  1.00  0.00    -0.341 C  
HETATM   11  H   UNL     1     -10.311  15.040  67.869  1.00  0.00     0.000 HD 
HETATM   12  O   UNL     1     -10.683  16.105  64.891  1.00  0.00    -0.612 OA 
HETATM   13  N   UNL     1     -10.777  15.153  66.968  1.00  0.00    -0.302 N  
BRANCH  13  14
HETATM   14  C   UNL     1     -11.982  14.393  66.689  1.00  0.00    -0.392 C  
BRANCH  14  15
HETATM   15  C   UNL     1     -11.704  12.967  66.199  1.00  0.00    -0.445 C  
BRANCH  15  16
HETATM   16  C   UNL     1     -11.510  11.923  67.285  1.00  0.00    -0.385 A  
HETATM   17  C   UNL     1     -11.884  12.128  68.623  1.00  0.00    -0.358 A  
HETATM   18  C   UNL     1     -11.617  11.166  69.601  1.00  0.00    -0.398 A  
HETATM   19  C   UNL     1     -10.981   9.976  69.249  1.00  0.00    -0.228 A  
HETATM   20  C   UNL     1     -10.903  10.703  66.943  1.00  0.00    -0.267 A  
HETATM   21  C   UNL     1     -10.625   9.740  67.918  1.00  0.00    -0.310 A  
BRANCH  19  22
HETATM   22  S   UNL     1     -10.490   8.837  70.524  1.00  0.00    -0.221 S  
HETATM   23  O   UNL     1     -11.693   8.443  71.232  1.00  0.00    -0.274 OA 
HETATM   24  O   UNL     1      -9.365   9.388  71.245  1.00  0.00    -0.246 OA 
BRANCH  22  25
HETATM   25  N   UNL     1     -10.008   7.473  69.705  1.00  0.00    -0.184 N  
HETATM   26  H   UNL     1      -9.057   7.445  69.340  1.00  0.00     0.000 HD 
BRANCH  25  27
HETATM   27  C   UNL     1     -10.820   6.373  69.490  1.00  0.00    -0.321 C  
HETATM   28  O   UNL     1     -11.339   6.129  68.416  1.00  0.00    -0.271 OA 
BRANCH  27  29
HETATM   29  N   UNL     1     -10.992   5.605  70.609  1.00  0.00    -0.235 N  
HETATM   30  H   UNL     1     -11.901   5.186  70.806  1.00  0.00     0.000 HD 
BRANCH  29  31
HETATM   31  C   UNL     1      -9.875   5.386  71.517  1.00  0.00    -0.168 C  
HETATM   32  C   UNL     1     -10.324   5.407  72.981  1.00  0.00    -0.229 C  
HETATM   33  C   UNL     1     -11.080   4.144  73.387  1.00  0.00    -0.354 C  
HETATM   34  C   UNL     1     -10.275   2.889  73.068  1.00  0.00    -0.227 C  
HETATM   35  C   UNL     1      -9.871   2.837  71.598  1.00  0.00    -0.211 C  
HETATM   36  C   UNL     1      -9.123   4.098  71.172  1.00  0.00    -0.183 C  
ENDBRANCH  29  31
ENDBRANCH  27  29
ENDBRANCH  25  27
ENDBRANCH  22  25
ENDBRANCH  19  22
ENDBRANCH  15  16
ENDBRANCH  14  15
ENDBRANCH  13  14
ENDBRANCH   4  10
ENDBRANCH   2   3
TORSDOF 10
ENDMDL
MODEL       88
REMARK 921   NORMALIZED FREE ENERGY PREDICTED BY IDOCK:   -5.71 KCAL/MOL
REMARK 922        TOTAL FREE ENERGY PREDICTED BY IDOCK:  -11.01 KCAL/MOL
REMARK 923 INTER-LIGAND FREE ENERGY PREDICTED BY IDOCK:   -9.73 KCAL/MOL
REMARK 924 INTRA-LIGAND FREE ENERGY PREDICTED BY IDOCK:   -1.29 KCAL/MOL
REMARK 927      BINDING AFFINITY PREDICTED BY RF-SCORE:    0.00 PKD
ROOT
HETATM    1  C   UNL     1      -8.080  11.748  68.098  1.00  0.00    -0.150 C  
HETATM    2  O   UNL     1      -9.048  12.765  67.846  1.00  0.00    -0.187 OA 
ENDROOT
BRANCH   2   3
HETATM    3  C   UNL     1      -9.816  12.592  66.724  1.00  0.00    -0.235 A  
HETATM    4  C   UNL     1     -10.863  13.500  66.458  1.00  0.00    -0.283 A  
HETATM    5  C   UNL     1     -11.659  13.316  65.312  1.00  0.00    -0.335 A  
HETATM    6  C   UNL     1      -9.641  11.481  65.884  1.00  0.00    -0.254 A  
HETATM    7 CL   UNL     1     -12.465  11.979  63.111  1.00  0.00    -0.537 Cl 
HETATM    8  C   UNL     1     -10.462  11.288  64.773  1.00  0.00    -0.384 A  
HETATM    9  C   UNL     1     -11.459  12.211  64.487  1.00  0.00    -0.334 A  
BRANCH   4  10
HETATM   10  C   UNL     1     -11.142  14.668  67.358  1.00  0.00    -0.326 C  
HETATM   11  H   UNL     1     -12.686  13.626  68.301  1.00  0.00     0.000 HD 
HETATM   12  O   UNL     1     -10.532  15.724  67.254  1.00  0.00    -0.294 OA 
HETATM   13  N   UNL     1     -12.124  14.477  68.321  1.00  0.00    -0.255 N  
BRANCH  13  14
HETATM   14  C   UNL     1     -12.367  15.465  69.356  1.00  0.00    -0.126 C  
BRANCH  14  15
HETATM   15  C   UNL     1     -12.110  14.939  70.773  1.00  0.00    -0.377 C  
BRANCH  15  16
HETATM   16  C   UNL     1     -12.477  13.485  71.013  1.00  0.00    -0.451 A  
HETATM   17  C   UNL     1     -13.411  13.078  71.980  1.00  0.00    -0.588 A  
HETATM   18  C   UNL     1     -13.660  11.723  72.215  1.00  0.00    -0.052 A  
HETATM   19  C   UNL     1     -12.984  10.755  71.474  1.00  0.00    -0.456 A  
HETATM   20  C   UNL     1     -11.833  12.496  70.251  1.00  0.00    -0.305 A  
HETATM   21  C   UNL     1     -12.071  11.138  70.488  1.00  0.00    -0.474 A  
BRANCH  19  22
HETATM   22  S   UNL     1     -13.178   9.038  71.898  1.00  0.00    -0.436 S  
HETATM   23  O   UNL     1     -13.249   8.295  70.654  1.00  0.00     0.344 OA 
HETATM   24  O   UNL     1     -14.221   8.908  72.889  1.00  0.00    -0.514 OA 
BRANCH  22  25
HETATM   25  N   UNL     1     -11.720   8.606  72.571  1.00  0.00    -0.329 N  
HETATM   26  H   UNL     1     -11.675   8.493  73.584  1.00  0.00     0.000 HD 
BRANCH  25  27
HETATM   27  C   UNL     1     -10.564   8.391  71.841  1.00  0.00    -0.300 C  
HETATM   28  O   UNL     1      -9.497   8.906  72.116  1.00  0.00    -0.327 OA 
BRANCH  27  29
HETATM   29  N   UNL     1     -10.752   7.557  70.772  1.00  0.00    -0.225 N  
HETATM   30  H   UNL     1     -11.675   7.163  70.587  1.00  0.00     0.000 HD 
BRANCH  29  31
HETATM   31  C   UNL     1      -9.632   7.233  69.899  1.00  0.00    -0.163 C  
HETATM   32  C   UNL     1      -9.818   5.872  69.223  1.00  0.00    -0.205 C  
HETATM   33  C   UNL     1     -10.858   5.904  68.105  1.00  0.00    -0.323 C  
HETATM   34  C   UNL     1     -10.546   6.995  67.087  1.00  0.00    -0.412 C  
HETATM   35  C   UNL     1     -10.413   8.362  67.749  1.00  0.00    -0.284 C  
HETATM   36  C   UNL     1      -9.384   8.347  68.878  1.00  0.00    -0.147 C  
ENDBRANCH  29  31
ENDBRANCH  27  29
ENDBRANCH  25  27
ENDBRANCH  22  25
ENDBRANCH  19  22
ENDBRANCH  15  16
ENDBRANCH  14  15
ENDBRANCH  13  14
ENDBRANCH   4  10
ENDBRANCH   2   3
TORSDOF 10
ENDMDL
MODEL       89
REMARK 921   NORMALIZED FREE ENERGY PREDICTED BY IDOCK:   -5.70 KCAL/MOL
REMARK 922        TOTAL FREE ENERGY PREDICTED BY IDOCK:  -11.00 KCAL/MOL
REMARK 923 INTER-LIGAND FREE ENERGY PREDICTED BY IDOCK:   -9.43 KCAL/MOL
REMARK 924 INTRA-LIGAND FREE ENERGY PREDICTED BY IDOCK:   -1.57 KCAL/MOL
REMARK 927      BINDING AFFINITY PREDICTED BY RF-SCORE:    0.00 PKD
ROOT
HETATM    1  C   UNL     1     -10.580  13.536  67.647  1.00  0.00    -0.241 C  
HETATM    2  O   UNL     1     -11.266  12.772  68.638  1.00  0.00    -0.247 OA 
ENDROOT
BRANCH   2   3
HETATM    3  C   UNL     1     -11.815  13.490  69.669  1.00  0.00    -0.336 A  
HETATM    4  C   UNL     1     -12.474  12.805  70.712  1.00  0.00    -0.357 A  
HETATM    5  C   UNL     1     -13.047  13.542  71.764  1.00  0.00    -0.475 A  
HETATM    6  C   UNL     1     -11.814  14.894  69.663  1.00  0.00    -0.356 A  
HETATM    7 CL   UNL     1     -13.764  15.823  73.015  1.00  0.00    -0.641 Cl 
HETATM    8  C   UNL     1     -12.422  15.614  70.691  1.00  0.00    -0.463 A  
HETATM    9  C   UNL     1     -13.025  14.935  71.741  1.00  0.00    -0.336 A  
BRANCH   4  10
HETATM   10  C   UNL     1     -12.566  11.307  70.737  1.00  0.00    -0.332 C  
HETATM   11  H   UNL     1     -13.256  11.340  72.707  1.00  0.00     0.000 HD 
HETATM   12  O   UNL     1     -12.214  10.623  69.785  1.00  0.00    -0.305 OA 
HETATM   13  N   UNL     1     -13.082  10.745  71.897  1.00  0.00    -0.494 N  
BRANCH  13  14
HETATM   14  C   UNL     1     -13.379   9.327  71.979  1.00  0.00    -0.450 C  
BRANCH  14  15
HETATM   15  C   UNL     1     -12.232   8.498  72.569  1.00  0.00    -0.383 C  
BRANCH  15  16
HETATM   16  C   UNL     1     -11.486   7.612  71.587  1.00  0.00    -0.295 A  
HETATM   17  C   UNL     1     -12.089   7.044  70.453  1.00  0.00    -0.204 A  
HETATM   18  C   UNL     1     -11.380   6.175  69.619  1.00  0.00    -0.442 A  
HETATM   19  C   UNL     1     -10.050   5.870  69.905  1.00  0.00    -0.198 A  
HETATM   20  C   UNL     1     -10.134   7.321  71.838  1.00  0.00    -0.196 A  
HETATM   21  C   UNL     1      -9.422   6.445  71.013  1.00  0.00    -0.181 A  
BRANCH  19  22
HETATM   22  S   UNL     1      -9.211   4.631  68.942  1.00  0.00    -0.140 S  
HETATM   23  O   UNL     1      -9.607   3.339  69.470  1.00  0.00    -0.161 OA 
HETATM   24  O   UNL     1      -7.814   4.980  68.832  1.00  0.00    -0.076 OA 
BRANCH  22  25
HETATM   25  N   UNL     1      -9.922   4.715  67.441  1.00  0.00    -0.167 N  
HETATM   26  H   UNL     1     -10.829   4.267  67.315  1.00  0.00     0.000 HD 
BRANCH  25  27
HETATM   27  C   UNL     1      -9.356   5.357  66.353  1.00  0.00    -0.150 C  
HETATM   28  O   UNL     1      -8.598   4.807  65.576  1.00  0.00    -0.122 OA 
BRANCH  27  29
HETATM   29  N   UNL     1      -9.722   6.671  66.254  1.00  0.00    -0.379 N  
HETATM   30  H   UNL     1     -10.677   6.918  65.991  1.00  0.00     0.000 HD 
BRANCH  29  31
HETATM   31  C   UNL     1      -8.747   7.718  66.525  1.00  0.00    -0.148 C  
HETATM   32  C   UNL     1      -8.403   8.512  65.261  1.00  0.00    -0.168 C  
HETATM   33  C   UNL     1      -9.517   9.468  64.841  1.00  0.00    -0.230 C  
HETATM   34  C   UNL     1      -9.918  10.390  65.987  1.00  0.00    -0.301 C  
HETATM   35  C   UNL     1     -10.314   9.603  67.231  1.00  0.00    -0.310 C  
HETATM   36  C   UNL     1      -9.215   8.633  67.660  1.00  0.00    -0.148 C  
ENDBRANCH  29  31
ENDBRANCH  27  29
ENDBRANCH  25  27
ENDBRANCH  22  25
ENDBRANCH  19  22
ENDBRANCH  15  16
ENDBRANCH  14  15
ENDBRANCH  13  14
ENDBRANCH   4  10
ENDBRANCH   2   3
TORSDOF 10
ENDMDL
MODEL       90
REMARK 921   NORMALIZED FREE ENERGY PREDICTED BY IDOCK:   -5.68 KCAL/MOL
REMARK 922        TOTAL FREE ENERGY PREDICTED BY IDOCK:  -10.98 KCAL/MOL
REMARK 923 INTER-LIGAND FREE ENERGY PREDICTED BY IDOCK:   -7.67 KCAL/MOL
REMARK 924 INTRA-LIGAND FREE ENERGY PREDICTED BY IDOCK:   -3.31 KCAL/MOL
REMARK 927      BINDING AFFINITY PREDICTED BY RF-SCORE:    0.00 PKD
ROOT
HETATM    1  C   UNL     1     -12.167  13.113  65.347  1.00  0.00    -0.461 C  
HETATM    2  O   UNL     1     -12.115  12.223  66.461  1.00  0.00    -0.616 OA 
ENDROOT
BRANCH   2   3
HETATM    3  C   UNL     1     -10.860  11.841  66.860  1.00  0.00    -0.271 A  
HETATM    4  C   UNL     1     -10.609  11.619  68.230  1.00  0.00    -0.232 A  
HETATM    5  C   UNL     1      -9.319  11.238  68.641  1.00  0.00    -0.167 A  
HETATM    6  C   UNL     1      -9.799  11.754  65.945  1.00  0.00    -0.265 A  
HETATM    7 CL   UNL     1      -6.702  10.719  68.235  1.00  0.00    -0.062 Cl 
HETATM    8  C   UNL     1      -8.514  11.415  66.370  1.00  0.00    -0.160 A  
HETATM    9  C   UNL     1      -8.283  11.148  67.713  1.00  0.00    -0.119 A  
BRANCH   4  10
HETATM   10  C   UNL     1     -11.689  11.764  69.263  1.00  0.00    -0.335 C  
HETATM   11  H   UNL     1     -12.125   9.725  69.155  1.00  0.00     0.000 HD 
HETATM   12  O   UNL     1     -11.987  12.853  69.736  1.00  0.00    -0.313 OA 
HETATM   13  N   UNL     1     -12.322  10.592  69.655  1.00  0.00    -0.226 N  
BRANCH  13  14
HETATM   14  C   UNL     1     -13.260  10.578  70.762  1.00  0.00    -0.149 C  
BRANCH  14  15
HETATM   15  C   UNL     1     -12.663  10.020  72.060  1.00  0.00    -0.439 C  
BRANCH  15  16
HETATM   16  C   UNL     1     -11.863   8.736  71.918  1.00  0.00    -0.437 A  
HETATM   17  C   UNL     1     -12.458   7.477  71.733  1.00  0.00    -0.360 A  
HETATM   18  C   UNL     1     -11.683   6.315  71.683  1.00  0.00    -0.342 A  
HETATM   19  C   UNL     1     -10.297   6.399  71.806  1.00  0.00    -0.203 A  
HETATM   20  C   UNL     1     -10.463   8.805  72.004  1.00  0.00    -0.414 A  
HETATM   21  C   UNL     1      -9.682   7.644  71.963  1.00  0.00    -0.209 A  
BRANCH  19  22
HETATM   22  S   UNL     1      -9.337   4.905  71.916  1.00  0.00    -0.146 S  
HETATM   23  O   UNL     1      -9.877   3.977  70.940  1.00  0.00    -0.185 OA 
HETATM   24  O   UNL     1      -9.217   4.520  73.303  1.00  0.00    -0.114 OA 
BRANCH  22  25
HETATM   25  N   UNL     1      -7.840   5.324  71.327  1.00  0.00    -0.105 N  
HETATM   26  H   UNL     1      -7.172   5.744  71.972  1.00  0.00     0.000 HD 
BRANCH  25  27
HETATM   27  C   UNL     1      -7.447   5.138  70.013  1.00  0.00    -0.063 C  
HETATM   28  O   UNL     1      -6.732   4.219  69.656  1.00  0.00    -0.036 OA 
BRANCH  27  29
HETATM   29  N   UNL     1      -7.928   6.099  69.166  1.00  0.00    -0.107 N  
HETATM   30  H   UNL     1      -7.693   7.079  69.321  1.00  0.00     0.000 HD 
BRANCH  29  31
HETATM   31  C   UNL     1      -8.775   5.719  68.044  1.00  0.00    -0.103 C  
HETATM   32  C   UNL     1     -10.220   6.189  68.243  1.00  0.00    -0.207 C  
HETATM   33  C   UNL     1     -10.387   7.693  68.038  1.00  0.00    -0.257 C  
HETATM   34  C   UNL     1      -9.838   8.133  66.686  1.00  0.00    -0.331 C  
HETATM   35  C   UNL     1      -8.382   7.715  66.506  1.00  0.00    -0.129 C  
HETATM   36  C   UNL     1      -8.194   6.215  66.717  1.00  0.00    -0.109 C  
ENDBRANCH  29  31
ENDBRANCH  27  29
ENDBRANCH  25  27
ENDBRANCH  22  25
ENDBRANCH  19  22
ENDBRANCH  15  16
ENDBRANCH  14  15
ENDBRANCH  13  14
ENDBRANCH   4  10
ENDBRANCH   2   3
TORSDOF 10
ENDMDL
MODEL       91
REMARK 921   NORMALIZED FREE ENERGY PREDICTED BY IDOCK:   -5.67 KCAL/MOL
REMARK 922        TOTAL FREE ENERGY PREDICTED BY IDOCK:  -10.95 KCAL/MOL
REMARK 923 INTER-LIGAND FREE ENERGY PREDICTED BY IDOCK:   -9.11 KCAL/MOL
REMARK 924 INTRA-LIGAND FREE ENERGY PREDICTED BY IDOCK:   -1.85 KCAL/MOL
REMARK 927      BINDING AFFINITY PREDICTED BY RF-SCORE:    0.00 PKD
ROOT
HETATM    1  C   UNL     1      -6.925   9.620  70.931  1.00  0.00    -0.029 C  
HETATM    2  O   UNL     1      -8.229   9.208  71.339  1.00  0.00    -0.316 OA 
ENDROOT
BRANCH   2   3
HETATM    3  C   UNL     1      -8.605   7.949  70.948  1.00  0.00    -0.128 A  
HETATM    4  C   UNL     1      -9.957   7.564  71.068  1.00  0.00    -0.189 A  
HETATM    5  C   UNL     1     -10.341   6.268  70.677  1.00  0.00    -0.254 A  
HETATM    6  C   UNL     1      -7.658   7.006  70.515  1.00  0.00    -0.090 A  
HETATM    7 CL   UNL     1      -9.864   3.760  69.803  1.00  0.00    -0.181 Cl 
HETATM    8  C   UNL     1      -8.045   5.712  70.169  1.00  0.00    -0.103 A  
HETATM    9  C   UNL     1      -9.385   5.353  70.240  1.00  0.00    -0.154 A  
BRANCH   4  10
HETATM   10  C   UNL     1     -11.001   8.507  71.589  1.00  0.00    -0.292 C  
HETATM   11  H   UNL     1     -10.839   9.697  69.881  1.00  0.00     0.000 HD 
HETATM   12  O   UNL     1     -11.508   8.362  72.694  1.00  0.00    -0.380 OA 
HETATM   13  N   UNL     1     -11.365   9.546  70.742  1.00  0.00    -0.296 N  
BRANCH  13  14
HETATM   14  C   UNL     1     -12.479  10.421  71.059  1.00  0.00    -0.388 C  
BRANCH  14  15
HETATM   15  C   UNL     1     -12.167  11.907  70.845  1.00  0.00    -0.351 C  
BRANCH  15  16
HETATM   16  C   UNL     1     -11.950  12.334  69.404  1.00  0.00    -0.318 A  
HETATM   17  C   UNL     1     -12.009  13.672  68.982  1.00  0.00    -0.392 A  
HETATM   18  C   UNL     1     -11.877  14.008  67.631  1.00  0.00    -0.430 A  
HETATM   19  C   UNL     1     -11.672  13.005  66.684  1.00  0.00    -0.381 A  
HETATM   20  C   UNL     1     -11.707  11.341  68.439  1.00  0.00    -0.365 A  
HETATM   21  C   UNL     1     -11.583  11.670  67.085  1.00  0.00    -0.291 A  
BRANCH  19  22
HETATM   22  S   UNL     1     -11.680  13.424  64.955  1.00  0.00    -0.370 S  
HETATM   23  O   UNL     1     -10.581  14.344  64.732  1.00  0.00    -0.421 OA 
HETATM   24  O   UNL     1     -13.023  13.779  64.558  1.00  0.00    -0.602 OA 
BRANCH  22  25
HETATM   25  N   UNL     1     -11.228  12.022  64.183  1.00  0.00    -0.347 N  
HETATM   26  H   UNL     1     -11.947  11.322  64.002  1.00  0.00     0.000 HD 
BRANCH  25  27
HETATM   27  C   UNL     1      -9.935  11.749  63.771  1.00  0.00    -0.355 C  
HETATM   28  O   UNL     1      -9.621  11.627  62.602  1.00  0.00    -0.249 OA 
BRANCH  27  29
HETATM   29  N   UNL     1      -9.057  11.612  64.811  1.00  0.00    -0.408 N  
HETATM   30  H   UNL     1      -9.017  12.323  65.542  1.00  0.00     0.000 HD 
BRANCH  29  31
HETATM   31  C   UNL     1      -8.181  10.450  64.874  1.00  0.00    -0.145 C  
HETATM   32  C   UNL     1      -7.189  10.552  66.037  1.00  0.00    -0.137 C  
HETATM   33  C   UNL     1      -7.842  10.304  67.395  1.00  0.00    -0.102 C  
HETATM   34  C   UNL     1      -8.593   8.978  67.416  1.00  0.00    -0.115 C  
HETATM   35  C   UNL     1      -9.621   8.894  66.293  1.00  0.00    -0.328 C  
HETATM   36  C   UNL     1      -8.988   9.149  64.927  1.00  0.00    -0.201 C  
ENDBRANCH  29  31
ENDBRANCH  27  29
ENDBRANCH  25  27
ENDBRANCH  22  25
ENDBRANCH  19  22
ENDBRANCH  15  16
ENDBRANCH  14  15
ENDBRANCH  13  14
ENDBRANCH   4  10
ENDBRANCH   2   3
TORSDOF 10
ENDMDL
MODEL       92
REMARK 921   NORMALIZED FREE ENERGY PREDICTED BY IDOCK:   -5.64 KCAL/MOL
REMARK 922        TOTAL FREE ENERGY PREDICTED BY IDOCK:  -10.91 KCAL/MOL
REMARK 923 INTER-LIGAND FREE ENERGY PREDICTED BY IDOCK:   -8.71 KCAL/MOL
REMARK 924 INTRA-LIGAND FREE ENERGY PREDICTED BY IDOCK:   -2.20 KCAL/MOL
REMARK 927      BINDING AFFINITY PREDICTED BY RF-SCORE:    0.00 PKD
ROOT
HETATM    1  C   UNL     1      -7.111   9.455  65.388  1.00  0.00    -0.091 C  
HETATM    2  O   UNL     1      -6.854   9.573  66.787  1.00  0.00    -0.078 OA 
ENDROOT
BRANCH   2   3
HETATM    3  C   UNL     1      -7.946   9.440  67.606  1.00  0.00    -0.099 A  
HETATM    4  C   UNL     1      -7.873   9.912  68.933  1.00  0.00    -0.091 A  
HETATM    5  C   UNL     1      -8.989   9.765  69.777  1.00  0.00    -0.239 A  
HETATM    6  C   UNL     1      -9.100   8.764  67.179  1.00  0.00    -0.155 A  
HETATM    7 CL   UNL     1     -11.470   8.895  70.385  1.00  0.00    -0.228 Cl 
HETATM    8  C   UNL     1     -10.185   8.590  68.039  1.00  0.00    -0.264 A  
HETATM    9  C   UNL     1     -10.128   9.101  69.328  1.00  0.00    -0.194 A  
BRANCH   4  10
HETATM   10  C   UNL     1      -6.640  10.581  69.466  1.00  0.00    -0.080 C  
HETATM   11  H   UNL     1      -7.222  12.408  68.639  1.00  0.00     0.000 HD 
HETATM   12  O   UNL     1      -5.777   9.958  70.069  1.00  0.00    -0.039 OA 
HETATM   13  N   UNL     1      -6.540  11.948  69.242  1.00  0.00    -0.104 N  
BRANCH  13  14
HETATM   14  C   UNL     1      -5.484  12.736  69.851  1.00  0.00    -0.103 C  
BRANCH  14  15
HETATM   15  C   UNL     1      -5.299  14.112  69.201  1.00  0.00    -0.081 C  
BRANCH  15  16
HETATM   16  C   UNL     1      -6.577  14.830  68.802  1.00  0.00    -0.088 A  
HETATM   17  C   UNL     1      -7.623  15.093  69.702  1.00  0.00    -0.163 A  
HETATM   18  C   UNL     1      -8.811  15.690  69.270  1.00  0.00    -0.264 A  
HETATM   19  C   UNL     1      -8.963  16.043  67.930  1.00  0.00    -0.186 A  
HETATM   20  C   UNL     1      -6.734  15.226  67.464  1.00  0.00    -0.197 A  
HETATM   21  C   UNL     1      -7.924  15.816  67.024  1.00  0.00    -0.272 A  
BRANCH  19  22
HETATM   22  S   UNL     1     -10.539  16.640  67.358  1.00  0.00    -0.257 S  
HETATM   23  O   UNL     1     -10.693  17.991  67.861  1.00  0.00    -0.395 OA 
HETATM   24  O   UNL     1     -11.549  15.641  67.623  1.00  0.00    -0.237 OA 
BRANCH  22  25
HETATM   25  N   UNL     1     -10.349  16.813  65.715  1.00  0.00    -0.342 N  
HETATM   26  H   UNL     1      -9.728  17.549  65.380  1.00  0.00     0.000 HD 
BRANCH  25  27
HETATM   27  C   UNL     1     -10.983  16.018  64.776  1.00  0.00    -0.356 C  
HETATM   28  O   UNL     1     -11.698  16.466  63.899  1.00  0.00    -1.085 OA 
BRANCH  27  29
HETATM   29  N   UNL     1     -10.737  14.683  64.948  1.00  0.00    -0.469 N  
HETATM   30  H   UNL     1      -9.799  14.364  65.191  1.00  0.00     0.000 HD 
BRANCH  29  31
HETATM   31  C   UNL     1     -11.817  13.719  64.783  1.00  0.00    -0.391 C  
HETATM   32  C   UNL     1     -11.673  12.927  63.480  1.00  0.00    -0.576 C  
HETATM   33  C   UNL     1     -10.564  11.881  63.542  1.00  0.00    -0.507 C  
HETATM   34  C   UNL     1     -10.740  10.956  64.740  1.00  0.00    -0.248 C  
HETATM   35  C   UNL     1     -10.828  11.736  66.047  1.00  0.00    -0.343 C  
HETATM   36  C   UNL     1     -11.926  12.796  66.000  1.00  0.00    -0.491 C  
ENDBRANCH  29  31
ENDBRANCH  27  29
ENDBRANCH  25  27
ENDBRANCH  22  25
ENDBRANCH  19  22
ENDBRANCH  15  16
ENDBRANCH  14  15
ENDBRANCH  13  14
ENDBRANCH   4  10
ENDBRANCH   2   3
TORSDOF 10
ENDMDL
MODEL       93
REMARK 921   NORMALIZED FREE ENERGY PREDICTED BY IDOCK:   -5.63 KCAL/MOL
REMARK 922        TOTAL FREE ENERGY PREDICTED BY IDOCK:  -10.89 KCAL/MOL
REMARK 923 INTER-LIGAND FREE ENERGY PREDICTED BY IDOCK:   -9.13 KCAL/MOL
REMARK 924 INTRA-LIGAND FREE ENERGY PREDICTED BY IDOCK:   -1.76 KCAL/MOL
REMARK 927      BINDING AFFINITY PREDICTED BY RF-SCORE:    0.00 PKD
ROOT
HETATM    1  C   UNL     1     -11.388   5.533  72.702  1.00  0.00    -0.291 C  
HETATM    2  O   UNL     1     -10.543   6.674  72.847  1.00  0.00    -0.217 OA 
ENDROOT
BRANCH   2   3
HETATM    3  C   UNL     1     -10.965   7.812  72.210  1.00  0.00    -0.290 A  
HETATM    4  C   UNL     1     -10.134   8.407  71.237  1.00  0.00    -0.260 A  
HETATM    5  C   UNL     1     -10.562   9.581  70.592  1.00  0.00    -0.374 A  
HETATM    6  C   UNL     1     -12.165   8.447  72.568  1.00  0.00    -0.381 A  
HETATM    7 CL   UNL     1     -12.254  11.644  70.186  1.00  0.00    -0.381 Cl 
HETATM    8  C   UNL     1     -12.559   9.633  71.949  1.00  0.00    -0.481 A  
HETATM    9  C   UNL     1     -11.762  10.187  70.957  1.00  0.00    -0.382 A  
BRANCH   4  10
HETATM   10  C   UNL     1      -8.808   7.811  70.862  1.00  0.00    -0.142 C  
HETATM   11  H   UNL     1      -9.589   7.103  69.060  1.00  0.00     0.000 HD 
HETATM   12  O   UNL     1      -7.845   7.854  71.616  1.00  0.00    -0.083 OA 
HETATM   13  N   UNL     1      -8.737   7.219  69.608  1.00  0.00    -0.141 N  
BRANCH  13  14
HETATM   14  C   UNL     1      -7.472   6.760  69.063  1.00  0.00    -0.096 C  
BRANCH  14  15
HETATM   15  C   UNL     1      -6.871   7.718  68.028  1.00  0.00    -0.072 C  
BRANCH  15  16
HETATM   16  C   UNL     1      -7.499   9.100  67.967  1.00  0.00    -0.084 A  
HETATM   17  C   UNL     1      -8.561   9.424  67.106  1.00  0.00    -0.130 A  
HETATM   18  C   UNL     1      -9.055  10.729  67.033  1.00  0.00    -0.155 A  
HETATM   19  C   UNL     1      -8.499  11.728  67.831  1.00  0.00    -0.154 A  
HETATM   20  C   UNL     1      -6.976  10.112  68.789  1.00  0.00    -0.066 A  
HETATM   21  C   UNL     1      -7.461  11.422  68.714  1.00  0.00    -0.124 A  
BRANCH  19  22
HETATM   22  S   UNL     1      -9.016  13.416  67.604  1.00  0.00    -0.215 S  
HETATM   23  O   UNL     1      -9.976  13.426  66.516  1.00  0.00    -0.270 OA 
HETATM   24  O   UNL     1      -7.849  14.267  67.557  1.00  0.00    -0.167 OA 
BRANCH  22  25
HETATM   25  N   UNL     1      -9.904  13.768  68.964  1.00  0.00    -0.425 N  
HETATM   26  H   UNL     1     -10.207  12.993  69.552  1.00  0.00     0.000 HD 
BRANCH  25  27
HETATM   27  C   UNL     1     -10.257  15.051  69.346  1.00  0.00    -0.223 C  
HETATM   28  O   UNL     1     -10.173  16.013  68.605  1.00  0.00    -0.218 OA 
BRANCH  27  29
HETATM   29  N   UNL     1     -10.689  15.126  70.641  1.00  0.00    -0.532 N  
HETATM   30  H   UNL     1     -10.242  14.559  71.363  1.00  0.00     0.000 HD 
BRANCH  29  31
HETATM   31  C   UNL     1     -11.787  16.017  70.990  1.00  0.00    -0.394 C  
HETATM   32  C   UNL     1     -13.136  15.462  70.521  1.00  0.00    -0.318 C  
HETATM   33  C   UNL     1     -13.627  14.297  71.378  1.00  0.00    -0.395 C  
HETATM   34  C   UNL     1     -13.660  14.671  72.855  1.00  0.00    -0.463 C  
HETATM   35  C   UNL     1     -12.305  15.173  73.341  1.00  0.00    -0.597 C  
HETATM   36  C   UNL     1     -11.793  16.332  72.488  1.00  0.00    -0.608 C  
ENDBRANCH  29  31
ENDBRANCH  27  29
ENDBRANCH  25  27
ENDBRANCH  22  25
ENDBRANCH  19  22
ENDBRANCH  15  16
ENDBRANCH  14  15
ENDBRANCH  13  14
ENDBRANCH   4  10
ENDBRANCH   2   3
TORSDOF 10
ENDMDL
MODEL       94
REMARK 921   NORMALIZED FREE ENERGY PREDICTED BY IDOCK:   -5.62 KCAL/MOL
REMARK 922        TOTAL FREE ENERGY PREDICTED BY IDOCK:  -10.88 KCAL/MOL
REMARK 923 INTER-LIGAND FREE ENERGY PREDICTED BY IDOCK:   -9.81 KCAL/MOL
REMARK 924 INTRA-LIGAND FREE ENERGY PREDICTED BY IDOCK:   -1.07 KCAL/MOL
REMARK 927      BINDING AFFINITY PREDICTED BY RF-SCORE:    0.00 PKD
ROOT
HETATM    1  C   UNL     1     -10.674  14.604  68.113  1.00  0.00    -0.242 C  
HETATM    2  O   UNL     1     -11.768  13.992  68.794  1.00  0.00    -0.308 OA 
ENDROOT
BRANCH   2   3
HETATM    3  C   UNL     1     -11.969  14.402  70.087  1.00  0.00    -0.322 A  
HETATM    4  C   UNL     1     -12.346  13.452  71.060  1.00  0.00    -0.401 A  
HETATM    5  C   UNL     1     -12.563  13.874  72.385  1.00  0.00    -0.199 A  
HETATM    6  C   UNL     1     -11.896  15.758  70.443  1.00  0.00    -0.391 A  
HETATM    7 CL   UNL     1     -12.780  15.730  74.331  1.00  0.00    -0.635 Cl 
HETATM    8  C   UNL     1     -12.153  16.169  71.750  1.00  0.00    -0.517 A  
HETATM    9  C   UNL     1     -12.474  15.225  72.716  1.00  0.00    -0.391 A  
BRANCH   4  10
HETATM   10  C   UNL     1     -12.507  11.999  70.723  1.00  0.00    -0.279 C  
HETATM   11  H   UNL     1     -13.098  11.567  72.679  1.00  0.00     0.000 HD 
HETATM   12  O   UNL     1     -12.234  11.559  69.614  1.00  0.00    -0.286 OA 
HETATM   13  N   UNL     1     -12.992  11.185  71.738  1.00  0.00    -0.457 N  
BRANCH  13  14
HETATM   14  C   UNL     1     -13.350   9.801  71.488  1.00  0.00    -0.385 C  
BRANCH  14  15
HETATM   15  C   UNL     1     -12.300   8.800  71.984  1.00  0.00    -0.444 C  
BRANCH  15  16
HETATM   16  C   UNL     1     -11.210   8.441  70.989  1.00  0.00    -0.304 A  
HETATM   17  C   UNL     1     -10.101   9.263  70.733  1.00  0.00    -0.358 A  
HETATM   18  C   UNL     1      -9.163   8.925  69.754  1.00  0.00    -0.167 A  
HETATM   19  C   UNL     1      -9.319   7.748  69.022  1.00  0.00    -0.150 A  
HETATM   20  C   UNL     1     -11.330   7.242  70.267  1.00  0.00    -0.266 A  
HETATM   21  C   UNL     1     -10.400   6.901  69.279  1.00  0.00    -0.212 A  
BRANCH  19  22
HETATM   22  S   UNL     1      -8.221   7.414  67.662  1.00  0.00    -0.118 S  
HETATM   23  O   UNL     1      -8.050   5.975  67.595  1.00  0.00    -0.105 OA 
HETATM   24  O   UNL     1      -7.072   8.284  67.755  1.00  0.00    -0.079 OA 
BRANCH  22  25
HETATM   25  N   UNL     1      -9.102   7.804  66.307  1.00  0.00    -0.180 N  
HETATM   26  H   UNL     1     -10.110   7.653  66.332  1.00  0.00     0.000 HD 
BRANCH  25  27
HETATM   27  C   UNL     1      -8.550   8.322  65.149  1.00  0.00    -0.105 C  
HETATM   28  O   UNL     1      -7.442   8.019  64.746  1.00  0.00    -0.081 OA 
BRANCH  27  29
HETATM   29  N   UNL     1      -9.368   9.219  64.518  1.00  0.00    -0.422 N  
HETATM   30  H   UNL     1     -10.228   8.900  64.071  1.00  0.00     0.000 HD 
BRANCH  29  31
HETATM   31  C   UNL     1      -9.010  10.631  64.486  1.00  0.00    -0.196 C  
HETATM   32  C   UNL     1      -9.835  11.400  63.451  1.00  0.00    -0.422 C  
HETATM   33  C   UNL     1     -11.276  11.635  63.898  1.00  0.00    -0.479 C  
HETATM   34  C   UNL     1     -11.331  12.306  65.265  1.00  0.00    -0.384 C  
HETATM   35  C   UNL     1     -10.556  11.514  66.313  1.00  0.00    -0.309 C  
HETATM   36  C   UNL     1      -9.114  11.261  65.878  1.00  0.00    -0.217 C  
ENDBRANCH  29  31
ENDBRANCH  27  29
ENDBRANCH  25  27
ENDBRANCH  22  25
ENDBRANCH  19  22
ENDBRANCH  15  16
ENDBRANCH  14  15
ENDBRANCH  13  14
ENDBRANCH   4  10
ENDBRANCH   2   3
TORSDOF 10
ENDMDL
MODEL       95
REMARK 921   NORMALIZED FREE ENERGY PREDICTED BY IDOCK:   -5.59 KCAL/MOL
REMARK 922        TOTAL FREE ENERGY PREDICTED BY IDOCK:  -10.82 KCAL/MOL
REMARK 923 INTER-LIGAND FREE ENERGY PREDICTED BY IDOCK:   -8.43 KCAL/MOL
REMARK 924 INTRA-LIGAND FREE ENERGY PREDICTED BY IDOCK:   -2.40 KCAL/MOL
REMARK 927      BINDING AFFINITY PREDICTED BY RF-SCORE:    0.00 PKD
ROOT
HETATM    1  C   UNL     1     -14.029  13.498  72.410  1.00  0.00    -0.536 C  
HETATM    2  O   UNL     1     -12.854  12.713  72.218  1.00  0.00    -0.203 OA 
ENDROOT
BRANCH   2   3
HETATM    3  C   UNL     1     -12.493  12.490  70.914  1.00  0.00    -0.269 A  
HETATM    4  C   UNL     1     -12.277  11.166  70.474  1.00  0.00    -0.475 A  
HETATM    5  C   UNL     1     -11.895  10.938  69.140  1.00  0.00    -0.389 A  
HETATM    6  C   UNL     1     -12.247  13.554  70.033  1.00  0.00    -0.381 A  
HETATM    7 CL   UNL     1     -11.164  11.718  66.662  1.00  0.00    -0.367 Cl 
HETATM    8  C   UNL     1     -11.830  13.317  68.723  1.00  0.00    -0.371 A  
HETATM    9  C   UNL     1     -11.668  12.011  68.280  1.00  0.00    -0.334 A  
BRANCH   4  10
HETATM   10  C   UNL     1     -12.457   9.992  71.391  1.00  0.00    -0.411 C  
HETATM   11  H   UNL     1     -10.463   9.430  71.132  1.00  0.00     0.000 HD 
HETATM   12  O   UNL     1     -13.543   9.720  71.886  1.00  0.00    -0.381 OA 
HETATM   13  N   UNL     1     -11.320   9.239  71.652  1.00  0.00    -0.381 N  
BRANCH  13  14
HETATM   14  C   UNL     1     -11.327   8.186  72.650  1.00  0.00    -0.381 C  
BRANCH  14  15
HETATM   15  C   UNL     1     -11.749   6.821  72.093  1.00  0.00    -0.332 C  
BRANCH  15  16
HETATM   16  C   UNL     1     -11.056   6.390  70.812  1.00  0.00    -0.365 A  
HETATM   17  C   UNL     1      -9.787   5.789  70.789  1.00  0.00    -0.235 A  
HETATM   18  C   UNL     1      -9.159   5.477  69.580  1.00  0.00    -0.152 A  
HETATM   19  C   UNL     1      -9.800   5.754  68.374  1.00  0.00    -0.140 A  
HETATM   20  C   UNL     1     -11.702   6.627  69.587  1.00  0.00    -0.216 A  
HETATM   21  C   UNL     1     -11.075   6.326  68.373  1.00  0.00    -0.371 A  
BRANCH  19  22
HETATM   22  S   UNL     1      -8.923   5.517  66.844  1.00  0.00    -0.112 S  
HETATM   23  O   UNL     1      -9.630   4.492  66.100  1.00  0.00    -0.155 OA 
HETATM   24  O   UNL     1      -7.512   5.376  67.123  1.00  0.00    -0.082 OA 
BRANCH  22  25
HETATM   25  N   UNL     1      -9.181   6.920  65.991  1.00  0.00    -0.347 N  
HETATM   26  H   UNL     1      -9.945   6.937  65.316  1.00  0.00     0.000 HD 
BRANCH  25  27
HETATM   27  C   UNL     1      -8.421   8.068  66.143  1.00  0.00    -0.135 C  
HETATM   28  O   UNL     1      -8.083   8.770  65.208  1.00  0.00    -0.114 OA 
BRANCH  27  29
HETATM   29  N   UNL     1      -8.078   8.317  67.443  1.00  0.00    -0.119 N  
HETATM   30  H   UNL     1      -7.401   7.718  67.917  1.00  0.00     0.000 HD 
BRANCH  29  31
HETATM   31  C   UNL     1      -8.680   9.439  68.150  1.00  0.00    -0.124 C  
HETATM   32  C   UNL     1      -8.536   9.293  69.668  1.00  0.00    -0.151 C  
HETATM   33  C   UNL     1      -7.116   9.569  70.157  1.00  0.00    -0.099 C  
HETATM   34  C   UNL     1      -6.618  10.927  69.677  1.00  0.00    -0.123 C  
HETATM   35  C   UNL     1      -6.708  11.057  68.161  1.00  0.00    -0.062 C  
HETATM   36  C   UNL     1      -8.119  10.774  67.652  1.00  0.00    -0.114 C  
ENDBRANCH  29  31
ENDBRANCH  27  29
ENDBRANCH  25  27
ENDBRANCH  22  25
ENDBRANCH  19  22
ENDBRANCH  15  16
ENDBRANCH  14  15
ENDBRANCH  13  14
ENDBRANCH   4  10
ENDBRANCH   2   3
TORSDOF 10
ENDMDL
MODEL       96
REMARK 921   NORMALIZED FREE ENERGY PREDICTED BY IDOCK:   -5.57 KCAL/MOL
REMARK 922        TOTAL FREE ENERGY PREDICTED BY IDOCK:  -10.80 KCAL/MOL
REMARK 923 INTER-LIGAND FREE ENERGY PREDICTED BY IDOCK:   -8.70 KCAL/MOL
REMARK 924 INTRA-LIGAND FREE ENERGY PREDICTED BY IDOCK:   -2.10 KCAL/MOL
REMARK 927      BINDING AFFINITY PREDICTED BY RF-SCORE:    0.00 PKD
ROOT
HETATM    1  C   UNL     1      -6.563  11.916  67.098  1.00  0.00    -0.148 C  
HETATM    2  O   UNL     1      -7.536  10.872  67.089  1.00  0.00    -0.100 OA 
ENDROOT
BRANCH   2   3
HETATM    3  C   UNL     1      -8.601  11.058  66.246  1.00  0.00    -0.167 A  
HETATM    4  C   UNL     1      -8.948  10.037  65.337  1.00  0.00    -0.213 A  
HETATM    5  C   UNL     1     -10.034  10.232  64.463  1.00  0.00    -0.359 A  
HETATM    6  C   UNL     1      -9.297  12.277  66.206  1.00  0.00    -0.206 A  
HETATM    7 CL   UNL     1     -12.016  11.685  63.350  1.00  0.00    -0.444 Cl 
HETATM    8  C   UNL     1     -10.345  12.474  65.308  1.00  0.00    -0.310 A  
HETATM    9  C   UNL     1     -10.716  11.447  64.450  1.00  0.00    -0.342 A  
BRANCH   4  10
HETATM   10  C   UNL     1      -8.197   8.738  65.286  1.00  0.00    -0.144 C  
HETATM   11  H   UNL     1      -9.023   8.141  67.108  1.00  0.00     0.000 HD 
HETATM   12  O   UNL     1      -7.412   8.481  64.382  1.00  0.00    -0.100 OA 
HETATM   13  N   UNL     1      -8.452   7.844  66.317  1.00  0.00    -0.128 N  
BRANCH  13  14
HETATM   14  C   UNL     1      -7.919   6.493  66.291  1.00  0.00    -0.111 C  
BRANCH  14  15
HETATM   15  C   UNL     1      -8.860   5.456  66.916  1.00  0.00    -0.111 C  
BRANCH  15  16
HETATM   16  C   UNL     1      -9.475   5.843  68.250  1.00  0.00    -0.123 A  
HETATM   17  C   UNL     1      -8.742   5.898  69.446  1.00  0.00    -0.116 A  
HETATM   18  C   UNL     1      -9.369   6.187  70.662  1.00  0.00    -0.177 A  
HETATM   19  C   UNL     1     -10.740   6.437  70.694  1.00  0.00    -0.257 A  
HETATM   20  C   UNL     1     -10.849   6.133  68.296  1.00  0.00    -0.387 A  
HETATM   21  C   UNL     1     -11.483   6.414  69.511  1.00  0.00    -0.412 A  
BRANCH  19  22
HETATM   22  S   UNL     1     -11.557   6.630  72.263  1.00  0.00    -0.258 S  
HETATM   23  O   UNL     1     -10.976   7.793  72.907  1.00  0.00    -0.361 OA 
HETATM   24  O   UNL     1     -11.586   5.355  72.943  1.00  0.00    -0.312 OA 
BRANCH  22  25
HETATM   25  N   UNL     1     -13.108   7.085  71.874  1.00  0.00    -0.529 N  
HETATM   26  H   UNL     1     -13.769   6.355  71.609  1.00  0.00     0.000 HD 
BRANCH  25  27
HETATM   27  C   UNL     1     -13.556   8.395  71.889  1.00  0.00    -0.379 C  
HETATM   28  O   UNL     1     -14.388   8.804  72.676  1.00  0.00    -0.585 OA 
BRANCH  27  29
HETATM   29  N   UNL     1     -12.981   9.170  70.919  1.00  0.00    -0.521 N  
HETATM   30  H   UNL     1     -13.262   9.060  69.944  1.00  0.00     0.000 HD 
BRANCH  29  31
HETATM   31  C   UNL     1     -11.969  10.153  71.280  1.00  0.00    -0.382 C  
HETATM   32  C   UNL     1     -10.758  10.087  70.344  1.00  0.00    -0.369 C  
HETATM   33  C   UNL     1     -11.041  10.682  68.967  1.00  0.00    -0.307 C  
HETATM   34  C   UNL     1     -11.585  12.102  69.077  1.00  0.00    -0.374 C  
HETATM   35  C   UNL     1     -12.824  12.164  69.965  1.00  0.00     0.451 C  
HETATM   36  C   UNL     1     -12.562  11.563  71.344  1.00  0.00    -0.419 C  
ENDBRANCH  29  31
ENDBRANCH  27  29
ENDBRANCH  25  27
ENDBRANCH  22  25
ENDBRANCH  19  22
ENDBRANCH  15  16
ENDBRANCH  14  15
ENDBRANCH  13  14
ENDBRANCH   4  10
ENDBRANCH   2   3
TORSDOF 10
ENDMDL
MODEL       97
REMARK 921   NORMALIZED FREE ENERGY PREDICTED BY IDOCK:   -5.57 KCAL/MOL
REMARK 922        TOTAL FREE ENERGY PREDICTED BY IDOCK:  -10.80 KCAL/MOL
REMARK 923 INTER-LIGAND FREE ENERGY PREDICTED BY IDOCK:   -8.99 KCAL/MOL
REMARK 924 INTRA-LIGAND FREE ENERGY PREDICTED BY IDOCK:   -1.80 KCAL/MOL
REMARK 927      BINDING AFFINITY PREDICTED BY RF-SCORE:    0.00 PKD
ROOT
HETATM    1  C   UNL     1     -11.197   7.223  72.649  1.00  0.00    -0.313 C  
HETATM    2  O   UNL     1     -11.432   7.475  71.264  1.00  0.00    -0.262 OA 
ENDROOT
BRANCH   2   3
HETATM    3  C   UNL     1     -11.629   8.788  70.923  1.00  0.00    -0.277 A  
HETATM    4  C   UNL     1     -11.035   9.291  69.746  1.00  0.00    -0.213 A  
HETATM    5  C   UNL     1     -11.227  10.642  69.401  1.00  0.00    -0.329 A  
HETATM    6  C   UNL     1     -12.333   9.664  71.764  1.00  0.00    -0.474 A  
HETATM    7 CL   UNL     1     -12.133  13.147  69.832  1.00  0.00    -0.375 Cl 
HETATM    8  C   UNL     1     -12.483  11.010  71.432  1.00  0.00    -0.436 A  
HETATM    9  C   UNL     1     -11.940  11.489  70.247  1.00  0.00    -0.368 A  
BRANCH   4  10
HETATM   10  C   UNL     1     -10.213   8.419  68.843  1.00  0.00    -0.210 C  
HETATM   11  H   UNL     1     -11.373   8.961  67.194  1.00  0.00     0.000 HD 
HETATM   12  O   UNL     1      -9.304   7.721  69.271  1.00  0.00    -0.149 OA 
HETATM   13  N   UNL     1     -10.539   8.457  67.494  1.00  0.00    -0.246 N  
BRANCH  13  14
HETATM   14  C   UNL     1      -9.714   7.792  66.501  1.00  0.00    -0.195 C  
BRANCH  14  15
HETATM   15  C   UNL     1      -8.780   8.747  65.747  1.00  0.00    -0.209 C  
BRANCH  15  16
HETATM   16  C   UNL     1      -9.250  10.188  65.648  1.00  0.00    -0.232 A  
HETATM   17  C   UNL     1      -8.903  11.175  66.584  1.00  0.00    -0.168 A  
HETATM   18  C   UNL     1      -9.421  12.470  66.491  1.00  0.00    -0.240 A  
HETATM   19  C   UNL     1     -10.289  12.797  65.449  1.00  0.00    -0.293 A  
HETATM   20  C   UNL     1     -10.097  10.546  64.585  1.00  0.00    -0.408 A  
HETATM   21  C   UNL     1     -10.627  11.837  64.492  1.00  0.00    -0.364 A  
BRANCH  19  22
HETATM   22  S   UNL     1     -11.079  14.391  65.439  1.00  0.00    -0.350 S  
HETATM   23  O   UNL     1     -12.438  14.192  64.972  1.00  0.00    -0.466 OA 
HETATM   24  O   UNL     1     -10.214  15.345  64.785  1.00  0.00    -0.301 OA 
BRANCH  22  25
HETATM   25  N   UNL     1     -11.232  14.793  67.045  1.00  0.00    -0.338 N  
HETATM   26  H   UNL     1     -11.686  14.123  67.665  1.00  0.00     0.000 HD 
BRANCH  25  27
HETATM   27  C   UNL     1     -10.781  15.983  67.590  1.00  0.00    -0.320 C  
HETATM   28  O   UNL     1     -11.525  16.882  67.933  1.00  0.00    -0.033 OA 
BRANCH  27  29
HETATM   29  N   UNL     1      -9.418  16.047  67.686  1.00  0.00    -0.215 N  
HETATM   30  H   UNL     1      -8.835  15.709  66.919  1.00  0.00     0.000 HD 
BRANCH  29  31
HETATM   31  C   UNL     1      -8.799  16.600  68.883  1.00  0.00    -0.238 C  
HETATM   32  C   UNL     1      -7.660  15.711  69.393  1.00  0.00    -0.221 C  
HETATM   33  C   UNL     1      -6.403  15.808  68.532  1.00  0.00    -0.108 C  
HETATM   34  C   UNL     1      -5.952  17.255  68.370  1.00  0.00    -0.150 C  
HETATM   35  C   UNL     1      -7.066  18.133  67.811  1.00  0.00    -0.212 C  
HETATM   36  C   UNL     1      -8.336  18.041  68.654  1.00  0.00    -0.282 C  
ENDBRANCH  29  31
ENDBRANCH  27  29
ENDBRANCH  25  27
ENDBRANCH  22  25
ENDBRANCH  19  22
ENDBRANCH  15  16
ENDBRANCH  14  15
ENDBRANCH  13  14
ENDBRANCH   4  10
ENDBRANCH   2   3
TORSDOF 10
ENDMDL
MODEL       98
REMARK 921   NORMALIZED FREE ENERGY PREDICTED BY IDOCK:   -5.56 KCAL/MOL
REMARK 922        TOTAL FREE ENERGY PREDICTED BY IDOCK:  -10.78 KCAL/MOL
REMARK 923 INTER-LIGAND FREE ENERGY PREDICTED BY IDOCK:  -10.49 KCAL/MOL
REMARK 924 INTRA-LIGAND FREE ENERGY PREDICTED BY IDOCK:   -0.30 KCAL/MOL
REMARK 927      BINDING AFFINITY PREDICTED BY RF-SCORE:    0.00 PKD
ROOT
HETATM    1  C   UNL     1      -9.420   2.648  71.463  1.00  0.00    -0.142 C  
HETATM    2  O   UNL     1      -8.964   3.965  71.161  1.00  0.00    -0.094 OA 
ENDROOT
BRANCH   2   3
HETATM    3  C   UNL     1      -9.811   4.984  71.511  1.00  0.00    -0.180 A  
HETATM    4  C   UNL     1     -10.452   5.729  70.498  1.00  0.00    -0.331 A  
HETATM    5  C   UNL     1     -11.312   6.781  70.858  1.00  0.00    -0.363 A  
HETATM    6  C   UNL     1      -9.986   5.359  72.853  1.00  0.00    -0.193 A  
HETATM    7 CL   UNL     1     -12.504   8.443  72.619  1.00  0.00    -0.347 Cl 
HETATM    8  C   UNL     1     -10.811   6.431  73.195  1.00  0.00    -0.282 A  
HETATM    9  C   UNL     1     -11.478   7.128  72.197  1.00  0.00    -0.269 A  
BRANCH   4  10
HETATM   10  C   UNL     1     -10.249   5.417  69.044  1.00  0.00    -0.221 C  
HETATM   11  H   UNL     1     -11.436   7.042  68.488  1.00  0.00     0.000 HD 
HETATM   12  O   UNL     1      -9.611   4.440  68.676  1.00  0.00    -0.150 OA 
HETATM   13  N   UNL     1     -10.818   6.307  68.143  1.00  0.00    -0.296 N  
BRANCH  13  14
HETATM   14  C   UNL     1     -10.552   6.211  66.719  1.00  0.00    -0.283 C  
BRANCH  14  15
HETATM   15  C   UNL     1      -9.499   7.212  66.228  1.00  0.00    -0.125 C  
BRANCH  15  16
HETATM   16  C   UNL     1      -9.856   8.679  66.396  1.00  0.00    -0.341 A  
HETATM   17  C   UNL     1     -10.536   9.180  67.518  1.00  0.00    -0.335 A  
HETATM   18  C   UNL     1     -10.907  10.526  67.594  1.00  0.00    -0.355 A  
HETATM   19  C   UNL     1     -10.592  11.392  66.548  1.00  0.00    -0.263 A  
HETATM   20  C   UNL     1      -9.515   9.575  65.369  1.00  0.00    -0.336 A  
HETATM   21  C   UNL     1      -9.892  10.921  65.434  1.00  0.00    -0.308 A  
BRANCH  19  22
HETATM   22  S   UNL     1     -11.220  13.057  66.574  1.00  0.00    -0.314 S  
HETATM   23  O   UNL     1     -12.660  12.972  66.421  1.00  0.00    -0.343 OA 
HETATM   24  O   UNL     1     -10.436  13.874  65.676  1.00  0.00    -0.290 OA 
BRANCH  22  25
HETATM   25  N   UNL     1     -10.984  13.569  68.137  1.00  0.00    -0.246 N  
HETATM   26  H   UNL     1     -10.436  12.975  68.758  1.00  0.00     0.000 HD 
BRANCH  25  27
HETATM   27  C   UNL     1     -11.488  14.754  68.647  1.00  0.00    -0.302 C  
HETATM   28  O   UNL     1     -11.109  15.850  68.280  1.00  0.00    -0.314 OA 
BRANCH  27  29
HETATM   29  N   UNL     1     -12.437  14.562  69.614  1.00  0.00    -0.540 N  
HETATM   30  H   UNL     1     -13.415  14.773  69.418  1.00  0.00     0.000 HD 
BRANCH  29  31
HETATM   31  C   UNL     1     -12.046  14.057  70.923  1.00  0.00    -0.329 C  
HETATM   32  C   UNL     1     -11.447  15.162  71.799  1.00  0.00    -0.452 C  
HETATM   33  C   UNL     1     -12.500  16.130  72.334  1.00  0.00    -0.500 C  
HETATM   34  C   UNL     1     -13.619  15.389  73.057  1.00  0.00    -0.563 C  
HETATM   35  C   UNL     1     -14.256  14.325  72.170  1.00  0.00    -0.632 C  
HETATM   36  C   UNL     1     -13.216  13.353  71.617  1.00  0.00    -0.449 C  
ENDBRANCH  29  31
ENDBRANCH  27  29
ENDBRANCH  25  27
ENDBRANCH  22  25
ENDBRANCH  19  22
ENDBRANCH  15  16
ENDBRANCH  14  15
ENDBRANCH  13  14
ENDBRANCH   4  10
ENDBRANCH   2   3
TORSDOF 10
ENDMDL
MODEL       99
REMARK 921   NORMALIZED FREE ENERGY PREDICTED BY IDOCK:   -5.56 KCAL/MOL
REMARK 922        TOTAL FREE ENERGY PREDICTED BY IDOCK:  -10.78 KCAL/MOL
REMARK 923 INTER-LIGAND FREE ENERGY PREDICTED BY IDOCK:   -8.36 KCAL/MOL
REMARK 924 INTRA-LIGAND FREE ENERGY PREDICTED BY IDOCK:   -2.42 KCAL/MOL
REMARK 927      BINDING AFFINITY PREDICTED BY RF-SCORE:    0.00 PKD
ROOT
HETATM    1  C   UNL     1      -9.193   9.829  64.466  1.00  0.00    -0.253 C  
HETATM    2  O   UNL     1      -8.299   9.649  65.564  1.00  0.00    -0.130 OA 
ENDROOT
BRANCH   2   3
HETATM    3  C   UNL     1      -8.887   9.361  66.768  1.00  0.00    -0.127 A  
HETATM    4  C   UNL     1      -8.614  10.182  67.883  1.00  0.00    -0.118 A  
HETATM    5  C   UNL     1      -9.208   9.879  69.122  1.00  0.00    -0.184 A  
HETATM    6  C   UNL     1      -9.681   8.216  66.937  1.00  0.00    -0.291 A  
HETATM    7 CL   UNL     1     -10.690   8.364  70.793  1.00  0.00    -0.232 Cl 
HETATM    8  C   UNL     1     -10.232   7.904  68.180  1.00  0.00    -0.248 A  
HETATM    9  C   UNL     1     -10.002   8.742  69.262  1.00  0.00    -0.194 A  
BRANCH   4  10
HETATM   10  C   UNL     1      -7.717  11.380  67.779  1.00  0.00    -0.115 C  
HETATM   11  H   UNL     1      -6.354  10.528  69.111  1.00  0.00     0.000 HD 
HETATM   12  O   UNL     1      -8.022  12.359  67.110  1.00  0.00    -0.174 OA 
HETATM   13  N   UNL     1      -6.519  11.309  68.477  1.00  0.00    -0.050 N  
BRANCH  13  14
HETATM   14  C   UNL     1      -5.495  12.327  68.321  1.00  0.00    -0.055 C  
BRANCH  14  15
HETATM   15  C   UNL     1      -5.608  13.466  69.341  1.00  0.00    -0.082 C  
BRANCH  15  16
HETATM   16  C   UNL     1      -6.387  14.687  68.882  1.00  0.00    -0.088 A  
HETATM   17  C   UNL     1      -7.525  15.168  69.550  1.00  0.00    -0.213 A  
HETATM   18  C   UNL     1      -8.251  16.251  69.047  1.00  0.00    -0.238 A  
HETATM   19  C   UNL     1      -7.841  16.875  67.870  1.00  0.00    -0.175 A  
HETATM   20  C   UNL     1      -5.968  15.351  67.717  1.00  0.00    -0.164 A  
HETATM   21  C   UNL     1      -6.696  16.429  67.204  1.00  0.00    -0.239 A  
BRANCH  19  22
HETATM   22  S   UNL     1      -8.867  18.135  67.145  1.00  0.00    -0.265 S  
HETATM   23  O   UNL     1      -8.353  18.391  65.813  1.00  0.00    -0.478 OA 
HETATM   24  O   UNL     1      -9.028  19.217  68.089  1.00  0.00    -0.303 OA 
BRANCH  22  25
HETATM   25  N   UNL     1     -10.334  17.391  66.903  1.00  0.00    -0.326 N  
HETATM   26  H   UNL     1     -11.123  17.690  67.476  1.00  0.00     0.000 HD 
BRANCH  25  27
HETATM   27  C   UNL     1     -10.549  16.391  65.970  1.00  0.00    -0.269 C  
HETATM   28  O   UNL     1     -10.670  16.608  64.779  1.00  0.00    -0.721 OA 
BRANCH  27  29
HETATM   29  N   UNL     1     -10.629  15.145  66.528  1.00  0.00    -0.298 N  
HETATM   30  H   UNL     1      -9.780  14.607  66.702  1.00  0.00     0.000 HD 
BRANCH  29  31
HETATM   31  C   UNL     1     -11.930  14.586  66.873  1.00  0.00    -0.346 C  
HETATM   32  C   UNL     1     -12.307  13.420  65.953  1.00  0.00    -0.493 C  
HETATM   33  C   UNL     1     -11.524  12.146  66.262  1.00  0.00    -0.433 C  
HETATM   34  C   UNL     1     -11.649  11.761  67.731  1.00  0.00    -0.374 C  
HETATM   35  C   UNL     1     -11.223  12.900  68.651  1.00  0.00    -0.321 C  
HETATM   36  C   UNL     1     -11.988  14.186  68.350  1.00  0.00    -0.366 C  
ENDBRANCH  29  31
ENDBRANCH  27  29
ENDBRANCH  25  27
ENDBRANCH  22  25
ENDBRANCH  19  22
ENDBRANCH  15  16
ENDBRANCH  14  15
ENDBRANCH  13  14
ENDBRANCH   4  10
ENDBRANCH   2   3
TORSDOF 10
ENDMDL
MODEL      100
REMARK 921   NORMALIZED FREE ENERGY PREDICTED BY IDOCK:   -5.56 KCAL/MOL
REMARK 922        TOTAL FREE ENERGY PREDICTED BY IDOCK:  -10.78 KCAL/MOL
REMARK 923 INTER-LIGAND FREE ENERGY PREDICTED BY IDOCK:   -9.19 KCAL/MOL
REMARK 924 INTRA-LIGAND FREE ENERGY PREDICTED BY IDOCK:   -1.59 KCAL/MOL
REMARK 927      BINDING AFFINITY PREDICTED BY RF-SCORE:    0.00 PKD
ROOT
HETATM    1  C   UNL     1      -9.407   1.899  68.941  1.00  0.00    -0.147 C  
HETATM    2  O   UNL     1      -9.277   3.071  69.745  1.00  0.00    -0.122 OA 
ENDROOT
BRANCH   2   3
HETATM    3  C   UNL     1      -8.598   4.115  69.171  1.00  0.00    -0.082 A  
HETATM    4  C   UNL     1      -9.083   5.429  69.338  1.00  0.00    -0.135 A  
HETATM    5  C   UNL     1      -8.393   6.499  68.740  1.00  0.00    -0.122 A  
HETATM    6  C   UNL     1      -7.482   3.895  68.347  1.00  0.00    -0.058 A  
HETATM    7 CL   UNL     1      -6.470   7.571  67.179  1.00  0.00    -0.059 Cl 
HETATM    8  C   UNL     1      -6.830   4.960  67.727  1.00  0.00    -0.060 A  
HETATM    9  C   UNL     1      -7.281   6.256  67.935  1.00  0.00    -0.087 A  
BRANCH   4  10
HETATM   10  C   UNL     1     -10.311   5.718  70.151  1.00  0.00    -0.256 C  
HETATM   11  H   UNL     1      -9.245   5.470  71.928  1.00  0.00     0.000 HD 
HETATM   12  O   UNL     1     -11.400   5.919  69.627  1.00  0.00    -0.370 OA 
HETATM   13  N   UNL     1     -10.139   5.754  71.528  1.00  0.00    -0.190 N  
BRANCH  13  14
HETATM   14  C   UNL     1     -11.208   6.188  72.410  1.00  0.00    -0.287 C  
BRANCH  14  15
HETATM   15  C   UNL     1     -11.029   7.622  72.923  1.00  0.00    -0.456 C  
BRANCH  15  16
HETATM   16  C   UNL     1     -11.168   8.718  71.881  1.00  0.00    -0.438 A  
HETATM   17  C   UNL     1     -10.119   9.111  71.035  1.00  0.00    -0.373 A  
HETATM   18  C   UNL     1     -10.274  10.176  70.142  1.00  0.00    -0.235 A  
HETATM   19  C   UNL     1     -11.490  10.856  70.077  1.00  0.00    -0.329 A  
HETATM   20  C   UNL     1     -12.397   9.391  71.776  1.00  0.00    -0.471 A  
HETATM   21  C   UNL     1     -12.556  10.463  70.891  1.00  0.00    -0.478 A  
BRANCH  19  22
HETATM   22  S   UNL     1     -11.622  12.315  69.069  1.00  0.00    -0.332 S  
HETATM   23  O   UNL     1     -12.037  13.400  69.938  1.00  0.00    -0.324 OA 
HETATM   24  O   UNL     1     -12.377  12.002  67.878  1.00  0.00    -0.338 OA 
BRANCH  22  25
HETATM   25  N   UNL     1     -10.054  12.677  68.650  1.00  0.00    -0.379 N  
HETATM   26  H   UNL     1      -9.311  12.405  69.293  1.00  0.00     0.000 HD 
BRANCH  25  27
HETATM   27  C   UNL     1      -9.697  13.327  67.481  1.00  0.00    -0.224 C  
HETATM   28  O   UNL     1      -9.103  14.389  67.464  1.00  0.00    -0.181 OA 
BRANCH  27  29
HETATM   29  N   UNL     1     -10.095  12.662  66.354  1.00  0.00    -0.248 N  
HETATM   30  H   UNL     1     -10.262  11.656  66.386  1.00  0.00     0.000 HD 
BRANCH  29  31
HETATM   31  C   UNL     1     -10.280  13.393  65.107  1.00  0.00    -0.299 C  
HETATM   32  C   UNL     1     -10.017  12.505  63.887  1.00  0.00    -0.199 C  
HETATM   33  C   UNL     1     -11.142  11.506  63.628  1.00  0.00    -0.469 C  
HETATM   34  C   UNL     1     -12.493  12.205  63.529  1.00  0.00    -0.666 C  
HETATM   35  C   UNL     1     -12.784  13.047  64.766  1.00  0.00    -0.409 C  
HETATM   36  C   UNL     1     -11.664  14.046  65.047  1.00  0.00    -0.366 C  
ENDBRANCH  29  31
ENDBRANCH  27  29
ENDBRANCH  25  27
ENDBRANCH  22  25
ENDBRANCH  19  22
ENDBRANCH  15  16
ENDBRANCH  14  15
ENDBRANCH  13  14
ENDBRANCH   4  10
ENDBRANCH   2   3
TORSDOF 10
ENDMDL
MODEL      101
REMARK 921   NORMALIZED FREE ENERGY PREDICTED BY IDOCK:   -5.56 KCAL/MOL
REMARK 922        TOTAL FREE ENERGY PREDICTED BY IDOCK:  -10.78 KCAL/MOL
REMARK 923 INTER-LIGAND FREE ENERGY PREDICTED BY IDOCK:   -8.92 KCAL/MOL
REMARK 924 INTRA-LIGAND FREE ENERGY PREDICTED BY IDOCK:   -1.86 KCAL/MOL
REMARK 927      BINDING AFFINITY PREDICTED BY RF-SCORE:    0.00 PKD
ROOT
HETATM    1  C   UNL     1     -12.271  12.110  70.539  1.00  0.00    -0.304 C  
HETATM    2  O   UNL     1     -11.382  11.115  70.033  1.00  0.00    -0.279 OA 
ENDROOT
BRANCH   2   3
HETATM    3  C   UNL     1     -11.287   9.967  70.777  1.00  0.00    -0.360 A  
HETATM    4  C   UNL     1     -10.178   9.115  70.593  1.00  0.00    -0.306 A  
HETATM    5  C   UNL     1     -10.086   7.932  71.349  1.00  0.00    -0.212 A  
HETATM    6  C   UNL     1     -12.314   9.578  71.653  1.00  0.00    -0.480 A  
HETATM    7 CL   UNL     1     -11.004   6.104  73.108  1.00  0.00    -0.276 Cl 
HETATM    8  C   UNL     1     -12.230   8.383  72.366  1.00  0.00    -0.430 A  
HETATM    9  C   UNL     1     -11.112   7.572  72.220  1.00  0.00    -0.273 A  
BRANCH   4  10
HETATM   10  C   UNL     1      -9.083   9.446  69.621  1.00  0.00    -0.181 C  
HETATM   11  H   UNL     1      -7.855  10.122  71.168  1.00  0.00     0.000 HD 
HETATM   12  O   UNL     1      -9.228   9.304  68.414  1.00  0.00    -0.132 OA 
HETATM   13  N   UNL     1      -7.896   9.910  70.171  1.00  0.00    -0.180 N  
BRANCH  13  14
HETATM   14  C   UNL     1      -6.712  10.102  69.353  1.00  0.00    -0.065 C  
BRANCH  14  15
HETATM   15  C   UNL     1      -5.912  11.357  69.725  1.00  0.00    -0.112 C  
BRANCH  15  16
HETATM   16  C   UNL     1      -6.521  12.679  69.292  1.00  0.00    -0.106 A  
HETATM   17  C   UNL     1      -6.448  13.848  70.067  1.00  0.00    -0.054 A  
HETATM   18  C   UNL     1      -7.089  15.022  69.660  1.00  0.00    -0.193 A  
HETATM   19  C   UNL     1      -7.804  15.044  68.464  1.00  0.00    -0.137 A  
HETATM   20  C   UNL     1      -7.215  12.731  68.072  1.00  0.00    -0.115 A  
HETATM   21  C   UNL     1      -7.866  13.900  67.664  1.00  0.00    -0.187 A  
BRANCH  19  22
HETATM   22  S   UNL     1      -8.758  16.486  68.043  1.00  0.00    -0.192 S  
HETATM   23  O   UNL     1      -7.977  17.644  68.432  1.00  0.00    -0.252 OA 
HETATM   24  O   UNL     1     -10.109  16.318  68.526  1.00  0.00    -0.224 OA 
BRANCH  22  25
HETATM   25  N   UNL     1      -8.765  16.513  66.380  1.00  0.00    -0.294 N  
HETATM   26  H   UNL     1      -7.868  16.577  65.899  1.00  0.00     0.000 HD 
BRANCH  25  27
HETATM   27  C   UNL     1      -9.914  16.453  65.611  1.00  0.00    -0.238 C  
HETATM   28  O   UNL     1     -10.600  17.427  65.364  1.00  0.00    -0.638 OA 
BRANCH  27  29
HETATM   29  N   UNL     1     -10.204  15.189  65.176  1.00  0.00    -0.371 N  
HETATM   30  H   UNL     1      -9.563  14.704  64.549  1.00  0.00     0.000 HD 
BRANCH  29  31
HETATM   31  C   UNL     1     -11.432  14.537  65.612  1.00  0.00    -0.341 C  
HETATM   32  C   UNL     1     -12.383  14.281  64.438  1.00  0.00    -0.417 C  
HETATM   33  C   UNL     1     -11.925  13.130  63.546  1.00  0.00    -0.580 C  
HETATM   34  C   UNL     1     -11.684  11.861  64.355  1.00  0.00    -0.357 C  
HETATM   35  C   UNL     1     -10.695  12.097  65.492  1.00  0.00    -0.321 C  
HETATM   36  C   UNL     1     -11.132  13.252  66.390  1.00  0.00    -0.313 C  
ENDBRANCH  29  31
ENDBRANCH  27  29
ENDBRANCH  25  27
ENDBRANCH  22  25
ENDBRANCH  19  22
ENDBRANCH  15  16
ENDBRANCH  14  15
ENDBRANCH  13  14
ENDBRANCH   4  10
ENDBRANCH   2   3
TORSDOF 10
ENDMDL
MODEL      102
REMARK 921   NORMALIZED FREE ENERGY PREDICTED BY IDOCK:   -5.54 KCAL/MOL
REMARK 922        TOTAL FREE ENERGY PREDICTED BY IDOCK:  -10.74 KCAL/MOL
REMARK 923 INTER-LIGAND FREE ENERGY PREDICTED BY IDOCK:   -8.70 KCAL/MOL
REMARK 924 INTRA-LIGAND FREE ENERGY PREDICTED BY IDOCK:   -2.04 KCAL/MOL
REMARK 927      BINDING AFFINITY PREDICTED BY RF-SCORE:    0.00 PKD
ROOT
HETATM    1  C   UNL     1     -13.180  15.379  71.104  1.00  0.00    -0.513 C  
HETATM    2  O   UNL     1     -12.772  14.459  70.093  1.00  0.00    -0.334 OA 
ENDROOT
BRANCH   2   3
HETATM    3  C   UNL     1     -11.906  14.954  69.152  1.00  0.00    -0.307 A  
HETATM    4  C   UNL     1     -11.316  14.070  68.225  1.00  0.00    -0.317 A  
HETATM    5  C   UNL     1     -10.418  14.575  67.267  1.00  0.00    -0.266 A  
HETATM    6  C   UNL     1     -11.526  16.306  69.149  1.00  0.00    -0.257 A  
HETATM    7 CL   UNL     1      -8.937  16.519  66.124  1.00  0.00    -0.352 Cl 
HETATM    8  C   UNL     1     -10.605  16.787  68.220  1.00  0.00    -0.352 A  
HETATM    9  C   UNL     1     -10.065  15.923  67.277  1.00  0.00    -0.260 A  
BRANCH   4  10
HETATM   10  C   UNL     1     -11.631  12.602  68.224  1.00  0.00    -0.332 C  
HETATM   11  H   UNL     1     -10.569  12.330  70.000  1.00  0.00     0.000 HD 
HETATM   12  O   UNL     1     -12.257  12.077  67.312  1.00  0.00    -0.496 OA 
HETATM   13  N   UNL     1     -11.182  11.880  69.321  1.00  0.00    -0.251 N  
BRANCH  13  14
HETATM   14  C   UNL     1     -11.567  10.494  69.519  1.00  0.00    -0.260 C  
BRANCH  14  15
HETATM   15  C   UNL     1     -12.087  10.203  70.932  1.00  0.00    -0.453 C  
BRANCH  15  16
HETATM   16  C   UNL     1     -11.601   8.908  71.559  1.00  0.00    -0.388 A  
HETATM   17  C   UNL     1     -10.405   8.809  72.289  1.00  0.00    -0.320 A  
HETATM   18  C   UNL     1      -9.962   7.579  72.783  1.00  0.00    -0.280 A  
HETATM   19  C   UNL     1     -10.720   6.429  72.562  1.00  0.00    -0.227 A  
HETATM   20  C   UNL     1     -12.368   7.745  71.378  1.00  0.00    -0.346 A  
HETATM   21  C   UNL     1     -11.926   6.509  71.862  1.00  0.00    -0.389 A  
BRANCH  19  22
HETATM   22  S   UNL     1     -10.064   4.846  73.041  1.00  0.00    -0.171 S  
HETATM   23  O   UNL     1     -11.146   4.105  73.661  1.00  0.00    -0.251 OA 
HETATM   24  O   UNL     1      -8.816   5.042  73.743  1.00  0.00    -0.115 OA 
BRANCH  22  25
HETATM   25  N   UNL     1      -9.773   4.061  71.605  1.00  0.00    -0.163 N  
HETATM   26  H   UNL     1     -10.532   3.517  71.195  1.00  0.00     0.000 HD 
BRANCH  25  27
HETATM   27  C   UNL     1      -8.564   4.101  70.933  1.00  0.00    -0.076 C  
HETATM   28  O   UNL     1      -7.830   3.137  70.826  1.00  0.00    -0.046 OA 
BRANCH  27  29
HETATM   29  N   UNL     1      -8.275   5.336  70.420  1.00  0.00    -0.101 N  
HETATM   30  H   UNL     1      -8.106   6.123  71.048  1.00  0.00     0.000 HD 
BRANCH  29  31
HETATM   31  C   UNL     1      -8.210   5.526  68.978  1.00  0.00    -0.099 C  
HETATM   32  C   UNL     1      -9.445   4.954  68.276  1.00  0.00    -0.182 C  
HETATM   33  C   UNL     1     -10.690   5.817  68.471  1.00  0.00    -0.288 C  
HETATM   34  C   UNL     1     -10.433   7.262  68.060  1.00  0.00    -0.249 C  
HETATM   35  C   UNL     1      -9.237   7.854  68.797  1.00  0.00    -0.143 C  
HETATM   36  C   UNL     1      -7.985   6.998  68.621  1.00  0.00    -0.120 C  
ENDBRANCH  29  31
ENDBRANCH  27  29
ENDBRANCH  25  27
ENDBRANCH  22  25
ENDBRANCH  19  22
ENDBRANCH  15  16
ENDBRANCH  14  15
ENDBRANCH  13  14
ENDBRANCH   4  10
ENDBRANCH   2   3
TORSDOF 10
ENDMDL
MODEL      103
REMARK 921   NORMALIZED FREE ENERGY PREDICTED BY IDOCK:   -5.53 KCAL/MOL
REMARK 922        TOTAL FREE ENERGY PREDICTED BY IDOCK:  -10.73 KCAL/MOL
REMARK 923 INTER-LIGAND FREE ENERGY PREDICTED BY IDOCK:   -9.82 KCAL/MOL
REMARK 924 INTRA-LIGAND FREE ENERGY PREDICTED BY IDOCK:   -0.91 KCAL/MOL
REMARK 927      BINDING AFFINITY PREDICTED BY RF-SCORE:    0.00 PKD
ROOT
HETATM    1  C   UNL     1      -7.772  12.545  67.438  1.00  0.00    -0.167 C  
HETATM    2  O   UNL     1      -9.057  13.161  67.509  1.00  0.00    -0.186 OA 
ENDROOT
BRANCH   2   3
HETATM    3  C   UNL     1      -9.913  12.875  66.477  1.00  0.00    -0.259 A  
HETATM    4  C   UNL     1     -11.210  13.431  66.482  1.00  0.00    -0.327 A  
HETATM    5  C   UNL     1     -12.092  13.128  65.430  1.00  0.00    -0.478 A  
HETATM    6  C   UNL     1      -9.558  11.971  65.464  1.00  0.00    -0.174 A  
HETATM    7 CL   UNL     1     -12.817  11.846  63.168  1.00  0.00    -0.446 Cl 
HETATM    8  C   UNL     1     -10.456  11.647  64.447  1.00  0.00    -0.374 A  
HETATM    9  C   UNL     1     -11.713  12.236  64.428  1.00  0.00    -0.365 A  
BRANCH   4  10
HETATM   10  C   UNL     1     -11.669  14.349  67.576  1.00  0.00    -0.387 C  
HETATM   11  H   UNL     1     -12.544  12.756  68.604  1.00  0.00     0.000 HD 
HETATM   12  O   UNL     1     -11.483  15.558  67.525  1.00  0.00    -0.297 OA 
HETATM   13  N   UNL     1     -12.308  13.748  68.652  1.00  0.00    -0.149 N  
BRANCH  13  14
HETATM   14  C   UNL     1     -12.646  14.503  69.845  1.00  0.00    -0.180 C  
BRANCH  14  15
HETATM   15  C   UNL     1     -12.253  13.793  71.147  1.00  0.00    -0.362 C  
BRANCH  15  16
HETATM   16  C   UNL     1     -12.442  12.286  71.159  1.00  0.00    -0.328 A  
HETATM   17  C   UNL     1     -13.341  11.632  72.018  1.00  0.00    -0.405 A  
HETATM   18  C   UNL     1     -13.425  10.237  72.044  1.00  0.00    -0.385 A  
HETATM   19  C   UNL     1     -12.617   9.477  71.200  1.00  0.00    -0.301 A  
HETATM   20  C   UNL     1     -11.662  11.505  70.291  1.00  0.00    -0.379 A  
HETATM   21  C   UNL     1     -11.735  10.108  70.319  1.00  0.00    -0.361 A  
BRANCH  19  22
HETATM   22  S   UNL     1     -12.605   7.705  71.364  1.00  0.00    -0.312 S  
HETATM   23  O   UNL     1     -11.726   7.186  70.334  1.00  0.00    -0.289 OA 
HETATM   24  O   UNL     1     -13.965   7.229  71.474  1.00  0.00    -0.404 OA 
BRANCH  22  25
HETATM   25  N   UNL     1     -11.804   7.422  72.793  1.00  0.00    -0.565 N  
HETATM   26  H   UNL     1     -12.358   7.347  73.646  1.00  0.00     0.000 HD 
BRANCH  25  27
HETATM   27  C   UNL     1     -10.430   7.283  72.895  1.00  0.00    -0.282 C  
HETATM   28  O   UNL     1      -9.713   8.120  73.412  1.00  0.00    -0.248 OA 
BRANCH  27  29
HETATM   29  N   UNL     1      -9.965   6.122  72.341  1.00  0.00    -0.169 N  
HETATM   30  H   UNL     1     -10.082   5.950  71.342  1.00  0.00     0.000 HD 
BRANCH  29  31
HETATM   31  C   UNL     1      -9.302   5.133  73.179  1.00  0.00    -0.131 C  
HETATM   32  C   UNL     1     -10.265   4.524  74.204  1.00  0.00    -0.264 C  
HETATM   33  C   UNL     1     -11.248   3.538  73.579  1.00  0.00    -0.279 C  
HETATM   34  C   UNL     1     -10.522   2.458  72.785  1.00  0.00    -0.232 C  
HETATM   35  C   UNL     1      -9.604   3.058  71.727  1.00  0.00    -0.224 C  
HETATM   36  C   UNL     1      -8.619   4.055  72.332  1.00  0.00    -0.109 C  
ENDBRANCH  29  31
ENDBRANCH  27  29
ENDBRANCH  25  27
ENDBRANCH  22  25
ENDBRANCH  19  22
ENDBRANCH  15  16
ENDBRANCH  14  15
ENDBRANCH  13  14
ENDBRANCH   4  10
ENDBRANCH   2   3
TORSDOF 10
ENDMDL
MODEL      104
REMARK 921   NORMALIZED FREE ENERGY PREDICTED BY IDOCK:   -5.50 KCAL/MOL
REMARK 922        TOTAL FREE ENERGY PREDICTED BY IDOCK:  -10.69 KCAL/MOL
REMARK 923 INTER-LIGAND FREE ENERGY PREDICTED BY IDOCK:   -8.73 KCAL/MOL
REMARK 924 INTRA-LIGAND FREE ENERGY PREDICTED BY IDOCK:   -1.97 KCAL/MOL
REMARK 927      BINDING AFFINITY PREDICTED BY RF-SCORE:    0.00 PKD
ROOT
HETATM    1  C   UNL     1      -8.116  12.612  68.329  1.00  0.00    -0.161 C  
HETATM    2  O   UNL     1      -9.258  11.758  68.314  1.00  0.00    -0.180 OA 
ENDROOT
BRANCH   2   3
HETATM    3  C   UNL     1     -10.050  11.842  67.198  1.00  0.00    -0.203 A  
HETATM    4  C   UNL     1      -9.770  11.015  66.089  1.00  0.00    -0.257 A  
HETATM    5  C   UNL     1     -10.575  11.109  64.940  1.00  0.00    -0.356 A  
HETATM    6  C   UNL     1     -11.077  12.794  67.101  1.00  0.00    -0.315 A  
HETATM    7 CL   UNL     1     -12.547  12.185  63.445  1.00  0.00    -0.661 Cl 
HETATM    8  C   UNL     1     -11.843  12.906  65.941  1.00  0.00    -0.476 A  
HETATM    9  C   UNL     1     -11.596  12.056  64.871  1.00  0.00    -0.273 A  
BRANCH   4  10
HETATM   10  C   UNL     1      -8.642  10.026  66.109  1.00  0.00    -0.133 C  
HETATM   11  H   UNL     1      -9.828   8.629  67.108  1.00  0.00     0.000 HD 
HETATM   12  O   UNL     1      -7.534  10.301  65.666  1.00  0.00    -0.137 OA 
HETATM   13  N   UNL     1      -8.930   8.779  66.648  1.00  0.00    -0.133 N  
BRANCH  13  14
HETATM   14  C   UNL     1      -7.978   7.686  66.571  1.00  0.00    -0.106 C  
BRANCH  14  15
HETATM   15  C   UNL     1      -8.591   6.320  66.901  1.00  0.00    -0.113 C  
BRANCH  15  16
HETATM   16  C   UNL     1      -8.871   6.061  68.371  1.00  0.00    -0.112 A  
HETATM   17  C   UNL     1      -7.929   6.296  69.386  1.00  0.00    -0.109 A  
HETATM   18  C   UNL     1      -8.207   5.971  70.716  1.00  0.00    -0.125 A  
HETATM   19  C   UNL     1      -9.442   5.417  71.052  1.00  0.00    -0.160 A  
HETATM   20  C   UNL     1     -10.122   5.535  68.733  1.00  0.00    -0.256 A  
HETATM   21  C   UNL     1     -10.404   5.200  70.062  1.00  0.00    -0.347 A  
BRANCH  19  22
HETATM   22  S   UNL     1      -9.720   4.847  72.714  1.00  0.00    -0.146 S  
HETATM   23  O   UNL     1      -8.465   4.982  73.428  1.00  0.00    -0.109 OA 
HETATM   24  O   UNL     1     -10.405   3.575  72.671  1.00  0.00    -0.166 OA 
BRANCH  22  25
HETATM   25  N   UNL     1     -10.722   5.991  73.386  1.00  0.00    -0.281 N  
HETATM   26  H   UNL     1     -11.557   5.669  73.874  1.00  0.00     0.000 HD 
BRANCH  25  27
HETATM   27  C   UNL     1     -10.490   7.354  73.324  1.00  0.00    -0.374 C  
HETATM   28  O   UNL     1      -9.396   7.852  73.515  1.00  0.00    -0.275 OA 
BRANCH  27  29
HETATM   29  N   UNL     1     -11.616   8.078  73.044  1.00  0.00    -0.504 N  
HETATM   30  H   UNL     1     -12.032   8.673  73.761  1.00  0.00     0.000 HD 
BRANCH  29  31
HETATM   31  C   UNL     1     -12.220   7.999  71.721  1.00  0.00    -0.316 C  
HETATM   32  C   UNL     1     -13.591   8.682  71.683  1.00  0.00    -0.408 C  
HETATM   33  C   UNL     1     -13.493  10.205  71.698  1.00  0.00    -0.376 C  
HETATM   34  C   UNL     1     -12.585  10.715  70.585  1.00  0.00    -0.454 C  
HETATM   35  C   UNL     1     -11.201  10.078  70.651  1.00  0.00    -0.425 C  
HETATM   36  C   UNL     1     -11.279   8.553  70.647  1.00  0.00    -0.278 C  
ENDBRANCH  29  31
ENDBRANCH  27  29
ENDBRANCH  25  27
ENDBRANCH  22  25
ENDBRANCH  19  22
ENDBRANCH  15  16
ENDBRANCH  14  15
ENDBRANCH  13  14
ENDBRANCH   4  10
ENDBRANCH   2   3
TORSDOF 10
ENDMDL
MODEL      105
REMARK 921   NORMALIZED FREE ENERGY PREDICTED BY IDOCK:   -5.50 KCAL/MOL
REMARK 922        TOTAL FREE ENERGY PREDICTED BY IDOCK:  -10.69 KCAL/MOL
REMARK 923 INTER-LIGAND FREE ENERGY PREDICTED BY IDOCK:   -9.68 KCAL/MOL
REMARK 924 INTRA-LIGAND FREE ENERGY PREDICTED BY IDOCK:   -1.00 KCAL/MOL
REMARK 927      BINDING AFFINITY PREDICTED BY RF-SCORE:    0.00 PKD
ROOT
HETATM    1  C   UNL     1      -9.423   9.038  68.724  1.00  0.00    -0.148 C  
HETATM    2  O   UNL     1      -9.522   8.688  70.104  1.00  0.00    -0.158 OA 
ENDROOT
BRANCH   2   3
HETATM    3  C   UNL     1      -9.450   7.349  70.385  1.00  0.00    -0.165 A  
HETATM    4  C   UNL     1     -10.415   6.770  71.238  1.00  0.00    -0.237 A  
HETATM    5  C   UNL     1     -10.335   5.398  71.535  1.00  0.00    -0.289 A  
HETATM    6  C   UNL     1      -8.389   6.559  69.915  1.00  0.00    -0.131 A  
HETATM    7 CL   UNL     1      -9.173   2.964  71.453  1.00  0.00    -0.178 Cl 
HETATM    8  C   UNL     1      -8.299   5.209  70.250  1.00  0.00    -0.097 A  
HETATM    9  C   UNL     1      -9.278   4.632  71.048  1.00  0.00    -0.138 A  
BRANCH   4  10
HETATM   10  C   UNL     1     -11.534   7.580  71.825  1.00  0.00    -0.260 C  
HETATM   11  H   UNL     1     -12.376   7.864  69.937  1.00  0.00     0.000 HD 
HETATM   12  O   UNL     1     -11.583   7.841  73.020  1.00  0.00    -0.330 OA 
HETATM   13  N   UNL     1     -12.513   8.005  70.938  1.00  0.00    -0.100 N  
BRANCH  13  14
HETATM   14  C   UNL     1     -13.727   8.647  71.407  1.00  0.00    -0.248 C  
BRANCH  14  15
HETATM   15  C   UNL     1     -13.466   9.858  72.311  1.00  0.00    -0.397 C  
BRANCH  15  16
HETATM   16  C   UNL     1     -13.011  11.123  71.604  1.00  0.00    -0.548 A  
HETATM   17  C   UNL     1     -12.196  11.112  70.460  1.00  0.00    -0.475 A  
HETATM   18  C   UNL     1     -11.742  12.305  69.888  1.00  0.00    -0.346 A  
HETATM   19  C   UNL     1     -12.109  13.527  70.449  1.00  0.00    -0.345 A  
HETATM   20  C   UNL     1     -13.400  12.365  72.133  1.00  0.00    -0.508 A  
HETATM   21  C   UNL     1     -12.942  13.561  71.571  1.00  0.00    -0.440 A  
BRANCH  19  22
HETATM   22  S   UNL     1     -11.387  15.027  69.822  1.00  0.00    -0.302 S  
HETATM   23  O   UNL     1     -11.173  15.906  70.957  1.00  0.00    -0.349 OA 
HETATM   24  O   UNL     1     -12.149  15.480  68.681  1.00  0.00    -0.271 OA 
BRANCH  22  25
HETATM   25  N   UNL     1      -9.863  14.584  69.329  1.00  0.00    -0.416 N  
HETATM   26  H   UNL     1      -9.197  14.285  70.042  1.00  0.00     0.000 HD 
BRANCH  25  27
HETATM   27  C   UNL     1      -9.442  14.597  68.011  1.00  0.00    -0.207 C  
HETATM   28  O   UNL     1      -8.517  15.281  67.614  1.00  0.00    -0.149 OA 
BRANCH  27  29
HETATM   29  N   UNL     1     -10.183  13.779  67.203  1.00  0.00    -0.242 N  
HETATM   30  H   UNL     1     -10.747  13.033  67.610  1.00  0.00     0.000 HD 
BRANCH  29  31
HETATM   31  C   UNL     1     -10.165  13.975  65.759  1.00  0.00    -0.328 C  
HETATM   32  C   UNL     1      -9.951  12.655  65.012  1.00  0.00    -0.179 C  
HETATM   33  C   UNL     1     -11.192  11.766  65.014  1.00  0.00    -0.318 C  
HETATM   34  C   UNL     1     -12.412  12.513  64.488  1.00  0.00    -0.539 C  
HETATM   35  C   UNL     1     -12.661  13.802  65.265  1.00  0.00    -0.481 C  
HETATM   36  C   UNL     1     -11.427  14.700  65.282  1.00  0.00    -0.361 C  
ENDBRANCH  29  31
ENDBRANCH  27  29
ENDBRANCH  25  27
ENDBRANCH  22  25
ENDBRANCH  19  22
ENDBRANCH  15  16
ENDBRANCH  14  15
ENDBRANCH  13  14
ENDBRANCH   4  10
ENDBRANCH   2   3
TORSDOF 10
ENDMDL
MODEL      106
REMARK 921   NORMALIZED FREE ENERGY PREDICTED BY IDOCK:   -5.50 KCAL/MOL
REMARK 922        TOTAL FREE ENERGY PREDICTED BY IDOCK:  -10.68 KCAL/MOL
REMARK 923 INTER-LIGAND FREE ENERGY PREDICTED BY IDOCK:   -9.04 KCAL/MOL
REMARK 924 INTRA-LIGAND FREE ENERGY PREDICTED BY IDOCK:   -1.65 KCAL/MOL
REMARK 927      BINDING AFFINITY PREDICTED BY RF-SCORE:    0.00 PKD
ROOT
HETATM    1  C   UNL     1      -6.948   7.685  68.361  1.00  0.00    -0.072 C  
HETATM    2  O   UNL     1      -8.023   7.356  67.482  1.00  0.00    -0.110 OA 
ENDROOT
BRANCH   2   3
HETATM    3  C   UNL     1      -8.679   8.420  66.919  1.00  0.00    -0.130 A  
HETATM    4  C   UNL     1      -9.883   8.873  67.499  1.00  0.00    -0.237 A  
HETATM    5  C   UNL     1     -10.563   9.957  66.915  1.00  0.00    -0.248 A  
HETATM    6  C   UNL     1      -8.226   9.010  65.729  1.00  0.00    -0.120 A  
HETATM    7 CL   UNL     1     -10.951  11.834  65.016  1.00  0.00    -0.359 Cl 
HETATM    8  C   UNL     1      -8.931  10.059  65.137  1.00  0.00    -0.227 A  
HETATM    9  C   UNL     1     -10.088  10.534  65.739  1.00  0.00    -0.265 A  
BRANCH   4  10
HETATM   10  C   UNL     1     -10.452   8.235  68.733  1.00  0.00    -0.177 C  
HETATM   11  H   UNL     1      -9.648   9.743  69.933  1.00  0.00     0.000 HD 
HETATM   12  O   UNL     1     -11.060   7.174  68.690  1.00  0.00    -0.086 OA 
HETATM   13  N   UNL     1     -10.256   8.924  69.923  1.00  0.00    -0.194 N  
BRANCH  13  14
HETATM   14  C   UNL     1     -10.900   8.500  71.153  1.00  0.00    -0.243 C  
BRANCH  14  15
HETATM   15  C   UNL     1     -12.301   9.094  71.343  1.00  0.00    -0.404 C  
BRANCH  15  16
HETATM   16  C   UNL     1     -12.411  10.597  71.151  1.00  0.00    -0.523 A  
HETATM   17  C   UNL     1     -11.755  11.290  70.121  1.00  0.00    -0.429 A  
HETATM   18  C   UNL     1     -11.827  12.683  70.030  1.00  0.00    -0.358 A  
HETATM   19  C   UNL     1     -12.568  13.402  70.967  1.00  0.00    -0.343 A  
HETATM   20  C   UNL     1     -13.183  11.335  72.064  1.00  0.00    -0.437 A  
HETATM   21  C   UNL     1     -13.251  12.730  71.984  1.00  0.00    -0.538 A  
BRANCH  19  22
HETATM   22  S   UNL     1     -12.511  15.180  70.947  1.00  0.00    -0.402 S  
HETATM   23  O   UNL     1     -11.343  15.579  71.709  1.00  0.00    -0.404 OA 
HETATM   24  O   UNL     1     -13.816  15.701  71.283  1.00  0.00    -0.573 OA 
BRANCH  22  25
HETATM   25  N   UNL     1     -12.149  15.570  69.372  1.00  0.00    -0.518 N  
HETATM   26  H   UNL     1     -12.791  15.262  68.642  1.00  0.00     0.000 HD 
BRANCH  25  27
HETATM   27  C   UNL     1     -11.028  16.287  68.991  1.00  0.00    -0.325 C  
HETATM   28  O   UNL     1     -11.070  17.454  68.647  1.00  0.00    -0.133 OA 
BRANCH  27  29
HETATM   29  N   UNL     1      -9.879  15.546  69.025  1.00  0.00    -0.220 N  
HETATM   30  H   UNL     1      -9.282  15.566  69.852  1.00  0.00     0.000 HD 
BRANCH  29  31
HETATM   31  C   UNL     1      -9.509  14.728  67.877  1.00  0.00    -0.201 C  
HETATM   32  C   UNL     1      -9.002  15.584  66.713  1.00  0.00    -0.295 C  
HETATM   33  C   UNL     1      -7.597  16.132  66.948  1.00  0.00    -0.275 C  
HETATM   34  C   UNL     1      -6.616  15.016  67.289  1.00  0.00     0.081 C  
HETATM   35  C   UNL     1      -7.089  14.194  68.483  1.00  0.00    -0.103 C  
HETATM   36  C   UNL     1      -8.499  13.646  68.269  1.00  0.00    -0.170 C  
ENDBRANCH  29  31
ENDBRANCH  27  29
ENDBRANCH  25  27
ENDBRANCH  22  25
ENDBRANCH  19  22
ENDBRANCH  15  16
ENDBRANCH  14  15
ENDBRANCH  13  14
ENDBRANCH   4  10
ENDBRANCH   2   3
TORSDOF 10
ENDMDL
MODEL      107
REMARK 921   NORMALIZED FREE ENERGY PREDICTED BY IDOCK:   -5.46 KCAL/MOL
REMARK 922        TOTAL FREE ENERGY PREDICTED BY IDOCK:  -10.62 KCAL/MOL
REMARK 923 INTER-LIGAND FREE ENERGY PREDICTED BY IDOCK:   -8.40 KCAL/MOL
REMARK 924 INTRA-LIGAND FREE ENERGY PREDICTED BY IDOCK:   -2.22 KCAL/MOL
REMARK 927      BINDING AFFINITY PREDICTED BY RF-SCORE:    0.00 PKD
ROOT
HETATM    1  C   UNL     1     -10.248  16.419  65.802  1.00  0.00    -0.348 C  
HETATM    2  O   UNL     1     -11.123  15.292  65.850  1.00  0.00    -0.334 OA 
ENDROOT
BRANCH   2   3
HETATM    3  C   UNL     1     -11.425  14.825  67.102  1.00  0.00    -0.364 A  
HETATM    4  C   UNL     1     -11.706  13.454  67.278  1.00  0.00    -0.424 A  
HETATM    5  C   UNL     1     -12.028  12.976  68.562  1.00  0.00    -0.296 A  
HETATM    6  C   UNL     1     -11.549  15.697  68.196  1.00  0.00    -0.290 A  
HETATM    7 CL   UNL     1     -12.566  13.266  71.190  1.00  0.00    -0.444 Cl 
HETATM    8  C   UNL     1     -11.908  15.217  69.456  1.00  0.00    -0.368 A  
HETATM    9  C   UNL     1     -12.134  13.859  69.635  1.00  0.00    -0.349 A  
BRANCH   4  10
HETATM   10  C   UNL     1     -11.657  12.486  66.132  1.00  0.00    -0.395 C  
HETATM   11  H   UNL     1      -9.690  11.967  66.600  1.00  0.00     0.000 HD 
HETATM   12  O   UNL     1     -12.597  12.353  65.359  1.00  0.00    -0.637 OA 
HETATM   13  N   UNL     1     -10.490  11.745  66.006  1.00  0.00    -0.238 N  
BRANCH  13  14
HETATM   14  C   UNL     1     -10.385  10.661  65.046  1.00  0.00    -0.271 C  
BRANCH  14  15
HETATM   15  C   UNL     1      -9.516   9.496  65.536  1.00  0.00    -0.334 C  
BRANCH  15  16
HETATM   16  C   UNL     1     -10.000   8.796  66.794  1.00  0.00    -0.338 A  
HETATM   17  C   UNL     1     -10.251   9.470  68.000  1.00  0.00    -0.244 A  
HETATM   18  C   UNL     1     -10.624   8.772  69.152  1.00  0.00    -0.200 A  
HETATM   19  C   UNL     1     -10.762   7.385  69.108  1.00  0.00    -0.166 A  
HETATM   20  C   UNL     1     -10.180   7.403  66.760  1.00  0.00    -0.313 A  
HETATM   21  C   UNL     1     -10.544   6.697  67.911  1.00  0.00    -0.305 A  
BRANCH  19  22
HETATM   22  S   UNL     1     -11.064   6.489  70.615  1.00  0.00    -0.333 S  
HETATM   23  O   UNL     1     -10.724   5.102  70.364  1.00  0.00    -0.214 OA 
HETATM   24  O   UNL     1     -12.370   6.842  71.123  1.00  0.00    -0.371 OA 
BRANCH  22  25
HETATM   25  N   UNL     1      -9.897   7.033  71.667  1.00  0.00    -0.164 N  
HETATM   26  H   UNL     1     -10.100   7.867  72.218  1.00  0.00     0.000 HD 
BRANCH  25  27
HETATM   27  C   UNL     1      -8.666   6.423  71.838  1.00  0.00    -0.134 C  
HETATM   28  O   UNL     1      -8.118   6.324  72.920  1.00  0.00    -0.108 OA 
BRANCH  27  29
HETATM   29  N   UNL     1      -8.127   5.963  70.669  1.00  0.00    -0.116 N  
HETATM   30  H   UNL     1      -8.705   5.442  70.009  1.00  0.00     0.000 HD 
BRANCH  29  31
HETATM   31  C   UNL     1      -6.725   6.218  70.367  1.00  0.00    -0.053 C  
HETATM   32  C   UNL     1      -6.283   5.501  69.087  1.00  0.00    -0.029 C  
HETATM   33  C   UNL     1      -6.819   6.164  67.821  1.00  0.00    -0.063 C  
HETATM   34  C   UNL     1      -6.467   7.647  67.779  1.00  0.00    -0.055 C  
HETATM   35  C   UNL     1      -6.953   8.377  69.027  1.00  0.00    -0.061 C  
HETATM   36  C   UNL     1      -6.435   7.721  70.304  1.00  0.00    -0.037 C  
ENDBRANCH  29  31
ENDBRANCH  27  29
ENDBRANCH  25  27
ENDBRANCH  22  25
ENDBRANCH  19  22
ENDBRANCH  15  16
ENDBRANCH  14  15
ENDBRANCH  13  14
ENDBRANCH   4  10
ENDBRANCH   2   3
TORSDOF 10
ENDMDL
MODEL      108
REMARK 921   NORMALIZED FREE ENERGY PREDICTED BY IDOCK:   -5.46 KCAL/MOL
REMARK 922        TOTAL FREE ENERGY PREDICTED BY IDOCK:  -10.62 KCAL/MOL
REMARK 923 INTER-LIGAND FREE ENERGY PREDICTED BY IDOCK:   -8.58 KCAL/MOL
REMARK 924 INTRA-LIGAND FREE ENERGY PREDICTED BY IDOCK:   -2.03 KCAL/MOL
REMARK 927      BINDING AFFINITY PREDICTED BY RF-SCORE:    0.00 PKD
ROOT
HETATM    1  C   UNL     1     -12.783  12.977  65.126  1.00  0.00    -0.397 C  
HETATM    2  O   UNL     1     -12.146  13.323  66.355  1.00  0.00    -0.403 OA 
ENDROOT
BRANCH   2   3
HETATM    3  C   UNL     1     -11.122  14.229  66.261  1.00  0.00    -0.323 A  
HETATM    4  C   UNL     1      -9.801  13.807  66.523  1.00  0.00    -0.294 A  
HETATM    5  C   UNL     1      -8.751  14.738  66.437  1.00  0.00    -0.062 A  
HETATM    6  C   UNL     1     -11.369  15.586  65.997  1.00  0.00    -0.018 A  
HETATM    7 CL   UNL     1      -7.729  17.213  66.099  1.00  0.00    -0.339 Cl 
HETATM    8  C   UNL     1     -10.323  16.508  65.954  1.00  0.00    -0.365 A  
HETATM    9  C   UNL     1      -9.020  16.078  66.163  1.00  0.00    -0.345 A  
BRANCH   4  10
HETATM   10  C   UNL     1      -9.485  12.383  66.877  1.00  0.00    -0.219 C  
HETATM   11  H   UNL     1      -9.545  11.824  64.866  1.00  0.00     0.000 HD 
HETATM   12  O   UNL     1      -9.365  12.018  68.040  1.00  0.00    -0.182 OA 
HETATM   13  N   UNL     1      -9.326  11.508  65.811  1.00  0.00    -0.229 N  
BRANCH  13  14
HETATM   14  C   UNL     1      -8.854  10.150  66.015  1.00  0.00    -0.143 C  
BRANCH  14  15
HETATM   15  C   UNL     1      -9.975   9.104  65.982  1.00  0.00    -0.293 C  
BRANCH  15  16
HETATM   16  C   UNL     1      -9.821   7.943  66.948  1.00  0.00    -0.309 A  
HETATM   17  C   UNL     1     -10.708   6.855  66.989  1.00  0.00    -0.432 A  
HETATM   18  C   UNL     1     -10.567   5.846  67.947  1.00  0.00    -0.322 A  
HETATM   19  C   UNL     1      -9.526   5.908  68.872  1.00  0.00    -0.126 A  
HETATM   20  C   UNL     1      -8.757   7.969  67.865  1.00  0.00    -0.128 A  
HETATM   21  C   UNL     1      -8.616   6.968  68.832  1.00  0.00    -0.128 A  
BRANCH  19  22
HETATM   22  S   UNL     1      -9.459   4.717  70.192  1.00  0.00    -0.195 S  
HETATM   23  O   UNL     1      -8.391   5.128  71.084  1.00  0.00    -0.116 OA 
HETATM   24  O   UNL     1      -9.472   3.386  69.631  1.00  0.00    -0.165 OA 
BRANCH  22  25
HETATM   25  N   UNL     1     -10.858   4.968  71.054  1.00  0.00     0.011 N  
HETATM   26  H   UNL     1     -11.718   4.546  70.704  1.00  0.00     0.000 HD 
BRANCH  25  27
HETATM   27  C   UNL     1     -10.926   5.714  72.218  1.00  0.00    -0.258 C  
HETATM   28  O   UNL     1     -10.939   5.216  73.328  1.00  0.00    -0.263 OA 
BRANCH  27  29
HETATM   29  N   UNL     1     -10.994   7.061  71.989  1.00  0.00    -0.227 N  
HETATM   30  H   UNL     1     -10.393   7.700  72.510  1.00  0.00     0.000 HD 
BRANCH  29  31
HETATM   31  C   UNL     1     -11.928   7.582  70.999  1.00  0.00    -0.290 C  
HETATM   32  C   UNL     1     -13.311   7.836  71.606  1.00  0.00    -0.386 C  
HETATM   33  C   UNL     1     -13.349   9.076  72.495  1.00  0.00    -0.480 C  
HETATM   34  C   UNL     1     -12.829  10.305  71.758  1.00  0.00    -0.565 C  
HETATM   35  C   UNL     1     -11.429  10.076  71.199  1.00  0.00    -0.432 C  
HETATM   36  C   UNL     1     -11.370   8.833  70.314  1.00  0.00    -0.162 C  
ENDBRANCH  29  31
ENDBRANCH  27  29
ENDBRANCH  25  27
ENDBRANCH  22  25
ENDBRANCH  19  22
ENDBRANCH  15  16
ENDBRANCH  14  15
ENDBRANCH  13  14
ENDBRANCH   4  10
ENDBRANCH   2   3
TORSDOF 10
ENDMDL
MODEL      109
REMARK 921   NORMALIZED FREE ENERGY PREDICTED BY IDOCK:   -5.43 KCAL/MOL
REMARK 922        TOTAL FREE ENERGY PREDICTED BY IDOCK:  -10.57 KCAL/MOL
REMARK 923 INTER-LIGAND FREE ENERGY PREDICTED BY IDOCK:   -8.27 KCAL/MOL
REMARK 924 INTRA-LIGAND FREE ENERGY PREDICTED BY IDOCK:   -2.30 KCAL/MOL
REMARK 927      BINDING AFFINITY PREDICTED BY RF-SCORE:    0.00 PKD
ROOT
HETATM    1  C   UNL     1     -12.924   9.200  71.550  1.00  0.00    -0.346 C  
HETATM    2  O   UNL     1     -12.342  10.137  70.644  1.00  0.00    -0.293 OA 
ENDROOT
BRANCH   2   3
HETATM    3  C   UNL     1     -12.632  11.455  70.882  1.00  0.00    -0.356 A  
HETATM    4  C   UNL     1     -12.209  12.433  69.956  1.00  0.00    -0.264 A  
HETATM    5  C   UNL     1     -12.496  13.787  70.206  1.00  0.00    -0.357 A  
HETATM    6  C   UNL     1     -13.262  11.861  72.069  1.00  0.00    -0.461 A  
HETATM    7 CL   UNL     1     -13.443  15.828  71.696  1.00  0.00    -0.492 Cl 
HETATM    8  C   UNL     1     -13.506  13.210  72.324  1.00  0.00    -0.665 A  
HETATM    9  C   UNL     1     -13.132  14.165  71.387  1.00  0.00    -0.358 A  
BRANCH   4  10
HETATM   10  C   UNL     1     -11.470  12.064  68.703  1.00  0.00    -0.297 C  
HETATM   11  H   UNL     1      -9.847  13.254  69.259  1.00  0.00     0.000 HD 
HETATM   12  O   UNL     1     -11.971  11.349  67.845  1.00  0.00    -0.626 OA 
HETATM   13  N   UNL     1     -10.184  12.573  68.579  1.00  0.00    -0.225 N  
BRANCH  13  14
HETATM   14  C   UNL     1      -9.309  12.153  67.499  1.00  0.00    -0.181 C  
BRANCH  14  15
HETATM   15  C   UNL     1      -8.258  11.124  67.931  1.00  0.00    -0.121 C  
BRANCH  15  16
HETATM   16  C   UNL     1      -8.479   9.707  67.431  1.00  0.00    -0.125 A  
HETATM   17  C   UNL     1      -9.641   9.304  66.752  1.00  0.00    -0.240 A  
HETATM   18  C   UNL     1      -9.830   7.971  66.377  1.00  0.00    -0.237 A  
HETATM   19  C   UNL     1      -8.851   7.022  66.669  1.00  0.00    -0.132 A  
HETATM   20  C   UNL     1      -7.488   8.743  67.684  1.00  0.00    -0.093 A  
HETATM   21  C   UNL     1      -7.676   7.406  67.320  1.00  0.00    -0.116 A  
BRANCH  19  22
HETATM   22  S   UNL     1      -9.178   5.303  66.346  1.00  0.00    -0.150 S  
HETATM   23  O   UNL     1      -8.469   4.955  65.129  1.00  0.00    -0.127 OA 
HETATM   24  O   UNL     1     -10.597   5.059  66.461  1.00  0.00    -0.291 OA 
BRANCH  22  25
HETATM   25  N   UNL     1      -8.377   4.490  67.555  1.00  0.00    -0.100 N  
HETATM   26  H   UNL     1      -7.375   4.336  67.446  1.00  0.00     0.000 HD 
BRANCH  25  27
HETATM   27  C   UNL     1      -8.989   4.012  68.701  1.00  0.00    -0.117 C  
HETATM   28  O   UNL     1      -9.598   2.959  68.740  1.00  0.00    -0.153 OA 
BRANCH  27  29
HETATM   29  N   UNL     1      -8.853   4.850  69.773  1.00  0.00    -0.095 N  
HETATM   30  H   UNL     1      -7.931   5.199  70.035  1.00  0.00     0.000 HD 
BRANCH  29  31
HETATM   31  C   UNL     1     -10.028   5.245  70.539  1.00  0.00    -0.229 C  
HETATM   32  C   UNL     1      -9.713   5.370  72.033  1.00  0.00    -0.198 C  
HETATM   33  C   UNL     1      -8.906   6.623  72.365  1.00  0.00    -0.134 C  
HETATM   34  C   UNL     1      -9.586   7.878  71.831  1.00  0.00    -0.226 C  
HETATM   35  C   UNL     1      -9.852   7.781  70.332  1.00  0.00    -0.183 C  
HETATM   36  C   UNL     1     -10.650   6.528  69.980  1.00  0.00    -0.280 C  
ENDBRANCH  29  31
ENDBRANCH  27  29
ENDBRANCH  25  27
ENDBRANCH  22  25
ENDBRANCH  19  22
ENDBRANCH  15  16
ENDBRANCH  14  15
ENDBRANCH  13  14
ENDBRANCH   4  10
ENDBRANCH   2   3
TORSDOF 10
ENDMDL
MODEL      110
REMARK 921   NORMALIZED FREE ENERGY PREDICTED BY IDOCK:   -5.42 KCAL/MOL
REMARK 922        TOTAL FREE ENERGY PREDICTED BY IDOCK:  -10.56 KCAL/MOL
REMARK 923 INTER-LIGAND FREE ENERGY PREDICTED BY IDOCK:   -9.32 KCAL/MOL
REMARK 924 INTRA-LIGAND FREE ENERGY PREDICTED BY IDOCK:   -1.24 KCAL/MOL
REMARK 927      BINDING AFFINITY PREDICTED BY RF-SCORE:    0.00 PKD
ROOT
HETATM    1  C   UNL     1      -9.199  10.300  68.544  1.00  0.00    -0.144 C  
HETATM    2  O   UNL     1      -9.165   8.984  69.094  1.00  0.00    -0.142 OA 
ENDROOT
BRANCH   2   3
HETATM    3  C   UNL     1      -8.399   8.828  70.220  1.00  0.00    -0.136 A  
HETATM    4  C   UNL     1      -8.985   8.292  71.385  1.00  0.00    -0.211 A  
HETATM    5  C   UNL     1      -8.202   8.143  72.544  1.00  0.00    -0.215 A  
HETATM    6  C   UNL     1      -7.068   9.273  70.263  1.00  0.00    -0.084 A  
HETATM    7 CL   UNL     1      -5.945   8.429  73.996  1.00  0.00    -0.113 Cl 
HETATM    8  C   UNL     1      -6.313   9.157  71.430  1.00  0.00    -0.077 A  
HETATM    9  C   UNL     1      -6.879   8.582  72.560  1.00  0.00    -0.055 A  
BRANCH   4  10
HETATM   10  C   UNL     1     -10.423   7.863  71.418  1.00  0.00    -0.206 C  
HETATM   11  H   UNL     1     -10.955   9.579  72.481  1.00  0.00     0.000 HD 
HETATM   12  O   UNL     1     -10.788   6.793  70.950  1.00  0.00    -0.234 OA 
HETATM   13  N   UNL     1     -11.314   8.753  72.002  1.00  0.00    -0.361 N  
BRANCH  13  14
HETATM   14  C   UNL     1     -12.747   8.531  71.944  1.00  0.00    -0.360 C  
BRANCH  14  15
HETATM   15  C   UNL     1     -13.571   9.778  72.288  1.00  0.00    -0.397 C  
BRANCH  15  16
HETATM   16  C   UNL     1     -13.140  11.063  71.602  1.00  0.00    -0.543 A  
HETATM   17  C   UNL     1     -12.363  11.085  70.432  1.00  0.00    -0.442 A  
HETATM   18  C   UNL     1     -11.929  12.293  69.879  1.00  0.00    -0.377 A  
HETATM   19  C   UNL     1     -12.277  13.499  70.485  1.00  0.00    -0.361 A  
HETATM   20  C   UNL     1     -13.512  12.289  72.177  1.00  0.00    -0.431 A  
HETATM   21  C   UNL     1     -13.073  13.501  71.634  1.00  0.00    -0.459 A  
BRANCH  19  22
HETATM   22  S   UNL     1     -11.577  15.017  69.877  1.00  0.00    -0.315 S  
HETATM   23  O   UNL     1     -11.804  16.029  70.891  1.00  0.00    -0.393 OA 
HETATM   24  O   UNL     1     -12.017  15.232  68.518  1.00  0.00    -0.310 OA 
BRANCH  22  25
HETATM   25  N   UNL     1      -9.935  14.756  69.892  1.00  0.00    -0.437 N  
HETATM   26  H   UNL     1      -9.514  14.406  70.752  1.00  0.00     0.000 HD 
BRANCH  25  27
HETATM   27  C   UNL     1      -9.106  14.986  68.808  1.00  0.00    -0.197 C  
HETATM   28  O   UNL     1      -8.736  14.105  68.054  1.00  0.00    -0.160 OA 
BRANCH  27  29
HETATM   29  N   UNL     1      -8.732  16.296  68.686  1.00  0.00    -0.215 N  
HETATM   30  H   UNL     1      -8.111  16.717  69.377  1.00  0.00     0.000 HD 
BRANCH  29  31
HETATM   31  C   UNL     1      -9.223  17.089  67.567  1.00  0.00    -0.231 C  
HETATM   32  C   UNL     1     -10.229  18.150  68.024  1.00  0.00    -0.392 C  
HETATM   33  C   UNL     1      -9.566  19.323  68.742  1.00  0.00    -0.485 C  
HETATM   34  C   UNL     1      -8.454  19.935  67.898  1.00  0.00    -0.332 C  
HETATM   35  C   UNL     1      -7.421  18.892  67.485  1.00  0.00    -0.244 C  
HETATM   36  C   UNL     1      -8.067  17.706  66.774  1.00  0.00    -0.264 C  
ENDBRANCH  29  31
ENDBRANCH  27  29
ENDBRANCH  25  27
ENDBRANCH  22  25
ENDBRANCH  19  22
ENDBRANCH  15  16
ENDBRANCH  14  15
ENDBRANCH  13  14
ENDBRANCH   4  10
ENDBRANCH   2   3
TORSDOF 10
ENDMDL
MODEL      111
REMARK 921   NORMALIZED FREE ENERGY PREDICTED BY IDOCK:   -5.39 KCAL/MOL
REMARK 922        TOTAL FREE ENERGY PREDICTED BY IDOCK:  -10.52 KCAL/MOL
REMARK 923 INTER-LIGAND FREE ENERGY PREDICTED BY IDOCK:   -9.72 KCAL/MOL
REMARK 924 INTRA-LIGAND FREE ENERGY PREDICTED BY IDOCK:   -0.80 KCAL/MOL
REMARK 927      BINDING AFFINITY PREDICTED BY RF-SCORE:    0.00 PKD
ROOT
HETATM    1  C   UNL     1      -7.093  10.620  68.853  1.00  0.00    -0.078 C  
HETATM    2  O   UNL     1      -7.836   9.420  68.641  1.00  0.00    -0.087 OA 
ENDROOT
BRANCH   2   3
HETATM    3  C   UNL     1      -8.825   9.163  69.555  1.00  0.00    -0.149 A  
HETATM    4  C   UNL     1     -10.167   9.102  69.121  1.00  0.00    -0.215 A  
HETATM    5  C   UNL     1     -11.183   8.849  70.061  1.00  0.00    -0.120 A  
HETATM    6  C   UNL     1      -8.541   9.046  70.925  1.00  0.00    -0.263 A  
HETATM    7 CL   UNL     1     -12.132   8.456  72.556  1.00  0.00    -0.447 Cl 
HETATM    8  C   UNL     1      -9.561   8.835  71.852  1.00  0.00    -0.372 A  
HETATM    9  C   UNL     1     -10.875   8.727  71.414  1.00  0.00    -0.289 A  
BRANCH   4  10
HETATM   10  C   UNL     1     -10.538   9.287  67.679  1.00  0.00    -0.261 C  
HETATM   11  H   UNL     1     -10.960  11.306  68.004  1.00  0.00     0.000 HD 
HETATM   12  O   UNL     1     -10.543   8.353  66.888  1.00  0.00    -0.305 OA 
HETATM   13  N   UNL     1     -10.866  10.580  67.293  1.00  0.00    -0.286 N  
BRANCH  13  14
HETATM   14  C   UNL     1     -11.077  10.919  65.897  1.00  0.00     0.107 C  
BRANCH  14  15
HETATM   15  C   UNL     1      -9.897  11.668  65.267  1.00  0.00    -0.279 C  
BRANCH  15  16
HETATM   16  C   UNL     1      -9.673  13.084  65.766  1.00  0.00    -0.157 A  
HETATM   17  C   UNL     1      -8.837  13.394  66.850  1.00  0.00    -0.185 A  
HETATM   18  C   UNL     1      -8.721  14.706  67.320  1.00  0.00    -0.224 A  
HETATM   19  C   UNL     1      -9.436  15.730  66.700  1.00  0.00    -0.257 A  
HETATM   20  C   UNL     1     -10.357  14.135  65.131  1.00  0.00    -0.429 A  
HETATM   21  C   UNL     1     -10.253  15.448  65.602  1.00  0.00    -0.403 A  
BRANCH  19  22
HETATM   22  S   UNL     1      -9.419  17.361  67.411  1.00  0.00    -0.250 S  
HETATM   23  O   UNL     1     -10.464  18.124  66.756  1.00  0.00    -0.365 OA 
HETATM   24  O   UNL     1      -8.061  17.854  67.436  1.00  0.00    -0.208 OA 
BRANCH  22  25
HETATM   25  N   UNL     1      -9.958  17.144  68.968  1.00  0.00    -0.289 N  
HETATM   26  H   UNL     1      -9.377  17.497  69.729  1.00  0.00     0.000 HD 
BRANCH  25  27
HETATM   27  C   UNL     1     -11.146  16.515  69.295  1.00  0.00    -0.260 C  
HETATM   28  O   UNL     1     -11.813  15.893  68.488  1.00  0.00    -0.366 OA 
BRANCH  27  29
HETATM   29  N   UNL     1     -11.499  16.679  70.606  1.00  0.00    -0.451 N  
HETATM   30  H   UNL     1     -11.855  17.578  70.930  1.00  0.00     0.000 HD 
BRANCH  29  31
HETATM   31  C   UNL     1     -11.365  15.568  71.538  1.00  0.00    -0.397 C  
HETATM   32  C   UNL     1     -11.943  15.912  72.915  1.00  0.00    -0.609 C  
HETATM   33  C   UNL     1     -13.470  15.921  72.930  1.00  0.00    -0.637 C  
HETATM   34  C   UNL     1     -14.038  14.610  72.398  1.00  0.00    -0.542 C  
HETATM   35  C   UNL     1     -13.508  14.290  71.004  1.00  0.00    -0.274 C  
HETATM   36  C   UNL     1     -11.981  14.287  70.967  1.00  0.00    -0.374 C  
ENDBRANCH  29  31
ENDBRANCH  27  29
ENDBRANCH  25  27
ENDBRANCH  22  25
ENDBRANCH  19  22
ENDBRANCH  15  16
ENDBRANCH  14  15
ENDBRANCH  13  14
ENDBRANCH   4  10
ENDBRANCH   2   3
TORSDOF 10
ENDMDL
MODEL      112
REMARK 921   NORMALIZED FREE ENERGY PREDICTED BY IDOCK:   -5.39 KCAL/MOL
REMARK 922        TOTAL FREE ENERGY PREDICTED BY IDOCK:  -10.51 KCAL/MOL
REMARK 923 INTER-LIGAND FREE ENERGY PREDICTED BY IDOCK:   -9.49 KCAL/MOL
REMARK 924 INTRA-LIGAND FREE ENERGY PREDICTED BY IDOCK:   -1.02 KCAL/MOL
REMARK 927      BINDING AFFINITY PREDICTED BY RF-SCORE:    0.00 PKD
ROOT
HETATM    1  C   UNL     1      -6.943   9.075  71.276  1.00  0.00    -0.081 C  
HETATM    2  O   UNL     1      -7.986   8.723  70.368  1.00  0.00    -0.091 OA 
ENDROOT
BRANCH   2   3
HETATM    3  C   UNL     1      -9.261   8.809  70.864  1.00  0.00    -0.212 A  
HETATM    4  C   UNL     1     -10.198   9.644  70.218  1.00  0.00    -0.333 A  
HETATM    5  C   UNL     1     -11.503   9.741  70.734  1.00  0.00    -0.417 A  
HETATM    6  C   UNL     1      -9.628   8.155  72.051  1.00  0.00    -0.284 A  
HETATM    7 CL   UNL     1     -13.436   9.232  72.546  1.00  0.00    -0.510 Cl 
HETATM    8  C   UNL     1     -10.914   8.291  72.574  1.00  0.00    -0.424 A  
HETATM    9  C   UNL     1     -11.847   9.073  71.907  1.00  0.00    -0.376 A  
BRANCH   4  10
HETATM   10  C   UNL     1      -9.841  10.422  68.985  1.00  0.00    -0.212 C  
HETATM   11  H   UNL     1     -10.761   8.996  67.769  1.00  0.00     0.000 HD 
HETATM   12  O   UNL     1      -9.180  11.450  69.039  1.00  0.00    -0.079 OA 
HETATM   13  N   UNL     1     -10.313   9.912  67.783  1.00  0.00    -0.205 N  
BRANCH  13  14
HETATM   14  C   UNL     1     -10.181  10.659  66.545  1.00  0.00    -0.233 C  
BRANCH  14  15
HETATM   15  C   UNL     1     -11.339  11.634  66.295  1.00  0.00    -0.293 C  
BRANCH  15  16
HETATM   16  C   UNL     1     -10.945  13.086  66.091  1.00  0.00    -0.300 A  
HETATM   17  C   UNL     1      -9.687  13.598  66.449  1.00  0.00    -0.300 A  
HETATM   18  C   UNL     1      -9.397  14.959  66.310  1.00  0.00    -0.329 A  
HETATM   19  C   UNL     1     -10.363  15.825  65.800  1.00  0.00    -0.369 A  
HETATM   20  C   UNL     1     -11.892  13.968  65.545  1.00  0.00    -0.370 A  
HETATM   21  C   UNL     1     -11.612  15.333  65.413  1.00  0.00    -0.102 A  
BRANCH  19  22
HETATM   22  S   UNL     1     -10.047  17.576  65.792  1.00  0.00    -0.009 S  
HETATM   23  O   UNL     1     -11.018  18.181  64.900  1.00  0.00    -0.718 OA 
HETATM   24  O   UNL     1      -8.634  17.804  65.597  1.00  0.00    -0.389 OA 
BRANCH  22  25
HETATM   25  N   UNL     1     -10.485  18.088  67.312  1.00  0.00    -0.383 N  
HETATM   26  H   UNL     1     -11.354  18.614  67.408  1.00  0.00     0.000 HD 
BRANCH  25  27
HETATM   27  C   UNL     1      -9.743  17.843  68.454  1.00  0.00    -0.340 C  
HETATM   28  O   UNL     1      -9.867  16.835  69.125  1.00  0.00    -0.263 OA 
BRANCH  27  29
HETATM   29  N   UNL     1      -8.874  18.855  68.758  1.00  0.00    -0.327 N  
HETATM   30  H   UNL     1      -9.157  19.596  69.399  1.00  0.00     0.000 HD 
BRANCH  29  31
HETATM   31  C   UNL     1      -7.544  18.872  68.163  1.00  0.00    -0.277 C  
HETATM   32  C   UNL     1      -6.755  20.117  68.581  1.00  0.00    -0.325 C  
HETATM   33  C   UNL     1      -6.260  20.048  70.023  1.00  0.00    -0.395 C  
HETATM   34  C   UNL     1      -5.465  18.773  70.277  1.00  0.00    -0.232 C  
HETATM   35  C   UNL     1      -6.267  17.527  69.915  1.00  0.00    -0.116 C  
HETATM   36  C   UNL     1      -6.779  17.583  68.477  1.00  0.00    -0.202 C  
ENDBRANCH  29  31
ENDBRANCH  27  29
ENDBRANCH  25  27
ENDBRANCH  22  25
ENDBRANCH  19  22
ENDBRANCH  15  16
ENDBRANCH  14  15
ENDBRANCH  13  14
ENDBRANCH   4  10
ENDBRANCH   2   3
TORSDOF 10
ENDMDL
MODEL      113
REMARK 921   NORMALIZED FREE ENERGY PREDICTED BY IDOCK:   -5.38 KCAL/MOL
REMARK 922        TOTAL FREE ENERGY PREDICTED BY IDOCK:  -10.50 KCAL/MOL
REMARK 923 INTER-LIGAND FREE ENERGY PREDICTED BY IDOCK:   -8.83 KCAL/MOL
REMARK 924 INTRA-LIGAND FREE ENERGY PREDICTED BY IDOCK:   -1.67 KCAL/MOL
REMARK 927      BINDING AFFINITY PREDICTED BY RF-SCORE:    0.00 PKD
ROOT
HETATM    1  C   UNL     1     -10.075   7.443  68.697  1.00  0.00    -0.179 C  
HETATM    2  O   UNL     1     -11.270   6.860  69.215  1.00  0.00    -0.211 OA 
ENDROOT
BRANCH   2   3
HETATM    3  C   UNL     1     -11.128   6.142  70.374  1.00  0.00    -0.352 A  
HETATM    4  C   UNL     1     -11.952   6.445  71.479  1.00  0.00    -0.331 A  
HETATM    5  C   UNL     1     -11.798   5.715  72.672  1.00  0.00    -0.192 A  
HETATM    6  C   UNL     1     -10.122   5.172  70.513  1.00  0.00    -0.326 A  
HETATM    7 CL   UNL     1     -10.600   3.893  74.261  1.00  0.00    -0.270 Cl 
HETATM    8  C   UNL     1      -9.954   4.483  71.714  1.00  0.00    -0.264 A  
HETATM    9  C   UNL     1     -10.800   4.750  72.783  1.00  0.00    -0.210 A  
BRANCH   4  10
HETATM   10  C   UNL     1     -12.998   7.518  71.411  1.00  0.00    -0.335 C  
HETATM   11  H   UNL     1     -11.593   8.979  71.913  1.00  0.00     0.000 HD 
HETATM   12  O   UNL     1     -14.173   7.261  71.182  1.00  0.00    -0.343 OA 
HETATM   13  N   UNL     1     -12.555   8.818  71.613  1.00  0.00    -0.330 N  
BRANCH  13  14
HETATM   14  C   UNL     1     -13.434   9.955  71.406  1.00  0.00    -0.302 C  
BRANCH  14  15
HETATM   15  C   UNL     1     -12.735  11.307  71.588  1.00  0.00    -0.448 C  
BRANCH  15  16
HETATM   16  C   UNL     1     -12.258  11.979  70.313  1.00  0.00    -0.348 A  
HETATM   17  C   UNL     1     -12.313  13.368  70.109  1.00  0.00    -0.322 A  
HETATM   18  C   UNL     1     -11.931  13.933  68.889  1.00  0.00    -0.393 A  
HETATM   19  C   UNL     1     -11.477  13.113  67.856  1.00  0.00    -0.308 A  
HETATM   20  C   UNL     1     -11.764  11.173  69.274  1.00  0.00    -0.401 A  
HETATM   21  C   UNL     1     -11.389  11.731  68.047  1.00  0.00    -0.355 A  
BRANCH  19  22
HETATM   22  S   UNL     1     -11.161  13.819  66.255  1.00  0.00    -0.306 S  
HETATM   23  O   UNL     1     -12.447  14.164  65.678  1.00  0.00    -0.457 OA 
HETATM   24  O   UNL     1     -10.240  12.970  65.534  1.00  0.00    -0.284 OA 
BRANCH  22  25
HETATM   25  N   UNL     1     -10.431  15.278  66.577  1.00  0.00    -0.291 N  
HETATM   26  H   UNL     1     -11.026  16.102  66.665  1.00  0.00     0.000 HD 
BRANCH  25  27
HETATM   27  C   UNL     1      -9.065  15.441  66.733  1.00  0.00    -0.259 C  
HETATM   28  O   UNL     1      -8.412  16.235  66.082  1.00  0.00    -0.325 OA 
BRANCH  27  29
HETATM   29  N   UNL     1      -8.529  14.608  67.676  1.00  0.00    -0.168 N  
HETATM   30  H   UNL     1      -8.968  14.524  68.593  1.00  0.00     0.000 HD 
BRANCH  29  31
HETATM   31  C   UNL     1      -7.329  13.841  67.368  1.00  0.00    -0.107 C  
HETATM   32  C   UNL     1      -6.131  14.307  68.201  1.00  0.00    -0.138 C  
HETATM   33  C   UNL     1      -6.211  13.857  69.657  1.00  0.00    -0.124 C  
HETATM   34  C   UNL     1      -6.411  12.350  69.762  1.00  0.00    -0.025 C  
HETATM   35  C   UNL     1      -7.636  11.887  68.979  1.00  0.00     0.029 C  
HETATM   36  C   UNL     1      -7.577  12.338  67.521  1.00  0.00    -0.155 C  
ENDBRANCH  29  31
ENDBRANCH  27  29
ENDBRANCH  25  27
ENDBRANCH  22  25
ENDBRANCH  19  22
ENDBRANCH  15  16
ENDBRANCH  14  15
ENDBRANCH  13  14
ENDBRANCH   4  10
ENDBRANCH   2   3
TORSDOF 10
ENDMDL
MODEL      114
REMARK 921   NORMALIZED FREE ENERGY PREDICTED BY IDOCK:   -5.37 KCAL/MOL
REMARK 922        TOTAL FREE ENERGY PREDICTED BY IDOCK:  -10.48 KCAL/MOL
REMARK 923 INTER-LIGAND FREE ENERGY PREDICTED BY IDOCK:   -8.72 KCAL/MOL
REMARK 924 INTRA-LIGAND FREE ENERGY PREDICTED BY IDOCK:   -1.76 KCAL/MOL
REMARK 927      BINDING AFFINITY PREDICTED BY RF-SCORE:    0.00 PKD
ROOT
HETATM    1  C   UNL     1      -9.754  18.376  68.708  1.00  0.00    -0.343 C  
HETATM    2  O   UNL     1     -10.464  17.203  69.102  1.00  0.00    -0.323 OA 
ENDROOT
BRANCH   2   3
HETATM    3  C   UNL     1     -10.815  16.351  68.087  1.00  0.00    -0.346 A  
HETATM    4  C   UNL     1     -11.642  15.243  68.372  1.00  0.00    -0.365 A  
HETATM    5  C   UNL     1     -11.993  14.362  67.333  1.00  0.00    -0.407 A  
HETATM    6  C   UNL     1     -10.298  16.506  66.791  1.00  0.00    -0.296 A  
HETATM    7 CL   UNL     1     -11.883  13.435  64.801  1.00  0.00    -0.391 Cl 
HETATM    8  C   UNL     1     -10.621  15.603  65.779  1.00  0.00    -0.374 A  
HETATM    9  C   UNL     1     -11.476  14.543  66.052  1.00  0.00    -0.348 A  
BRANCH   4  10
HETATM   10  C   UNL     1     -12.169  14.987  69.753  1.00  0.00    -0.285 C  
HETATM   11  H   UNL     1     -12.338  12.945  69.356  1.00  0.00     0.000 HD 
HETATM   12  O   UNL     1     -12.369  15.898  70.547  1.00  0.00    -0.381 OA 
HETATM   13  N   UNL     1     -12.408  13.660  70.081  1.00  0.00    -0.326 N  
BRANCH  13  14
HETATM   14  C   UNL     1     -12.755  13.269  71.435  1.00  0.00    -0.309 C  
BRANCH  14  15
HETATM   15  C   UNL     1     -13.024  11.766  71.585  1.00  0.00    -0.467 C  
BRANCH  15  16
HETATM   16  C   UNL     1     -12.153  10.853  70.740  1.00  0.00    -0.469 A  
HETATM   17  C   UNL     1     -12.036  10.977  69.346  1.00  0.00    -0.408 A  
HETATM   18  C   UNL     1     -11.280  10.066  68.603  1.00  0.00    -0.175 A  
HETATM   19  C   UNL     1     -10.619   9.023  69.249  1.00  0.00    -0.213 A  
HETATM   20  C   UNL     1     -11.450   9.817  71.377  1.00  0.00    -0.435 A  
HETATM   21  C   UNL     1     -10.699   8.897  70.638  1.00  0.00    -0.282 A  
BRANCH  19  22
HETATM   22  S   UNL     1      -9.806   7.771  68.280  1.00  0.00    -0.173 S  
HETATM   23  O   UNL     1     -10.309   7.886  66.925  1.00  0.00    -0.298 OA 
HETATM   24  O   UNL     1      -9.875   6.509  68.981  1.00  0.00    -0.141 OA 
BRANCH  22  25
HETATM   25  N   UNL     1      -8.223   8.270  68.194  1.00  0.00    -0.127 N  
HETATM   26  H   UNL     1      -7.610   8.055  68.980  1.00  0.00     0.000 HD 
BRANCH  25  27
HETATM   27  C   UNL     1      -7.688   8.961  67.121  1.00  0.00    -0.095 C  
HETATM   28  O   UNL     1      -6.967   8.442  66.288  1.00  0.00    -0.071 OA 
BRANCH  27  29
HETATM   29  N   UNL     1      -8.036  10.284  67.105  1.00  0.00    -0.120 N  
HETATM   30  H   UNL     1      -8.457  10.692  66.270  1.00  0.00     0.000 HD 
BRANCH  29  31
HETATM   31  C   UNL     1      -7.806  11.109  68.284  1.00  0.00    -0.123 C  
HETATM   32  C   UNL     1      -6.314  11.389  68.494  1.00  0.00    -0.047 C  
HETATM   33  C   UNL     1      -5.758  12.409  67.502  1.00  0.00    -0.138 C  
HETATM   34  C   UNL     1      -6.575  13.695  67.512  1.00  0.00    -0.122 C  
HETATM   35  C   UNL     1      -8.053  13.427  67.248  1.00  0.00    -0.147 C  
HETATM   36  C   UNL     1      -8.624  12.401  68.225  1.00  0.00    -0.172 C  
ENDBRANCH  29  31
ENDBRANCH  27  29
ENDBRANCH  25  27
ENDBRANCH  22  25
ENDBRANCH  19  22
ENDBRANCH  15  16
ENDBRANCH  14  15
ENDBRANCH  13  14
ENDBRANCH   4  10
ENDBRANCH   2   3
TORSDOF 10
ENDMDL
MODEL      115
REMARK 921   NORMALIZED FREE ENERGY PREDICTED BY IDOCK:   -5.36 KCAL/MOL
REMARK 922        TOTAL FREE ENERGY PREDICTED BY IDOCK:  -10.46 KCAL/MOL
REMARK 923 INTER-LIGAND FREE ENERGY PREDICTED BY IDOCK:   -8.51 KCAL/MOL
REMARK 924 INTRA-LIGAND FREE ENERGY PREDICTED BY IDOCK:   -1.94 KCAL/MOL
REMARK 927      BINDING AFFINITY PREDICTED BY RF-SCORE:    0.00 PKD
ROOT
HETATM    1  C   UNL     1     -12.742  14.441  64.939  1.00  0.00    -0.178 C  
HETATM    2  O   UNL     1     -11.434  14.849  64.540  1.00  0.00    -0.377 OA 
ENDROOT
BRANCH   2   3
HETATM    3  C   UNL     1     -10.515  14.973  65.549  1.00  0.00    -0.365 A  
HETATM    4  C   UNL     1     -10.017  13.811  66.176  1.00  0.00    -0.318 A  
HETATM    5  C   UNL     1      -9.082  13.938  67.219  1.00  0.00    -0.230 A  
HETATM    6  C   UNL     1     -10.125  16.233  66.031  1.00  0.00    -0.377 A  
HETATM    7 CL   UNL     1      -7.588  15.340  68.976  1.00  0.00    -0.155 Cl 
HETATM    8  C   UNL     1      -9.228  16.346  67.093  1.00  0.00    -0.225 A  
HETATM    9  C   UNL     1      -8.703  15.200  67.674  1.00  0.00    -0.170 A  
BRANCH   4  10
HETATM   10  C   UNL     1     -10.450  12.438  65.749  1.00  0.00    -0.259 C  
HETATM   11  H   UNL     1      -9.253  12.547  64.042  1.00  0.00     0.000 HD 
HETATM   12  O   UNL     1     -11.277  11.796  66.382  1.00  0.00    -0.316 OA 
HETATM   13  N   UNL     1      -9.850  11.937  64.602  1.00  0.00    -0.221 N  
BRANCH  13  14
HETATM   14  C   UNL     1     -10.056  10.563  64.183  1.00  0.00    -0.281 C  
BRANCH  14  15
HETATM   15  C   UNL     1      -8.913   9.624  64.589  1.00  0.00    -0.274 C  
BRANCH  15  16
HETATM   16  C   UNL     1      -8.970   9.094  66.011  1.00  0.00    -0.221 A  
HETATM   17  C   UNL     1     -10.146   8.600  66.600  1.00  0.00    -0.364 A  
HETATM   18  C   UNL     1     -10.165   8.192  67.937  1.00  0.00    -0.274 A  
HETATM   19  C   UNL     1      -9.000   8.263  68.701  1.00  0.00    -0.137 A  
HETATM   20  C   UNL     1      -7.799   9.123  66.786  1.00  0.00    -0.101 A  
HETATM   21  C   UNL     1      -7.813   8.725  68.127  1.00  0.00    -0.102 A  
BRANCH  19  22
HETATM   22  S   UNL     1      -9.076   7.908  70.443  1.00  0.00    -0.154 S  
HETATM   23  O   UNL     1      -8.697   9.121  71.143  1.00  0.00    -0.214 OA 
HETATM   24  O   UNL     1      -8.385   6.666  70.705  1.00  0.00    -0.126 OA 
BRANCH  22  25
HETATM   25  N   UNL     1     -10.696   7.718  70.762  1.00  0.00    -0.223 N  
HETATM   26  H   UNL     1     -11.216   7.036  70.209  1.00  0.00     0.000 HD 
BRANCH  25  27
HETATM   27  C   UNL     1     -11.383   8.428  71.731  1.00  0.00    -0.300 C  
HETATM   28  O   UNL     1     -11.874   7.908  72.715  1.00  0.00    -0.340 OA 
BRANCH  27  29
HETATM   29  N   UNL     1     -11.466   9.766  71.458  1.00  0.00    -0.366 N  
HETATM   30  H   UNL     1     -10.710  10.392  71.737  1.00  0.00     0.000 HD 
BRANCH  29  31
HETATM   31  C   UNL     1     -12.635  10.295  70.769  1.00  0.00    -0.352 C  
HETATM   32  C   UNL     1     -13.469  11.198  71.682  1.00  0.00    -0.155 C  
HETATM   33  C   UNL     1     -12.822  12.561  71.919  1.00  0.00    -0.311 C  
HETATM   34  C   UNL     1     -12.489  13.253  70.603  1.00  0.00    -0.373 C  
HETATM   35  C   UNL     1     -11.613  12.380  69.712  1.00  0.00    -0.302 C  
HETATM   36  C   UNL     1     -12.240  11.008  69.472  1.00  0.00    -0.352 C  
ENDBRANCH  29  31
ENDBRANCH  27  29
ENDBRANCH  25  27
ENDBRANCH  22  25
ENDBRANCH  19  22
ENDBRANCH  15  16
ENDBRANCH  14  15
ENDBRANCH  13  14
ENDBRANCH   4  10
ENDBRANCH   2   3
TORSDOF 10
ENDMDL
MODEL      116
REMARK 921   NORMALIZED FREE ENERGY PREDICTED BY IDOCK:   -5.34 KCAL/MOL
REMARK 922        TOTAL FREE ENERGY PREDICTED BY IDOCK:  -10.44 KCAL/MOL
REMARK 923 INTER-LIGAND FREE ENERGY PREDICTED BY IDOCK:   -7.78 KCAL/MOL
REMARK 924 INTRA-LIGAND FREE ENERGY PREDICTED BY IDOCK:   -2.66 KCAL/MOL
REMARK 927      BINDING AFFINITY PREDICTED BY RF-SCORE:    0.00 PKD
ROOT
HETATM    1  C   UNL     1      -9.372  10.872  63.960  1.00  0.00    -0.237 C  
HETATM    2  O   UNL     1      -8.505  10.815  65.091  1.00  0.00    -0.171 OA 
ENDROOT
BRANCH   2   3
HETATM    3  C   UNL     1      -9.123  10.732  66.312  1.00  0.00    -0.175 A  
HETATM    4  C   UNL     1      -8.389  11.033  67.479  1.00  0.00    -0.118 A  
HETATM    5  C   UNL     1      -9.020  10.936  68.732  1.00  0.00    -0.166 A  
HETATM    6  C   UNL     1     -10.442  10.266  66.432  1.00  0.00    -0.233 A  
HETATM    7 CL   UNL     1     -11.079  10.332  70.368  1.00  0.00    -0.375 Cl 
HETATM    8  C   UNL     1     -11.043  10.136  67.683  1.00  0.00    -0.275 A  
HETATM    9  C   UNL     1     -10.334  10.482  68.825  1.00  0.00    -0.191 A  
BRANCH   4  10
HETATM   10  C   UNL     1      -6.954  11.470  67.417  1.00  0.00    -0.111 C  
HETATM   11  H   UNL     1      -7.454  13.362  68.144  1.00  0.00     0.000 HD 
HETATM   12  O   UNL     1      -6.076  10.739  66.978  1.00  0.00    -0.059 OA 
HETATM   13  N   UNL     1      -6.681  12.744  67.894  1.00  0.00    -0.100 N  
BRANCH  13  14
HETATM   14  C   UNL     1      -5.317  13.216  68.045  1.00  0.00    -0.106 C  
BRANCH  14  15
HETATM   15  C   UNL     1      -5.134  14.687  67.652  1.00  0.00     0.100 C  
BRANCH  15  16
HETATM   16  C   UNL     1      -6.322  15.594  67.922  1.00  0.00    -0.165 A  
HETATM   17  C   UNL     1      -6.855  15.800  69.205  1.00  0.00    -0.168 A  
HETATM   18  C   UNL     1      -7.996  16.585  69.393  1.00  0.00     0.025 A  
HETATM   19  C   UNL     1      -8.614  17.186  68.297  1.00  0.00    -0.241 A  
HETATM   20  C   UNL     1      -6.937  16.237  66.835  1.00  0.00    -0.226 A  
HETATM   21  C   UNL     1      -8.084  17.016  67.015  1.00  0.00    -0.234 A  
BRANCH  19  22
HETATM   22  S   UNL     1     -10.160  18.036  68.524  1.00  0.00    -0.392 S  
HETATM   23  O   UNL     1     -10.885  17.946  67.271  1.00  0.00    -0.312 OA 
HETATM   24  O   UNL     1      -9.910  19.322  69.134  1.00  0.00    -0.412 OA 
BRANCH  22  25
HETATM   25  N   UNL     1     -11.013  17.079  69.582  1.00  0.00    -0.337 N  
HETATM   26  H   UNL     1     -11.323  17.494  70.460  1.00  0.00     0.000 HD 
BRANCH  25  27
HETATM   27  C   UNL     1     -11.327  15.752  69.343  1.00  0.00    -0.348 C  
HETATM   28  O   UNL     1     -11.468  14.932  70.231  1.00  0.00    -0.252 OA 
BRANCH  27  29
HETATM   29  N   UNL     1     -11.444  15.459  68.012  1.00  0.00    -0.342 N  
HETATM   30  H   UNL     1     -11.700  16.190  67.348  1.00  0.00     0.000 HD 
BRANCH  29  31
HETATM   31  C   UNL     1     -11.200  14.101  67.545  1.00  0.00    -0.306 C  
HETATM   32  C   UNL     1     -12.407  13.540  66.785  1.00  0.00    -0.326 C  
HETATM   33  C   UNL     1     -12.559  14.140  65.390  1.00  0.00    -0.485 C  
HETATM   34  C   UNL     1     -11.276  13.997  64.581  1.00  0.00    -0.377 C  
HETATM   35  C   UNL     1     -10.080  14.604  65.308  1.00  0.00    -0.393 C  
HETATM   36  C   UNL     1      -9.918  14.022  66.711  1.00  0.00    -0.268 C  
ENDBRANCH  29  31
ENDBRANCH  27  29
ENDBRANCH  25  27
ENDBRANCH  22  25
ENDBRANCH  19  22
ENDBRANCH  15  16
ENDBRANCH  14  15
ENDBRANCH  13  14
ENDBRANCH   4  10
ENDBRANCH   2   3
TORSDOF 10
ENDMDL
MODEL      117
REMARK 921   NORMALIZED FREE ENERGY PREDICTED BY IDOCK:   -5.34 KCAL/MOL
REMARK 922        TOTAL FREE ENERGY PREDICTED BY IDOCK:  -10.43 KCAL/MOL
REMARK 923 INTER-LIGAND FREE ENERGY PREDICTED BY IDOCK:   -8.09 KCAL/MOL
REMARK 924 INTRA-LIGAND FREE ENERGY PREDICTED BY IDOCK:   -2.35 KCAL/MOL
REMARK 927      BINDING AFFINITY PREDICTED BY RF-SCORE:    0.00 PKD
ROOT
HETATM    1  C   UNL     1      -6.445  12.413  67.581  1.00  0.00    -0.130 C  
HETATM    2  O   UNL     1      -7.780  11.947  67.391  1.00  0.00    -0.139 OA 
ENDROOT
BRANCH   2   3
HETATM    3  C   UNL     1      -8.022  11.301  66.206  1.00  0.00    -0.086 A  
HETATM    4  C   UNL     1      -9.326  11.314  65.666  1.00  0.00    -0.245 A  
HETATM    5  C   UNL     1      -9.576  10.642  64.457  1.00  0.00    -0.341 A  
HETATM    6  C   UNL     1      -7.022  10.552  65.566  1.00  0.00    -0.100 A  
HETATM    7 CL   UNL     1      -8.896   9.065  62.375  1.00  0.00    -0.213 Cl 
HETATM    8  C   UNL     1      -7.293   9.856  64.388  1.00  0.00    -0.133 A  
HETATM    9  C   UNL     1      -8.565   9.914  63.834  1.00  0.00    -0.195 A  
BRANCH   4  10
HETATM   10  C   UNL     1     -10.451  12.041  66.343  1.00  0.00    -0.233 C  
HETATM   11  H   UNL     1     -10.723  10.460  67.680  1.00  0.00     0.000 HD 
HETATM   12  O   UNL     1     -10.850  13.127  65.945  1.00  0.00    -0.271 OA 
HETATM   13  N   UNL     1     -11.006  11.413  67.450  1.00  0.00    -0.256 N  
BRANCH  13  14
HETATM   14  C   UNL     1     -11.981  12.087  68.288  1.00  0.00    -0.179 C  
BRANCH  14  15
HETATM   15  C   UNL     1     -11.631  12.052  69.780  1.00  0.00    -0.348 C  
BRANCH  15  16
HETATM   16  C   UNL     1     -11.556  10.670  70.406  1.00  0.00    -0.441 A  
HETATM   17  C   UNL     1     -12.641  10.061  71.057  1.00  0.00    -0.463 A  
HETATM   18  C   UNL     1     -12.501   8.819  71.683  1.00  0.00    -0.392 A  
HETATM   19  C   UNL     1     -11.272   8.163  71.656  1.00  0.00    -0.261 A  
HETATM   20  C   UNL     1     -10.335   9.977  70.358  1.00  0.00    -0.268 A  
HETATM   21  C   UNL     1     -10.186   8.738  70.991  1.00  0.00    -0.301 A  
BRANCH  19  22
HETATM   22  S   UNL     1     -11.057   6.671  72.602  1.00  0.00    -0.246 S  
HETATM   23  O   UNL     1     -12.259   5.879  72.429  1.00  0.00    -0.239 OA 
HETATM   24  O   UNL     1     -10.589   7.012  73.926  1.00  0.00    -0.371 OA 
BRANCH  22  25
HETATM   25  N   UNL     1      -9.870   5.832  71.795  1.00  0.00    -0.164 N  
HETATM   26  H   UNL     1      -8.910   5.923  72.126  1.00  0.00     0.000 HD 
BRANCH  25  27
HETATM   27  C   UNL     1     -10.107   5.016  70.702  1.00  0.00    -0.243 C  
HETATM   28  O   UNL     1      -9.889   3.819  70.705  1.00  0.00    -0.181 OA 
BRANCH  27  29
HETATM   29  N   UNL     1     -10.590   5.698  69.618  1.00  0.00    -0.311 N  
HETATM   30  H   UNL     1     -11.306   6.414  69.743  1.00  0.00     0.000 HD 
BRANCH  29  31
HETATM   31  C   UNL     1     -10.079   5.400  68.287  1.00  0.00    -0.167 C  
HETATM   32  C   UNL     1     -10.958   6.015  67.194  1.00  0.00    -0.360 C  
HETATM   33  C   UNL     1     -10.781   7.527  67.073  1.00  0.00    -0.367 C  
HETATM   34  C   UNL     1      -9.315   7.901  66.887  1.00  0.00    -0.209 C  
HETATM   35  C   UNL     1      -8.443   7.336  68.003  1.00  0.00    -0.123 C  
HETATM   36  C   UNL     1      -8.615   5.826  68.146  1.00  0.00    -0.108 C  
ENDBRANCH  29  31
ENDBRANCH  27  29
ENDBRANCH  25  27
ENDBRANCH  22  25
ENDBRANCH  19  22
ENDBRANCH  15  16
ENDBRANCH  14  15
ENDBRANCH  13  14
ENDBRANCH   4  10
ENDBRANCH   2   3
TORSDOF 10
ENDMDL
MODEL      118
REMARK 921   NORMALIZED FREE ENERGY PREDICTED BY IDOCK:   -5.33 KCAL/MOL
REMARK 922        TOTAL FREE ENERGY PREDICTED BY IDOCK:  -10.42 KCAL/MOL
REMARK 923 INTER-LIGAND FREE ENERGY PREDICTED BY IDOCK:   -8.68 KCAL/MOL
REMARK 924 INTRA-LIGAND FREE ENERGY PREDICTED BY IDOCK:   -1.74 KCAL/MOL
REMARK 927      BINDING AFFINITY PREDICTED BY RF-SCORE:    0.00 PKD
ROOT
HETATM    1  C   UNL     1     -11.543  10.707  69.842  1.00  0.00    -0.316 C  
HETATM    2  O   UNL     1     -10.377  10.035  70.318  1.00  0.00    -0.273 OA 
ENDROOT
BRANCH   2   3
HETATM    3  C   UNL     1     -10.600   8.872  71.008  1.00  0.00    -0.247 A  
HETATM    4  C   UNL     1      -9.915   7.700  70.624  1.00  0.00    -0.183 A  
HETATM    5  C   UNL     1     -10.152   6.503  71.324  1.00  0.00    -0.208 A  
HETATM    6  C   UNL     1     -11.562   8.801  72.029  1.00  0.00    -0.436 A  
HETATM    7 CL   UNL     1     -11.410   4.980  73.162  1.00  0.00    -0.402 Cl 
HETATM    8  C   UNL     1     -11.817   7.599  72.689  1.00  0.00    -0.269 A  
HETATM    9  C   UNL     1     -11.103   6.460  72.341  1.00  0.00    -0.268 A  
BRANCH   4  10
HETATM   10  C   UNL     1      -8.926   7.699  69.495  1.00  0.00    -0.139 C  
HETATM   11  H   UNL     1     -10.248   6.630  68.283  1.00  0.00     0.000 HD 
HETATM   12  O   UNL     1      -7.809   8.186  69.614  1.00  0.00    -0.099 OA 
HETATM   13  N   UNL     1      -9.356   7.124  68.306  1.00  0.00    -0.131 N  
BRANCH  13  14
HETATM   14  C   UNL     1      -8.559   7.212  67.096  1.00  0.00    -0.121 C  
BRANCH  14  15
HETATM   15  C   UNL     1      -9.207   8.070  66.001  1.00  0.00    -0.179 C  
BRANCH  15  16
HETATM   16  C   UNL     1      -9.250   9.563  66.273  1.00  0.00    -0.219 A  
HETATM   17  C   UNL     1      -8.152  10.286  66.767  1.00  0.00    -0.121 A  
HETATM   18  C   UNL     1      -8.264  11.646  67.072  1.00  0.00    -0.170 A  
HETATM   19  C   UNL     1      -9.477  12.304  66.875  1.00  0.00    -0.217 A  
HETATM   20  C   UNL     1     -10.454  10.252  66.048  1.00  0.00    -0.181 A  
HETATM   21  C   UNL     1     -10.574  11.610  66.360  1.00  0.00    -0.299 A  
BRANCH  19  22
HETATM   22  S   UNL     1      -9.658  13.985  67.429  1.00  0.00    -0.234 S  
HETATM   23  O   UNL     1      -8.540  14.268  68.309  1.00  0.00    -0.162 OA 
HETATM   24  O   UNL     1     -11.015  14.193  67.881  1.00  0.00    -0.244 OA 
BRANCH  22  25
HETATM   25  N   UNL     1      -9.380  14.905  66.073  1.00  0.00    -0.454 N  
HETATM   26  H   UNL     1      -8.793  14.510  65.339  1.00  0.00     0.000 HD 
BRANCH  25  27
HETATM   27  C   UNL     1      -9.898  16.174  65.880  1.00  0.00    -0.353 C  
HETATM   28  O   UNL     1     -10.553  16.484  64.902  1.00  0.00    -0.689 OA 
BRANCH  27  29
HETATM   29  N   UNL     1      -9.583  17.042  66.888  1.00  0.00    -0.248 N  
HETATM   30  H   UNL     1     -10.323  17.478  67.438  1.00  0.00     0.000 HD 
BRANCH  29  31
HETATM   31  C   UNL     1      -8.187  17.343  67.177  1.00  0.00    -0.210 C  
HETATM   32  C   UNL     1      -7.531  18.130  66.038  1.00  0.00    -0.264 C  
HETATM   33  C   UNL     1      -7.979  19.589  65.993  1.00  0.00    -0.312 C  
HETATM   34  C   UNL     1      -7.771  20.276  67.338  1.00  0.00    -0.352 C  
HETATM   35  C   UNL     1      -8.468  19.525  68.468  1.00  0.00    -0.374 C  
HETATM   36  C   UNL     1      -8.040  18.060  68.522  1.00  0.00    -0.306 C  
ENDBRANCH  29  31
ENDBRANCH  27  29
ENDBRANCH  25  27
ENDBRANCH  22  25
ENDBRANCH  19  22
ENDBRANCH  15  16
ENDBRANCH  14  15
ENDBRANCH  13  14
ENDBRANCH   4  10
ENDBRANCH   2   3
TORSDOF 10
ENDMDL
MODEL      119
REMARK 921   NORMALIZED FREE ENERGY PREDICTED BY IDOCK:   -5.32 KCAL/MOL
REMARK 922        TOTAL FREE ENERGY PREDICTED BY IDOCK:  -10.41 KCAL/MOL
REMARK 923 INTER-LIGAND FREE ENERGY PREDICTED BY IDOCK:   -8.81 KCAL/MOL
REMARK 924 INTRA-LIGAND FREE ENERGY PREDICTED BY IDOCK:   -1.60 KCAL/MOL
REMARK 927      BINDING AFFINITY PREDICTED BY RF-SCORE:    0.00 PKD
ROOT
HETATM    1  C   UNL     1     -10.774   6.516  73.464  1.00  0.00    -0.263 C  
HETATM    2  O   UNL     1     -11.542   6.614  72.265  1.00  0.00    -0.272 OA 
ENDROOT
BRANCH   2   3
HETATM    3  C   UNL     1     -11.713   7.881  71.770  1.00  0.00    -0.287 A  
HETATM    4  C   UNL     1     -10.810   8.372  70.804  1.00  0.00    -0.255 A  
HETATM    5  C   UNL     1     -10.978   9.676  70.304  1.00  0.00    -0.337 A  
HETATM    6  C   UNL     1     -12.714   8.731  72.268  1.00  0.00    -0.466 A  
HETATM    7 CL   UNL     1     -12.156  12.103  70.213  1.00  0.00    -0.417 Cl 
HETATM    8  C   UNL     1     -12.846  10.035  71.794  1.00  0.00    -0.546 A  
HETATM    9  C   UNL     1     -11.986  10.497  70.807  1.00  0.00    -0.370 A  
BRANCH   4  10
HETATM   10  C   UNL     1      -9.679   7.534  70.284  1.00  0.00    -0.179 C  
HETATM   11  H   UNL     1     -10.986   6.450  69.069  1.00  0.00     0.000 HD 
HETATM   12  O   UNL     1      -8.534   7.666  70.697  1.00  0.00    -0.124 OA 
HETATM   13  N   UNL     1     -10.005   6.607  69.303  1.00  0.00    -0.156 N  
BRANCH  13  14
HETATM   14  C   UNL     1      -8.977   5.858  68.603  1.00  0.00    -0.116 C  
BRANCH  14  15
HETATM   15  C   UNL     1      -8.929   6.150  67.098  1.00  0.00    -0.111 C  
BRANCH  15  16
HETATM   16  C   UNL     1      -9.109   7.606  66.703  1.00  0.00    -0.198 A  
HETATM   17  C   UNL     1      -8.051   8.420  66.268  1.00  0.00    -0.105 A  
HETATM   18  C   UNL     1      -8.252   9.774  65.987  1.00  0.00    -0.117 A  
HETATM   19  C   UNL     1      -9.523  10.331  66.128  1.00  0.00    -0.181 A  
HETATM   20  C   UNL     1     -10.389   8.176  66.804  1.00  0.00    -0.361 A  
HETATM   21  C   UNL     1     -10.596   9.532  66.533  1.00  0.00    -0.133 A  
BRANCH  19  22
HETATM   22  S   UNL     1      -9.733  12.087  65.938  1.00  0.00    -0.225 S  
HETATM   23  O   UNL     1      -9.791  12.359  64.514  1.00  0.00    -0.190 OA 
HETATM   24  O   UNL     1      -8.776  12.773  66.775  1.00  0.00    -0.197 OA 
BRANCH  22  25
HETATM   25  N   UNL     1     -11.270  12.387  66.494  1.00  0.00    -0.301 N  
HETATM   26  H   UNL     1     -11.859  11.589  66.730  1.00  0.00     0.000 HD 
BRANCH  25  27
HETATM   27  C   UNL     1     -11.799  13.656  66.658  1.00  0.00    -0.409 C  
HETATM   28  O   UNL     1     -12.768  14.057  66.041  1.00  0.00    -0.475 OA 
BRANCH  27  29
HETATM   29  N   UNL     1     -11.111  14.412  67.567  1.00  0.00    -0.292 N  
HETATM   30  H   UNL     1     -10.655  13.965  68.362  1.00  0.00     0.000 HD 
BRANCH  29  31
HETATM   31  C   UNL     1     -11.030  15.856  67.396  1.00  0.00    -0.257 C  
HETATM   32  C   UNL     1     -10.431  16.539  68.630  1.00  0.00    -0.304 C  
HETATM   33  C   UNL     1      -8.924  16.330  68.749  1.00  0.00    -0.243 C  
HETATM   34  C   UNL     1      -8.203  16.751  67.473  1.00  0.00    -0.187 C  
HETATM   35  C   UNL     1      -8.759  16.033  66.248  1.00  0.00    -0.372 C  
HETATM   36  C   UNL     1     -10.269  16.222  66.119  1.00  0.00    -0.361 C  
ENDBRANCH  29  31
ENDBRANCH  27  29
ENDBRANCH  25  27
ENDBRANCH  22  25
ENDBRANCH  19  22
ENDBRANCH  15  16
ENDBRANCH  14  15
ENDBRANCH  13  14
ENDBRANCH   4  10
ENDBRANCH   2   3
TORSDOF 10
ENDMDL
MODEL      120
REMARK 921   NORMALIZED FREE ENERGY PREDICTED BY IDOCK:   -5.32 KCAL/MOL
REMARK 922        TOTAL FREE ENERGY PREDICTED BY IDOCK:  -10.41 KCAL/MOL
REMARK 923 INTER-LIGAND FREE ENERGY PREDICTED BY IDOCK:   -9.66 KCAL/MOL
REMARK 924 INTRA-LIGAND FREE ENERGY PREDICTED BY IDOCK:   -0.75 KCAL/MOL
REMARK 927      BINDING AFFINITY PREDICTED BY RF-SCORE:    0.00 PKD
ROOT
HETATM    1  C   UNL     1      -9.537  17.614  66.561  1.00  0.00    -0.292 C  
HETATM    2  O   UNL     1     -10.031  16.496  67.297  1.00  0.00    -0.253 OA 
ENDROOT
BRANCH   2   3
HETATM    3  C   UNL     1     -10.671  15.533  66.561  1.00  0.00    -0.304 A  
HETATM    4  C   UNL     1     -11.587  14.671  67.199  1.00  0.00    -0.394 A  
HETATM    5  C   UNL     1     -12.235  13.675  66.446  1.00  0.00    -0.472 A  
HETATM    6  C   UNL     1     -10.367  15.330  65.205  1.00  0.00    -0.430 A  
HETATM    7 CL   UNL     1     -12.697  12.253  64.200  1.00  0.00    -0.493 Cl 
HETATM    8  C   UNL     1     -10.987  14.313  64.478  1.00  0.00    -0.311 A  
HETATM    9  C   UNL     1     -11.925  13.499  65.099  1.00  0.00    -0.368 A  
BRANCH   4  10
HETATM   10  C   UNL     1     -11.900  14.797  68.662  1.00  0.00    -0.300 C  
HETATM   11  H   UNL     1     -12.058  12.724  68.849  1.00  0.00     0.000 HD 
HETATM   12  O   UNL     1     -12.012  15.887  69.206  1.00  0.00    -0.356 OA 
HETATM   13  N   UNL     1     -12.045  13.606  69.361  1.00  0.00    -0.331 N  
BRANCH  13  14
HETATM   14  C   UNL     1     -12.180  13.593  70.806  1.00  0.00    -0.347 C  
BRANCH  14  15
HETATM   15  C   UNL     1     -13.153  12.523  71.318  1.00  0.00    -0.223 C  
BRANCH  15  16
HETATM   16  C   UNL     1     -12.634  11.096  71.293  1.00  0.00    -0.503 A  
HETATM   17  C   UNL     1     -11.595  10.671  70.449  1.00  0.00    -0.441 A  
HETATM   18  C   UNL     1     -11.203   9.329  70.409  1.00  0.00    -0.290 A  
HETATM   19  C   UNL     1     -11.841   8.395  71.224  1.00  0.00    -0.289 A  
HETATM   20  C   UNL     1     -13.241  10.147  72.133  1.00  0.00    -0.463 A  
HETATM   21  C   UNL     1     -12.860   8.802  72.091  1.00  0.00    -0.456 A  
BRANCH  19  22
HETATM   22  S   UNL     1     -11.457   6.668  71.039  1.00  0.00    -0.347 S  
HETATM   23  O   UNL     1     -11.700   6.322  69.651  1.00  0.00    -0.382 OA 
HETATM   24  O   UNL     1     -12.095   5.924  72.101  1.00  0.00    -0.252 OA 
BRANCH  22  25
HETATM   25  N   UNL     1      -9.806   6.585  71.220  1.00  0.00    -0.181 N  
HETATM   26  H   UNL     1      -9.363   7.232  71.870  1.00  0.00     0.000 HD 
BRANCH  25  27
HETATM   27  C   UNL     1      -8.999   5.690  70.540  1.00  0.00    -0.138 C  
HETATM   28  O   UNL     1      -8.412   4.775  71.087  1.00  0.00    -0.102 OA 
BRANCH  27  29
HETATM   29  N   UNL     1      -8.915   5.952  69.200  1.00  0.00    -0.119 N  
HETATM   30  H   UNL     1      -9.222   6.854  68.836  1.00  0.00     0.000 HD 
BRANCH  29  31
HETATM   31  C   UNL     1      -8.388   4.940  68.294  1.00  0.00    -0.091 C  
HETATM   32  C   UNL     1      -9.495   4.023  67.764  1.00  0.00    -0.228 C  
HETATM   33  C   UNL     1     -10.373   4.701  66.715  1.00  0.00    -0.174 C  
HETATM   34  C   UNL     1      -9.536   5.280  65.580  1.00  0.00    -0.097 C  
HETATM   35  C   UNL     1      -8.467   6.236  66.099  1.00  0.00    -0.138 C  
HETATM   36  C   UNL     1      -7.585   5.578  67.157  1.00  0.00    -0.092 C  
ENDBRANCH  29  31
ENDBRANCH  27  29
ENDBRANCH  25  27
ENDBRANCH  22  25
ENDBRANCH  19  22
ENDBRANCH  15  16
ENDBRANCH  14  15
ENDBRANCH  13  14
ENDBRANCH   4  10
ENDBRANCH   2   3
TORSDOF 10
ENDMDL
MODEL      121
REMARK 921   NORMALIZED FREE ENERGY PREDICTED BY IDOCK:   -5.32 KCAL/MOL
REMARK 922        TOTAL FREE ENERGY PREDICTED BY IDOCK:  -10.41 KCAL/MOL
REMARK 923 INTER-LIGAND FREE ENERGY PREDICTED BY IDOCK:   -8.60 KCAL/MOL
REMARK 924 INTRA-LIGAND FREE ENERGY PREDICTED BY IDOCK:   -1.81 KCAL/MOL
REMARK 927      BINDING AFFINITY PREDICTED BY RF-SCORE:    0.00 PKD
ROOT
HETATM    1  C   UNL     1      -9.998   8.234  66.224  1.00  0.00    -0.109 C  
HETATM    2  O   UNL     1     -10.836   7.432  67.055  1.00  0.00    -0.354 OA 
ENDROOT
BRANCH   2   3
HETATM    3  C   UNL     1     -10.443   6.128  67.215  1.00  0.00    -0.255 A  
HETATM    4  C   UNL     1     -10.032   5.683  68.489  1.00  0.00    -0.205 A  
HETATM    5  C   UNL     1      -9.618   4.349  68.651  1.00  0.00    -0.216 A  
HETATM    6  C   UNL     1     -10.358   5.252  66.121  1.00  0.00    -0.238 A  
HETATM    7 CL   UNL     1      -9.006   1.876  67.760  1.00  0.00    -0.154 Cl 
HETATM    8  C   UNL     1      -9.907   3.943  66.288  1.00  0.00    -0.131 A  
HETATM    9  C   UNL     1      -9.551   3.494  67.553  1.00  0.00    -0.127 A  
BRANCH   4  10
HETATM   10  C   UNL     1     -10.036   6.595  69.682  1.00  0.00    -0.181 C  
HETATM   11  H   UNL     1      -7.964   6.429  69.870  1.00  0.00     0.000 HD 
HETATM   12  O   UNL     1     -11.076   7.041  70.149  1.00  0.00    -0.264 OA 
HETATM   13  N   UNL     1      -8.794   6.909  70.216  1.00  0.00    -0.148 N  
BRANCH  13  14
HETATM   14  C   UNL     1      -8.654   7.910  71.259  1.00  0.00    -0.125 C  
BRANCH  14  15
HETATM   15  C   UNL     1      -7.850   9.139  70.819  1.00  0.00    -0.173 C  
BRANCH  15  16
HETATM   16  C   UNL     1      -8.552  10.074  69.850  1.00  0.00    -0.171 A  
HETATM   17  C   UNL     1      -7.867  10.867  68.915  1.00  0.00    -0.142 A  
HETATM   18  C   UNL     1      -8.552  11.768  68.095  1.00  0.00    -0.160 A  
HETATM   19  C   UNL     1      -9.938  11.879  68.193  1.00  0.00    -0.197 A  
HETATM   20  C   UNL     1      -9.952  10.174  69.909  1.00  0.00    -0.250 A  
HETATM   21  C   UNL     1     -10.643  11.080  69.098  1.00  0.00    -0.253 A  
BRANCH  19  22
HETATM   22  S   UNL     1     -10.780  13.148  67.273  1.00  0.00    -0.256 S  
HETATM   23  O   UNL     1     -12.199  12.857  67.342  1.00  0.00    -0.330 OA 
HETATM   24  O   UNL     1     -10.129  13.318  65.994  1.00  0.00    -0.288 OA 
BRANCH  22  25
HETATM   25  N   UNL     1     -10.581  14.526  68.182  1.00  0.00    -0.235 N  
HETATM   26  H   UNL     1      -9.660  14.707  68.581  1.00  0.00     0.000 HD 
BRANCH  25  27
HETATM   27  C   UNL     1     -11.589  15.441  68.430  1.00  0.00    -0.354 C  
HETATM   28  O   UNL     1     -11.745  16.454  67.772  1.00  0.00     0.065 OA 
BRANCH  27  29
HETATM   29  N   UNL     1     -12.375  15.100  69.496  1.00  0.00    -0.566 N  
HETATM   30  H   UNL     1     -13.381  15.264  69.462  1.00  0.00     0.000 HD 
BRANCH  29  31
HETATM   31  C   UNL     1     -11.772  14.501  70.679  1.00  0.00    -0.270 C  
HETATM   32  C   UNL     1     -11.431  15.556  71.736  1.00  0.00    -0.504 C  
HETATM   33  C   UNL     1     -12.665  16.085  72.463  1.00  0.00    -0.510 C  
HETATM   34  C   UNL     1     -13.490  14.948  73.056  1.00  0.00    -0.496 C  
HETATM   35  C   UNL     1     -13.878  13.922  71.997  1.00  0.00    -0.588 C  
HETATM   36  C   UNL     1     -12.657  13.389  71.251  1.00  0.00    -0.411 C  
ENDBRANCH  29  31
ENDBRANCH  27  29
ENDBRANCH  25  27
ENDBRANCH  22  25
ENDBRANCH  19  22
ENDBRANCH  15  16
ENDBRANCH  14  15
ENDBRANCH  13  14
ENDBRANCH   4  10
ENDBRANCH   2   3
TORSDOF 10
ENDMDL
MODEL      122
REMARK 921   NORMALIZED FREE ENERGY PREDICTED BY IDOCK:   -5.31 KCAL/MOL
REMARK 922        TOTAL FREE ENERGY PREDICTED BY IDOCK:  -10.38 KCAL/MOL
REMARK 923 INTER-LIGAND FREE ENERGY PREDICTED BY IDOCK:   -8.66 KCAL/MOL
REMARK 924 INTRA-LIGAND FREE ENERGY PREDICTED BY IDOCK:   -1.72 KCAL/MOL
REMARK 927      BINDING AFFINITY PREDICTED BY RF-SCORE:    0.00 PKD
ROOT
HETATM    1  C   UNL     1     -10.321  12.676  67.818  1.00  0.00    -0.220 C  
HETATM    2  O   UNL     1     -11.492  12.166  68.454  1.00  0.00    -0.256 OA 
ENDROOT
BRANCH   2   3
HETATM    3  C   UNL     1     -11.971  12.908  69.502  1.00  0.00    -0.285 A  
HETATM    4  C   UNL     1     -12.465  12.247  70.647  1.00  0.00    -0.323 A  
HETATM    5  C   UNL     1     -12.968  13.008  71.718  1.00  0.00    -0.420 A  
HETATM    6  C   UNL     1     -12.064  14.307  69.424  1.00  0.00    -0.361 A  
HETATM    7 CL   UNL     1     -13.692  15.311  72.923  1.00  0.00    -0.555 Cl 
HETATM    8  C   UNL     1     -12.602  15.048  70.476  1.00  0.00    -0.420 A  
HETATM    9  C   UNL     1     -13.040  14.397  71.621  1.00  0.00    -0.350 A  
BRANCH   4  10
HETATM   10  C   UNL     1     -12.455  10.751  70.759  1.00  0.00    -0.387 C  
HETATM   11  H   UNL     1     -10.407  10.692  70.359  1.00  0.00     0.000 HD 
HETATM   12  O   UNL     1     -13.480  10.111  70.956  1.00  0.00    -0.351 OA 
HETATM   13  N   UNL     1     -11.216  10.136  70.635  1.00  0.00    -0.325 N  
BRANCH  13  14
HETATM   14  C   UNL     1     -11.050   8.717  70.892  1.00  0.00    -0.268 C  
BRANCH  14  15
HETATM   15  C   UNL     1      -9.684   8.174  70.453  1.00  0.00    -0.179 C  
BRANCH  15  16
HETATM   16  C   UNL     1      -9.682   7.346  69.180  1.00  0.00    -0.165 A  
HETATM   17  C   UNL     1     -10.780   7.277  68.307  1.00  0.00    -0.174 A  
HETATM   18  C   UNL     1     -10.757   6.442  67.186  1.00  0.00    -0.433 A  
HETATM   19  C   UNL     1      -9.627   5.671  66.918  1.00  0.00    -0.141 A  
HETATM   20  C   UNL     1      -8.539   6.589  68.874  1.00  0.00    -0.125 A  
HETATM   21  C   UNL     1      -8.514   5.745  67.759  1.00  0.00    -0.103 A  
BRANCH  19  22
HETATM   22  S   UNL     1      -9.674   4.484  65.593  1.00  0.00    -0.212 S  
HETATM   23  O   UNL     1     -11.070   4.229  65.297  1.00  0.00    -0.141 OA 
HETATM   24  O   UNL     1      -8.780   3.391  65.903  1.00  0.00    -0.114 OA 
BRANCH  22  25
HETATM   25  N   UNL     1      -9.099   5.310  64.270  1.00  0.00    -0.357 N  
HETATM   26  H   UNL     1      -9.514   5.107  63.361  1.00  0.00     0.000 HD 
BRANCH  25  27
HETATM   27  C   UNL     1      -8.091   6.258  64.328  1.00  0.00    -0.080 C  
HETATM   28  O   UNL     1      -6.980   6.021  64.764  1.00  0.00    -0.052 OA 
BRANCH  27  29
HETATM   29  N   UNL     1      -8.480   7.484  63.865  1.00  0.00    -0.356 N  
HETATM   30  H   UNL     1      -9.179   7.553  63.125  1.00  0.00     0.000 HD 
BRANCH  29  31
HETATM   31  C   UNL     1      -7.895   8.693  64.431  1.00  0.00    -0.138 C  
HETATM   32  C   UNL     1      -7.944   9.861  63.441  1.00  0.00    -0.153 C  
HETATM   33  C   UNL     1      -9.346  10.447  63.286  1.00  0.00    -0.335 C  
HETATM   34  C   UNL     1      -9.938  10.834  64.637  1.00  0.00    -0.386 C  
HETATM   35  C   UNL     1      -9.942   9.658  65.608  1.00  0.00    -0.321 C  
HETATM   36  C   UNL     1      -8.549   9.052  65.768  1.00  0.00    -0.180 C  
ENDBRANCH  29  31
ENDBRANCH  27  29
ENDBRANCH  25  27
ENDBRANCH  22  25
ENDBRANCH  19  22
ENDBRANCH  15  16
ENDBRANCH  14  15
ENDBRANCH  13  14
ENDBRANCH   4  10
ENDBRANCH   2   3
TORSDOF 10
ENDMDL
MODEL      123
REMARK 921   NORMALIZED FREE ENERGY PREDICTED BY IDOCK:   -5.31 KCAL/MOL
REMARK 922        TOTAL FREE ENERGY PREDICTED BY IDOCK:  -10.38 KCAL/MOL
REMARK 923 INTER-LIGAND FREE ENERGY PREDICTED BY IDOCK:   -8.67 KCAL/MOL
REMARK 924 INTRA-LIGAND FREE ENERGY PREDICTED BY IDOCK:   -1.70 KCAL/MOL
REMARK 927      BINDING AFFINITY PREDICTED BY RF-SCORE:    0.00 PKD
ROOT
HETATM    1  C   UNL     1      -7.257   8.071  69.706  1.00  0.00    -0.065 C  
HETATM    2  O   UNL     1      -8.539   7.931  69.096  1.00  0.00    -0.135 OA 
ENDROOT
BRANCH   2   3
HETATM    3  C   UNL     1      -9.603   8.371  69.839  1.00  0.00    -0.171 A  
HETATM    4  C   UNL     1     -10.629   9.106  69.208  1.00  0.00    -0.229 A  
HETATM    5  C   UNL     1     -11.716   9.567  69.973  1.00  0.00    -0.028 A  
HETATM    6  C   UNL     1      -9.650   8.183  71.230  1.00  0.00    -0.203 A  
HETATM    7 CL   UNL     1     -13.062   9.963  72.278  1.00  0.00    -0.478 Cl 
HETATM    8  C   UNL     1     -10.713   8.680  71.984  1.00  0.00    -0.427 A  
HETATM    9  C   UNL     1     -11.745   9.359  71.351  1.00  0.00    -0.378 A  
BRANCH   4  10
HETATM   10  C   UNL     1     -10.598   9.397  67.736  1.00  0.00    -0.258 C  
HETATM   11  H   UNL     1     -10.811  11.443  68.094  1.00  0.00     0.000 HD 
HETATM   12  O   UNL     1     -10.532   8.503  66.902  1.00  0.00    -0.308 OA 
HETATM   13  N   UNL     1     -10.641  10.738  67.377  1.00  0.00    -0.226 N  
BRANCH  13  14
HETATM   14  C   UNL     1     -10.448  11.155  66.000  1.00  0.00    -0.256 C  
BRANCH  14  15
HETATM   15  C   UNL     1     -11.532  12.115  65.497  1.00  0.00    -0.394 C  
BRANCH  15  16
HETATM   16  C   UNL     1     -11.294  13.587  65.786  1.00  0.00    -0.318 A  
HETATM   17  C   UNL     1     -10.792  14.486  64.830  1.00  0.00    -0.436 A  
HETATM   18  C   UNL     1     -10.519  15.816  65.166  1.00  0.00    -0.394 A  
HETATM   19  C   UNL     1     -10.757  16.267  66.463  1.00  0.00    -0.187 A  
HETATM   20  C   UNL     1     -11.561  14.069  67.078  1.00  0.00    -0.394 A  
HETATM   21  C   UNL     1     -11.282  15.396  67.422  1.00  0.00    -0.287 A  
BRANCH  19  22
HETATM   22  S   UNL     1     -10.245  17.907  66.925  1.00  0.00    -0.364 S  
HETATM   23  O   UNL     1     -11.020  18.284  68.092  1.00  0.00    -0.186 OA 
HETATM   24  O   UNL     1     -10.234  18.749  65.751  1.00  0.00    -0.541 OA 
BRANCH  22  25
HETATM   25  N   UNL     1      -8.691  17.718  67.485  1.00  0.00    -0.237 N  
HETATM   26  H   UNL     1      -8.493  17.989  68.448  1.00  0.00     0.000 HD 
BRANCH  25  27
HETATM   27  C   UNL     1      -7.651  17.215  66.724  1.00  0.00    -0.239 C  
HETATM   28  O   UNL     1      -7.331  17.679  65.645  1.00  0.00    -0.487 OA 
BRANCH  27  29
HETATM   29  N   UNL     1      -7.036  16.137  67.299  1.00  0.00    -0.182 N  
HETATM   30  H   UNL     1      -6.046  15.960  67.125  1.00  0.00     0.000 HD 
BRANCH  29  31
HETATM   31  C   UNL     1      -7.797  15.243  68.161  1.00  0.00    -0.120 C  
HETATM   32  C   UNL     1      -7.977  13.861  67.524  1.00  0.00    -0.190 C  
HETATM   33  C   UNL     1      -6.699  13.025  67.553  1.00  0.00    -0.156 C  
HETATM   34  C   UNL     1      -6.137  12.919  68.966  1.00  0.00    -0.089 C  
HETATM   35  C   UNL     1      -5.904  14.294  69.584  1.00  0.00    -0.106 C  
HETATM   36  C   UNL     1      -7.169  15.148  69.555  1.00  0.00    -0.204 C  
ENDBRANCH  29  31
ENDBRANCH  27  29
ENDBRANCH  25  27
ENDBRANCH  22  25
ENDBRANCH  19  22
ENDBRANCH  15  16
ENDBRANCH  14  15
ENDBRANCH  13  14
ENDBRANCH   4  10
ENDBRANCH   2   3
TORSDOF 10
ENDMDL
MODEL      124
REMARK 921   NORMALIZED FREE ENERGY PREDICTED BY IDOCK:   -5.30 KCAL/MOL
REMARK 922        TOTAL FREE ENERGY PREDICTED BY IDOCK:  -10.37 KCAL/MOL
REMARK 923 INTER-LIGAND FREE ENERGY PREDICTED BY IDOCK:   -9.00 KCAL/MOL
REMARK 924 INTRA-LIGAND FREE ENERGY PREDICTED BY IDOCK:   -1.36 KCAL/MOL
REMARK 927      BINDING AFFINITY PREDICTED BY RF-SCORE:    0.00 PKD
ROOT
HETATM    1  C   UNL     1     -12.112  10.671  70.846  1.00  0.00    -0.385 C  
HETATM    2  O   UNL     1     -10.853  10.102  70.491  1.00  0.00    -0.298 OA 
ENDROOT
BRANCH   2   3
HETATM    3  C   UNL     1     -10.433   9.053  71.267  1.00  0.00    -0.311 A  
HETATM    4  C   UNL     1      -9.238   8.382  70.932  1.00  0.00    -0.192 A  
HETATM    5  C   UNL     1      -8.813   7.299  71.723  1.00  0.00    -0.124 A  
HETATM    6  C   UNL     1     -11.212   8.578  72.334  1.00  0.00    -0.399 A  
HETATM    7 CL   UNL     1      -9.084   5.501  73.717  1.00  0.00    -0.123 Cl 
HETATM    8  C   UNL     1     -10.799   7.478  73.086  1.00  0.00    -0.448 A  
HETATM    9  C   UNL     1      -9.598   6.851  72.784  1.00  0.00    -0.146 A  
BRANCH   4  10
HETATM   10  C   UNL     1      -8.399   8.802  69.761  1.00  0.00    -0.127 C  
HETATM   11  H   UNL     1      -7.691  10.463  70.810  1.00  0.00     0.000 HD 
HETATM   12  O   UNL     1      -8.419   8.192  68.700  1.00  0.00    -0.125 OA 
HETATM   13  N   UNL     1      -7.594   9.917  69.954  1.00  0.00    -0.146 N  
BRANCH  13  14
HETATM   14  C   UNL     1      -6.616  10.320  68.960  1.00  0.00    -0.053 C  
BRANCH  14  15
HETATM   15  C   UNL     1      -6.436  11.840  68.864  1.00  0.00    -0.076 C  
BRANCH  15  16
HETATM   16  C   UNL     1      -7.564  12.596  68.184  1.00  0.00    -0.132 A  
HETATM   17  C   UNL     1      -7.364  13.772  67.443  1.00  0.00    -0.125 A  
HETATM   18  C   UNL     1      -8.444  14.473  66.898  1.00  0.00    -0.179 A  
HETATM   19  C   UNL     1      -9.742  13.997  67.078  1.00  0.00    -0.256 A  
HETATM   20  C   UNL     1      -8.876  12.112  68.323  1.00  0.00    -0.182 A  
HETATM   21  C   UNL     1      -9.961  12.813  67.788  1.00  0.00    -0.219 A  
BRANCH  19  22
HETATM   22  S   UNL     1     -11.118  14.984  66.533  1.00  0.00    -0.304 S  
HETATM   23  O   UNL     1     -12.327  14.277  66.908  1.00  0.00    -0.408 OA 
HETATM   24  O   UNL     1     -10.900  15.385  65.162  1.00  0.00    -0.378 OA 
BRANCH  22  25
HETATM   25  N   UNL     1     -11.084  16.327  67.513  1.00  0.00    -0.207 N  
HETATM   26  H   UNL     1     -11.236  17.238  67.082  1.00  0.00     0.000 HD 
BRANCH  25  27
HETATM   27  C   UNL     1     -10.863  16.281  68.878  1.00  0.00    -0.317 C  
HETATM   28  O   UNL     1      -9.788  16.542  69.387  1.00  0.00    -0.234 OA 
BRANCH  27  29
HETATM   29  N   UNL     1     -11.967  15.898  69.589  1.00  0.00    -0.310 N  
HETATM   30  H   UNL     1     -12.864  16.356  69.427  1.00  0.00     0.000 HD 
BRANCH  29  31
HETATM   31  C   UNL     1     -11.859  14.833  70.578  1.00  0.00    -0.302 C  
HETATM   32  C   UNL     1     -11.289  15.348  71.903  1.00  0.00    -0.466 C  
HETATM   33  C   UNL     1     -12.296  16.173  72.700  1.00  0.00    -0.574 C  
HETATM   34  C   UNL     1     -13.597  15.408  72.912  1.00  0.00    -0.609 C  
HETATM   35  C   UNL     1     -14.198  14.941  71.591  1.00  0.00    -0.633 C  
HETATM   36  C   UNL     1     -13.201  14.121  70.775  1.00  0.00    -0.212 C  
ENDBRANCH  29  31
ENDBRANCH  27  29
ENDBRANCH  25  27
ENDBRANCH  22  25
ENDBRANCH  19  22
ENDBRANCH  15  16
ENDBRANCH  14  15
ENDBRANCH  13  14
ENDBRANCH   4  10
ENDBRANCH   2   3
TORSDOF 10
ENDMDL
MODEL      125
REMARK 921   NORMALIZED FREE ENERGY PREDICTED BY IDOCK:   -5.29 KCAL/MOL
REMARK 922        TOTAL FREE ENERGY PREDICTED BY IDOCK:  -10.36 KCAL/MOL
REMARK 923 INTER-LIGAND FREE ENERGY PREDICTED BY IDOCK:   -9.28 KCAL/MOL
REMARK 924 INTRA-LIGAND FREE ENERGY PREDICTED BY IDOCK:   -1.07 KCAL/MOL
REMARK 927      BINDING AFFINITY PREDICTED BY RF-SCORE:    0.00 PKD
ROOT
HETATM    1  C   UNL     1      -6.893   8.188  68.890  1.00  0.00    -0.061 C  
HETATM    2  O   UNL     1      -7.079   7.014  69.679  1.00  0.00    -0.067 OA 
ENDROOT
BRANCH   2   3
HETATM    3  C   UNL     1      -7.668   5.954  69.040  1.00  0.00    -0.091 A  
HETATM    4  C   UNL     1      -8.511   5.089  69.770  1.00  0.00    -0.092 A  
HETATM    5  C   UNL     1      -9.106   3.994  69.117  1.00  0.00    -0.197 A  
HETATM    6  C   UNL     1      -7.381   5.660  67.697  1.00  0.00    -0.077 A  
HETATM    7 CL   UNL     1      -9.519   2.365  67.006  1.00  0.00    -0.025 Cl 
HETATM    8  C   UNL     1      -7.946   4.549  67.071  1.00  0.00    -0.102 A  
HETATM    9  C   UNL     1      -8.814   3.729  67.780  1.00  0.00    -0.114 A  
BRANCH   4  10
HETATM   10  C   UNL     1      -8.799   5.313  71.225  1.00  0.00    -0.136 C  
HETATM   11  H   UNL     1     -10.507   6.420  70.759  1.00  0.00     0.000 HD 
HETATM   12  O   UNL     1      -8.049   4.907  72.103  1.00  0.00    -0.107 OA 
HETATM   13  N   UNL     1      -9.970   6.000  71.518  1.00  0.00    -0.175 N  
BRANCH  13  14
HETATM   14  C   UNL     1     -10.445   6.132  72.883  1.00  0.00    -0.217 C  
BRANCH  14  15
HETATM   15  C   UNL     1     -10.890   7.556  73.238  1.00  0.00    -0.409 C  
BRANCH  15  16
HETATM   16  C   UNL     1     -10.861   8.559  72.098  1.00  0.00    -0.427 A  
HETATM   17  C   UNL     1     -12.008   9.214  71.622  1.00  0.00    -0.437 A  
HETATM   18  C   UNL     1     -11.943  10.073  70.521  1.00  0.00    -0.357 A  
HETATM   19  C   UNL     1     -10.722  10.297  69.887  1.00  0.00    -0.294 A  
HETATM   20  C   UNL     1      -9.633   8.825  71.469  1.00  0.00    -0.354 A  
HETATM   21  C   UNL     1      -9.563   9.676  70.361  1.00  0.00    -0.292 A  
BRANCH  19  22
HETATM   22  S   UNL     1     -10.679  11.250  68.386  1.00  0.00    -0.219 S  
HETATM   23  O   UNL     1     -12.054  11.459  67.973  1.00  0.00    -0.629 OA 
HETATM   24  O   UNL     1      -9.724  10.660  67.476  1.00  0.00    -0.163 OA 
BRANCH  22  25
HETATM   25  N   UNL     1     -10.140  12.750  68.857  1.00  0.00    -0.424 N  
HETATM   26  H   UNL     1      -9.147  12.859  69.064  1.00  0.00     0.000 HD 
BRANCH  25  27
HETATM   27  C   UNL     1     -10.957  13.860  68.985  1.00  0.00    -0.250 C  
HETATM   28  O   UNL     1     -11.054  14.718  68.127  1.00  0.00    -0.259 OA 
BRANCH  27  29
HETATM   29  N   UNL     1     -11.625  13.900  70.178  1.00  0.00    -0.459 N  
HETATM   30  H   UNL     1     -11.466  13.174  70.877  1.00  0.00     0.000 HD 
BRANCH  29  31
HETATM   31  C   UNL     1     -12.563  14.982  70.449  1.00  0.00    -0.350 C  
HETATM   32  C   UNL     1     -13.856  14.462  71.085  1.00  0.00    -0.249 C  
HETATM   33  C   UNL     1     -13.678  14.066  72.549  1.00  0.00    -0.651 C  
HETATM   34  C   UNL     1     -13.073  15.205  73.362  1.00  0.00    -0.588 C  
HETATM   35  C   UNL     1     -11.757  15.689  72.763  1.00  0.00    -0.537 C  
HETATM   36  C   UNL     1     -11.914  16.080  71.295  1.00  0.00    -0.475 C  
ENDBRANCH  29  31
ENDBRANCH  27  29
ENDBRANCH  25  27
ENDBRANCH  22  25
ENDBRANCH  19  22
ENDBRANCH  15  16
ENDBRANCH  14  15
ENDBRANCH  13  14
ENDBRANCH   4  10
ENDBRANCH   2   3
TORSDOF 10
ENDMDL
MODEL      126
REMARK 921   NORMALIZED FREE ENERGY PREDICTED BY IDOCK:   -5.29 KCAL/MOL
REMARK 922        TOTAL FREE ENERGY PREDICTED BY IDOCK:  -10.35 KCAL/MOL
REMARK 923 INTER-LIGAND FREE ENERGY PREDICTED BY IDOCK:   -8.52 KCAL/MOL
REMARK 924 INTRA-LIGAND FREE ENERGY PREDICTED BY IDOCK:   -1.83 KCAL/MOL
REMARK 927      BINDING AFFINITY PREDICTED BY RF-SCORE:    0.00 PKD
ROOT
HETATM    1  C   UNL     1     -10.481   9.999  67.292  1.00  0.00    -0.254 C  
HETATM    2  O   UNL     1     -11.572  10.153  68.199  1.00  0.00    -0.225 OA 
ENDROOT
BRANCH   2   3
HETATM    3  C   UNL     1     -11.755  11.415  68.703  1.00  0.00    -0.329 A  
HETATM    4  C   UNL     1     -11.995  11.579  70.083  1.00  0.00    -0.452 A  
HETATM    5  C   UNL     1     -12.194  12.872  70.598  1.00  0.00    -0.386 A  
HETATM    6  C   UNL     1     -11.796  12.537  67.861  1.00  0.00    -0.383 A  
HETATM    7 CL   UNL     1     -12.503  15.544  70.383  1.00  0.00    -0.448 Cl 
HETATM    8  C   UNL     1     -12.035  13.811  68.378  1.00  0.00    -0.395 A  
HETATM    9  C   UNL     1     -12.221  13.973  69.744  1.00  0.00    -0.341 A  
BRANCH   4  10
HETATM   10  C   UNL     1     -12.030  10.408  71.022  1.00  0.00    -0.382 C  
HETATM   11  H   UNL     1     -14.070  10.691  71.365  1.00  0.00     0.000 HD 
HETATM   12  O   UNL     1     -11.020   9.779  71.308  1.00  0.00    -0.351 OA 
HETATM   13  N   UNL     1     -13.276  10.075  71.537  1.00  0.00    -0.395 N  
BRANCH  13  14
HETATM   14  C   UNL     1     -13.469   8.866  72.318  1.00  0.00    -0.455 C  
BRANCH  14  15
HETATM   15  C   UNL     1     -13.659   7.610  71.458  1.00  0.00    -0.422 C  
BRANCH  15  16
HETATM   16  C   UNL     1     -12.422   6.751  71.264  1.00  0.00    -0.365 A  
HETATM   17  C   UNL     1     -11.747   6.124  72.324  1.00  0.00    -0.352 A  
HETATM   18  C   UNL     1     -10.569   5.405  72.104  1.00  0.00    -0.284 A  
HETATM   19  C   UNL     1     -10.055   5.294  70.812  1.00  0.00    -0.224 A  
HETATM   20  C   UNL     1     -11.908   6.598  69.965  1.00  0.00    -0.301 A  
HETATM   21  C   UNL     1     -10.725   5.887  69.739  1.00  0.00    -0.411 A  
BRANCH  19  22
HETATM   22  S   UNL     1      -8.468   4.528  70.567  1.00  0.00    -0.082 S  
HETATM   23  O   UNL     1      -8.701   3.272  69.880  1.00  0.00    -0.066 OA 
HETATM   24  O   UNL     1      -7.730   4.557  71.809  1.00  0.00    -0.085 OA 
BRANCH  22  25
HETATM   25  N   UNL     1      -7.706   5.494  69.449  1.00  0.00    -0.085 N  
HETATM   26  H   UNL     1      -7.859   6.501  69.502  1.00  0.00     0.000 HD 
BRANCH  25  27
HETATM   27  C   UNL     1      -6.876   5.014  68.450  1.00  0.00    -0.056 C  
HETATM   28  O   UNL     1      -5.662   5.089  68.501  1.00  0.00    -0.015 OA 
BRANCH  27  29
HETATM   29  N   UNL     1      -7.560   4.467  67.400  1.00  0.00    -0.080 N  
HETATM   30  H   UNL     1      -7.280   3.561  67.024  1.00  0.00     0.000 HD 
BRANCH  29  31
HETATM   31  C   UNL     1      -8.690   5.180  66.820  1.00  0.00    -0.108 C  
HETATM   32  C   UNL     1      -8.260   6.052  65.635  1.00  0.00    -0.139 C  
HETATM   33  C   UNL     1      -7.954   5.237  64.381  1.00  0.00    -0.114 C  
HETATM   34  C   UNL     1      -9.121   4.328  64.011  1.00  0.00    -0.146 C  
HETATM   35  C   UNL     1      -9.517   3.420  65.170  1.00  0.00    -0.152 C  
HETATM   36  C   UNL     1      -9.817   4.217  66.437  1.00  0.00    -0.236 C  
ENDBRANCH  29  31
ENDBRANCH  27  29
ENDBRANCH  25  27
ENDBRANCH  22  25
ENDBRANCH  19  22
ENDBRANCH  15  16
ENDBRANCH  14  15
ENDBRANCH  13  14
ENDBRANCH   4  10
ENDBRANCH   2   3
TORSDOF 10
ENDMDL
MODEL      127
REMARK 921   NORMALIZED FREE ENERGY PREDICTED BY IDOCK:   -5.29 KCAL/MOL
REMARK 922        TOTAL FREE ENERGY PREDICTED BY IDOCK:  -10.35 KCAL/MOL
REMARK 923 INTER-LIGAND FREE ENERGY PREDICTED BY IDOCK:   -8.58 KCAL/MOL
REMARK 924 INTRA-LIGAND FREE ENERGY PREDICTED BY IDOCK:   -1.77 KCAL/MOL
REMARK 927      BINDING AFFINITY PREDICTED BY RF-SCORE:    0.00 PKD
ROOT
HETATM    1  C   UNL     1     -12.028  11.975  68.368  1.00  0.00    -0.194 C  
HETATM    2  O   UNL     1     -11.276  12.532  69.445  1.00  0.00    -0.225 OA 
ENDROOT
BRANCH   2   3
HETATM    3  C   UNL     1     -11.966  13.368  70.283  1.00  0.00    -0.308 A  
HETATM    4  C   UNL     1     -11.745  14.760  70.205  1.00  0.00    -0.351 A  
HETATM    5  C   UNL     1     -12.445  15.618  71.073  1.00  0.00    -0.501 A  
HETATM    6  C   UNL     1     -12.821  12.864  71.276  1.00  0.00    -0.361 A  
HETATM    7 CL   UNL     1     -14.116  16.153  73.123  1.00  0.00    -0.241 Cl 
HETATM    8  C   UNL     1     -13.479  13.722  72.157  1.00  0.00    -0.596 A  
HETATM    9  C   UNL     1     -13.297  15.094  72.044  1.00  0.00    -0.398 A  
BRANCH   4  10
HETATM   10  C   UNL     1     -10.791  15.351  69.210  1.00  0.00    -0.253 C  
HETATM   11  H   UNL     1     -12.209  15.183  67.687  1.00  0.00     0.000 HD 
HETATM   12  O   UNL     1      -9.643  15.650  69.514  1.00  0.00    -0.261 OA 
HETATM   13  N   UNL     1     -11.288  15.549  67.928  1.00  0.00    -0.330 N  
BRANCH  13  14
HETATM   14  C   UNL     1     -10.522  16.266  66.925  1.00  0.00    -0.302 C  
BRANCH  14  15
HETATM   15  C   UNL     1     -10.323  15.473  65.628  1.00  0.00    -0.407 C  
BRANCH  15  16
HETATM   16  C   UNL     1     -10.051  13.988  65.799  1.00  0.00    -0.345 A  
HETATM   17  C   UNL     1      -9.074  13.482  66.673  1.00  0.00    -0.182 A  
HETATM   18  C   UNL     1      -8.810  12.111  66.740  1.00  0.00    -0.198 A  
HETATM   19  C   UNL     1      -9.529  11.225  65.939  1.00  0.00    -0.222 A  
HETATM   20  C   UNL     1     -10.790  13.077  65.027  1.00  0.00    -0.328 A  
HETATM   21  C   UNL     1     -10.524  11.705  65.083  1.00  0.00    -0.329 A  
BRANCH  19  22
HETATM   22  S   UNL     1      -9.066   9.507  65.903  1.00  0.00    -0.201 S  
HETATM   23  O   UNL     1      -7.950   9.346  66.815  1.00  0.00    -0.107 OA 
HETATM   24  O   UNL     1      -8.956   9.074  64.529  1.00  0.00    -0.152 OA 
BRANCH  22  25
HETATM   25  N   UNL     1     -10.334   8.717  66.632  1.00  0.00    -0.275 N  
HETATM   26  H   UNL     1     -11.129   9.273  66.945  1.00  0.00     0.000 HD 
BRANCH  25  27
HETATM   27  C   UNL     1     -10.375   7.349  66.840  1.00  0.00    -0.296 C  
HETATM   28  O   UNL     1     -11.011   6.832  67.739  1.00  0.00    -0.256 OA 
BRANCH  27  29
HETATM   29  N   UNL     1      -9.616   6.646  65.945  1.00  0.00    -0.385 N  
HETATM   30  H   UNL     1      -9.498   6.993  64.992  1.00  0.00     0.000 HD 
BRANCH  29  31
HETATM   31  C   UNL     1      -8.977   5.403  66.354  1.00  0.00    -0.131 C  
HETATM   32  C   UNL     1      -9.191   4.291  65.321  1.00  0.00    -0.153 C  
HETATM   33  C   UNL     1      -8.340   4.477  64.067  1.00  0.00    -0.116 C  
HETATM   34  C   UNL     1      -6.865   4.638  64.416  1.00  0.00    -0.045 C  
HETATM   35  C   UNL     1      -6.641   5.779  65.402  1.00  0.00    -0.043 C  
HETATM   36  C   UNL     1      -7.492   5.616  66.659  1.00  0.00    -0.087 C  
ENDBRANCH  29  31
ENDBRANCH  27  29
ENDBRANCH  25  27
ENDBRANCH  22  25
ENDBRANCH  19  22
ENDBRANCH  15  16
ENDBRANCH  14  15
ENDBRANCH  13  14
ENDBRANCH   4  10
ENDBRANCH   2   3
TORSDOF 10
ENDMDL
MODEL      128
REMARK 921   NORMALIZED FREE ENERGY PREDICTED BY IDOCK:   -5.28 KCAL/MOL
REMARK 922        TOTAL FREE ENERGY PREDICTED BY IDOCK:  -10.33 KCAL/MOL
REMARK 923 INTER-LIGAND FREE ENERGY PREDICTED BY IDOCK:   -8.50 KCAL/MOL
REMARK 924 INTRA-LIGAND FREE ENERGY PREDICTED BY IDOCK:   -1.83 KCAL/MOL
REMARK 927      BINDING AFFINITY PREDICTED BY RF-SCORE:    0.00 PKD
ROOT
HETATM    1  C   UNL     1      -9.980  10.264  69.454  1.00  0.00    -0.233 C  
HETATM    2  O   UNL     1     -11.363  10.551  69.251  1.00  0.00    -0.240 OA 
ENDROOT
BRANCH   2   3
HETATM    3  C   UNL     1     -11.895  11.520  70.062  1.00  0.00    -0.355 A  
HETATM    4  C   UNL     1     -12.668  11.137  71.178  1.00  0.00    -0.510 A  
HETATM    5  C   UNL     1     -13.224  12.130  72.004  1.00  0.00    -0.496 A  
HETATM    6  C   UNL     1     -11.763  12.883  69.754  1.00  0.00    -0.351 A  
HETATM    7 CL   UNL     1     -13.788  14.681  72.682  1.00  0.00    -0.531 Cl 
HETATM    8  C   UNL     1     -12.353  13.859  70.558  1.00  0.00    -0.439 A  
HETATM    9  C   UNL     1     -13.070  13.478  71.684  1.00  0.00    -0.374 A  
BRANCH   4  10
HETATM   10  C   UNL     1     -12.901   9.693  71.517  1.00  0.00    -0.392 C  
HETATM   11  H   UNL     1     -10.967   9.517  72.283  1.00  0.00     0.000 HD 
HETATM   12  O   UNL     1     -13.950   9.126  71.240  1.00  0.00    -0.302 OA 
HETATM   13  N   UNL     1     -11.864   9.043  72.172  1.00  0.00    -0.346 N  
BRANCH  13  14
HETATM   14  C   UNL     1     -12.031   7.702  72.702  1.00  0.00    -0.159 C  
BRANCH  14  15
HETATM   15  C   UNL     1     -10.845   6.777  72.402  1.00  0.00    -0.270 C  
BRANCH  15  16
HETATM   16  C   UNL     1     -10.419   6.703  70.946  1.00  0.00    -0.249 A  
HETATM   17  C   UNL     1     -11.317   6.457  69.894  1.00  0.00    -0.500 A  
HETATM   18  C   UNL     1     -10.866   6.324  68.578  1.00  0.00    -0.394 A  
HETATM   19  C   UNL     1      -9.506   6.446  68.295  1.00  0.00    -0.121 A  
HETATM   20  C   UNL     1      -9.058   6.858  70.636  1.00  0.00    -0.155 A  
HETATM   21  C   UNL     1      -8.598   6.717  69.322  1.00  0.00    -0.131 A  
BRANCH  19  22
HETATM   22  S   UNL     1      -8.922   6.102  66.650  1.00  0.00    -0.133 S  
HETATM   23  O   UNL     1      -9.673   4.961  66.160  1.00  0.00    -0.158 OA 
HETATM   24  O   UNL     1      -7.478   6.079  66.654  1.00  0.00    -0.087 OA 
BRANCH  22  25
HETATM   25  N   UNL     1      -9.453   7.388  65.739  1.00  0.00    -0.381 N  
HETATM   26  H   UNL     1      -9.865   7.191  64.827  1.00  0.00     0.000 HD 
BRANCH  25  27
HETATM   27  C   UNL     1      -9.370   8.708  66.145  1.00  0.00    -0.226 C  
HETATM   28  O   UNL     1     -10.346   9.414  66.318  1.00  0.00    -0.240 OA 
BRANCH  27  29
HETATM   29  N   UNL     1      -8.082   9.139  66.310  1.00  0.00    -0.109 N  
HETATM   30  H   UNL     1      -7.504   8.748  67.054  1.00  0.00     0.000 HD 
BRANCH  29  31
HETATM   31  C   UNL     1      -7.538  10.157  65.421  1.00  0.00    -0.144 C  
HETATM   32  C   UNL     1      -6.016  10.274  65.560  1.00  0.00    -0.111 C  
HETATM   33  C   UNL     1      -5.272   9.111  64.908  1.00  0.00    -0.041 C  
HETATM   34  C   UNL     1      -5.688   8.931  63.453  1.00  0.00    -0.076 C  
HETATM   35  C   UNL     1      -7.197   8.760  63.314  1.00  0.00    -0.094 C  
HETATM   36  C   UNL     1      -7.959   9.909  63.970  1.00  0.00    -0.150 C  
ENDBRANCH  29  31
ENDBRANCH  27  29
ENDBRANCH  25  27
ENDBRANCH  22  25
ENDBRANCH  19  22
ENDBRANCH  15  16
ENDBRANCH  14  15
ENDBRANCH  13  14
ENDBRANCH   4  10
ENDBRANCH   2   3
TORSDOF 10
ENDMDL
MODEL      129
REMARK 921   NORMALIZED FREE ENERGY PREDICTED BY IDOCK:   -5.27 KCAL/MOL
REMARK 922        TOTAL FREE ENERGY PREDICTED BY IDOCK:  -10.33 KCAL/MOL
REMARK 923 INTER-LIGAND FREE ENERGY PREDICTED BY IDOCK:   -8.27 KCAL/MOL
REMARK 924 INTRA-LIGAND FREE ENERGY PREDICTED BY IDOCK:   -2.05 KCAL/MOL
REMARK 927      BINDING AFFINITY PREDICTED BY RF-SCORE:    0.00 PKD
ROOT
HETATM    1  C   UNL     1     -11.245  11.432  67.718  1.00  0.00    -0.283 C  
HETATM    2  O   UNL     1     -11.491  11.036  69.066  1.00  0.00    -0.248 OA 
ENDROOT
BRANCH   2   3
HETATM    3  C   UNL     1     -12.012  12.003  69.886  1.00  0.00    -0.318 A  
HETATM    4  C   UNL     1     -12.732  11.618  71.036  1.00  0.00    -0.395 A  
HETATM    5  C   UNL     1     -13.277  12.610  71.871  1.00  0.00    -0.504 A  
HETATM    6  C   UNL     1     -11.920  13.365  69.557  1.00  0.00    -0.377 A  
HETATM    7 CL   UNL     1     -13.869  15.157  72.540  1.00  0.00    -0.581 Cl 
HETATM    8  C   UNL     1     -12.499  14.338  70.372  1.00  0.00    -0.426 A  
HETATM    9  C   UNL     1     -13.164  13.957  71.530  1.00  0.00    -0.352 A  
BRANCH   4  10
HETATM   10  C   UNL     1     -12.922  10.175  71.401  1.00  0.00    -0.429 C  
HETATM   11  H   UNL     1     -10.898   9.986  71.878  1.00  0.00     0.000 HD 
HETATM   12  O   UNL     1     -14.003   9.613  71.276  1.00  0.00    -0.202 OA 
HETATM   13  N   UNL     1     -11.804   9.517  71.896  1.00  0.00    -0.350 N  
BRANCH  13  14
HETATM   14  C   UNL     1     -11.899   8.175  72.441  1.00  0.00    -0.388 C  
BRANCH  14  15
HETATM   15  C   UNL     1     -10.593   7.379  72.331  1.00  0.00    -0.285 C  
BRANCH  15  16
HETATM   16  C   UNL     1     -10.340   6.709  70.992  1.00  0.00    -0.234 A  
HETATM   17  C   UNL     1     -11.253   6.754  69.926  1.00  0.00    -0.379 A  
HETATM   18  C   UNL     1     -11.008   6.059  68.738  1.00  0.00    -0.384 A  
HETATM   19  C   UNL     1      -9.836   5.317  68.597  1.00  0.00    -0.155 A  
HETATM   20  C   UNL     1      -9.148   5.986  70.818  1.00  0.00    -0.161 A  
HETATM   21  C   UNL     1      -8.901   5.281  69.635  1.00  0.00    -0.126 A  
BRANCH  19  22
HETATM   22  S   UNL     1      -9.615   4.298  67.155  1.00  0.00    -0.186 S  
HETATM   23  O   UNL     1     -10.603   4.719  66.179  1.00  0.00    -0.309 OA 
HETATM   24  O   UNL     1      -9.531   2.914  67.560  1.00  0.00    -0.202 OA 
BRANCH  22  25
HETATM   25  N   UNL     1      -8.155   4.779  66.522  1.00  0.00    -0.107 N  
HETATM   26  H   UNL     1      -7.339   4.195  66.703  1.00  0.00     0.000 HD 
BRANCH  25  27
HETATM   27  C   UNL     1      -7.981   5.924  65.764  1.00  0.00    -0.111 C  
HETATM   28  O   UNL     1      -8.311   6.006  64.596  1.00  0.00    -0.131 OA 
BRANCH  27  29
HETATM   29  N   UNL     1      -7.385   6.942  66.458  1.00  0.00    -0.072 N  
HETATM   30  H   UNL     1      -6.635   6.739  67.119  1.00  0.00     0.000 HD 
BRANCH  29  31
HETATM   31  C   UNL     1      -7.823   8.316  66.250  1.00  0.00    -0.098 C  
HETATM   32  C   UNL     1      -8.999   8.678  67.163  1.00  0.00    -0.148 C  
HETATM   33  C   UNL     1      -8.578   8.887  68.615  1.00  0.00    -0.133 C  
HETATM   34  C   UNL     1      -7.450   9.907  68.725  1.00  0.00    -0.079 C  
HETATM   35  C   UNL     1      -6.255   9.522  67.860  1.00  0.00    -0.053 C  
HETATM   36  C   UNL     1      -6.660   9.299  66.404  1.00  0.00    -0.067 C  
ENDBRANCH  29  31
ENDBRANCH  27  29
ENDBRANCH  25  27
ENDBRANCH  22  25
ENDBRANCH  19  22
ENDBRANCH  15  16
ENDBRANCH  14  15
ENDBRANCH  13  14
ENDBRANCH   4  10
ENDBRANCH   2   3
TORSDOF 10
ENDMDL
MODEL      130
REMARK 921   NORMALIZED FREE ENERGY PREDICTED BY IDOCK:   -5.27 KCAL/MOL
REMARK 922        TOTAL FREE ENERGY PREDICTED BY IDOCK:  -10.32 KCAL/MOL
REMARK 923 INTER-LIGAND FREE ENERGY PREDICTED BY IDOCK:   -9.58 KCAL/MOL
REMARK 924 INTRA-LIGAND FREE ENERGY PREDICTED BY IDOCK:   -0.74 KCAL/MOL
REMARK 927      BINDING AFFINITY PREDICTED BY RF-SCORE:    0.00 PKD
ROOT
HETATM    1  C   UNL     1     -10.684   7.521  66.988  1.00  0.00    -0.297 C  
HETATM    2  O   UNL     1     -10.962   6.952  68.266  1.00  0.00    -0.202 OA 
ENDROOT
BRANCH   2   3
HETATM    3  C   UNL     1     -10.423   5.712  68.496  1.00  0.00    -0.203 A  
HETATM    4  C   UNL     1     -10.159   5.309  69.822  1.00  0.00    -0.334 A  
HETATM    5  C   UNL     1      -9.595   4.042  70.057  1.00  0.00    -0.274 A  
HETATM    6  C   UNL     1     -10.048   4.872  67.435  1.00  0.00    -0.196 A  
HETATM    7 CL   UNL     1      -8.518   1.690  69.290  1.00  0.00    -0.073 Cl 
HETATM    8  C   UNL     1      -9.453   3.634  67.680  1.00  0.00    -0.234 A  
HETATM    9  C   UNL     1      -9.241   3.221  68.988  1.00  0.00    -0.158 A  
BRANCH   4  10
HETATM   10  C   UNL     1     -10.475   6.194  70.992  1.00  0.00    -0.229 C  
HETATM   11  H   UNL     1      -8.702   7.261  70.719  1.00  0.00     0.000 HD 
HETATM   12  O   UNL     1     -11.473   6.022  71.680  1.00  0.00    -0.282 OA 
HETATM   13  N   UNL     1      -9.577   7.222  71.242  1.00  0.00    -0.163 N  
BRANCH  13  14
HETATM   14  C   UNL     1      -9.858   8.243  72.235  1.00  0.00    -0.294 C  
BRANCH  14  15
HETATM   15  C   UNL     1     -11.131   9.045  71.941  1.00  0.00    -0.433 C  
BRANCH  15  16
HETATM   16  C   UNL     1     -11.097   9.897  70.684  1.00  0.00    -0.409 A  
HETATM   17  C   UNL     1     -12.213  10.601  70.202  1.00  0.00    -0.398 A  
HETATM   18  C   UNL     1     -12.153  11.311  69.000  1.00  0.00    -0.325 A  
HETATM   19  C   UNL     1     -10.967  11.336  68.267  1.00  0.00    -0.224 A  
HETATM   20  C   UNL     1      -9.901   9.963  69.950  1.00  0.00    -0.285 A  
HETATM   21  C   UNL     1      -9.837  10.664  68.741  1.00  0.00    -0.196 A  
BRANCH  19  22
HETATM   22  S   UNL     1     -10.951  12.093  66.657  1.00  0.00    -0.297 S  
HETATM   23  O   UNL     1     -12.299  12.001  66.128  1.00  0.00    -0.449 OA 
HETATM   24  O   UNL     1      -9.832  11.579  65.902  1.00  0.00    -0.215 OA 
BRANCH  22  25
HETATM   25  N   UNL     1     -10.718  13.712  66.958  1.00  0.00    -0.277 N  
HETATM   26  H   UNL     1     -10.577  14.003  67.926  1.00  0.00     0.000 HD 
BRANCH  25  27
HETATM   27  C   UNL     1     -10.703  14.687  65.976  1.00  0.00    -0.312 C  
HETATM   28  O   UNL     1     -10.615  14.434  64.789  1.00  0.00    -0.421 OA 
BRANCH  27  29
HETATM   29  N   UNL     1     -10.780  15.957  66.479  1.00  0.00    -0.293 N  
HETATM   30  H   UNL     1     -11.529  16.206  67.125  1.00  0.00     0.000 HD 
BRANCH  29  31
HETATM   31  C   UNL     1      -9.790  16.952  66.090  1.00  0.00    -0.297 C  
HETATM   32  C   UNL     1     -10.386  18.362  66.063  1.00  0.00    -0.397 C  
HETATM   33  C   UNL     1     -10.615  18.935  67.460  1.00  0.00    -0.524 C  
HETATM   34  C   UNL     1      -9.342  18.883  68.297  1.00  0.00    -0.384 C  
HETATM   35  C   UNL     1      -8.774  17.470  68.373  1.00  0.00    -0.276 C  
HETATM   36  C   UNL     1      -8.548  16.877  66.984  1.00  0.00    -0.229 C  
ENDBRANCH  29  31
ENDBRANCH  27  29
ENDBRANCH  25  27
ENDBRANCH  22  25
ENDBRANCH  19  22
ENDBRANCH  15  16
ENDBRANCH  14  15
ENDBRANCH  13  14
ENDBRANCH   4  10
ENDBRANCH   2   3
TORSDOF 10
ENDMDL
MODEL      131
REMARK 921   NORMALIZED FREE ENERGY PREDICTED BY IDOCK:   -5.26 KCAL/MOL
REMARK 922        TOTAL FREE ENERGY PREDICTED BY IDOCK:  -10.30 KCAL/MOL
REMARK 923 INTER-LIGAND FREE ENERGY PREDICTED BY IDOCK:   -8.25 KCAL/MOL
REMARK 924 INTRA-LIGAND FREE ENERGY PREDICTED BY IDOCK:   -2.06 KCAL/MOL
REMARK 927      BINDING AFFINITY PREDICTED BY RF-SCORE:    0.00 PKD
ROOT
HETATM    1  C   UNL     1      -7.821   6.033  68.778  1.00  0.00    -0.100 C  
HETATM    2  O   UNL     1      -9.201   6.103  69.134  1.00  0.00    -0.127 OA 
ENDROOT
BRANCH   2   3
HETATM    3  C   UNL     1      -9.551   5.455  70.291  1.00  0.00    -0.177 A  
HETATM    4  C   UNL     1      -9.913   6.215  71.424  1.00  0.00    -0.218 A  
HETATM    5  C   UNL     1     -10.261   5.551  72.614  1.00  0.00    -0.222 A  
HETATM    6  C   UNL     1      -9.472   4.058  70.398  1.00  0.00    -0.252 A  
HETATM    7 CL   UNL     1     -10.576   3.367  74.167  1.00  0.00    -0.253 Cl 
HETATM    8  C   UNL     1      -9.781   3.414  71.595  1.00  0.00    -0.234 A  
HETATM    9  C   UNL     1     -10.184   4.162  72.693  1.00  0.00    -0.169 A  
BRANCH   4  10
HETATM   10  C   UNL     1      -9.949   7.715  71.389  1.00  0.00    -0.181 C  
HETATM   11  H   UNL     1     -11.892   7.692  70.625  1.00  0.00     0.000 HD 
HETATM   12  O   UNL     1      -8.979   8.391  71.704  1.00  0.00    -0.160 OA 
HETATM   13  N   UNL     1     -11.148   8.288  70.987  1.00  0.00    -0.245 N  
BRANCH  13  14
HETATM   14  C   UNL     1     -11.363   9.721  71.074  1.00  0.00    -0.387 C  
BRANCH  14  15
HETATM   15  C   UNL     1     -11.574  10.389  69.709  1.00  0.00    -0.339 C  
BRANCH  15  16
HETATM   16  C   UNL     1     -10.516  10.094  68.661  1.00  0.00    -0.225 A  
HETATM   17  C   UNL     1      -9.300  10.792  68.579  1.00  0.00    -0.174 A  
HETATM   18  C   UNL     1      -8.389  10.535  67.550  1.00  0.00    -0.118 A  
HETATM   19  C   UNL     1      -8.680   9.564  66.592  1.00  0.00    -0.134 A  
HETATM   20  C   UNL     1     -10.775   9.094  67.708  1.00  0.00    -0.243 A  
HETATM   21  C   UNL     1      -9.872   8.839  66.671  1.00  0.00    -0.335 A  
BRANCH  19  22
HETATM   22  S   UNL     1      -7.600   9.367  65.192  1.00  0.00    -0.113 S  
HETATM   23  O   UNL     1      -8.087   8.231  64.434  1.00  0.00    -0.148 OA 
HETATM   24  O   UNL     1      -6.228   9.413  65.641  1.00  0.00    -0.062 OA 
BRANCH  22  25
HETATM   25  N   UNL     1      -7.913  10.688  64.233  1.00  0.00    -0.357 N  
HETATM   26  H   UNL     1      -7.168  11.372  64.102  1.00  0.00     0.000 HD 
BRANCH  25  27
HETATM   27  C   UNL     1      -9.124  10.917  63.602  1.00  0.00    -0.186 C  
HETATM   28  O   UNL     1      -9.493  10.291  62.626  1.00  0.00    -0.300 OA 
BRANCH  27  29
HETATM   29  N   UNL     1      -9.847  11.926  64.176  1.00  0.00    -0.438 N  
HETATM   30  H   UNL     1      -9.413  12.834  64.344  1.00  0.00     0.000 HD 
BRANCH  29  31
HETATM   31  C   UNL     1     -11.238  11.702  64.547  1.00  0.00    -0.269 C  
HETATM   32  C   UNL     1     -11.527  12.182  65.972  1.00  0.00    -0.427 C  
HETATM   33  C   UNL     1     -11.599  13.703  66.081  1.00  0.00    -0.369 C  
HETATM   34  C   UNL     1     -12.595  14.284  65.084  1.00  0.00    -0.384 C  
HETATM   35  C   UNL     1     -12.279  13.853  63.656  1.00  0.00    -0.232 C  
HETATM   36  C   UNL     1     -12.192  12.334  63.530  1.00  0.00    -0.669 C  
ENDBRANCH  29  31
ENDBRANCH  27  29
ENDBRANCH  25  27
ENDBRANCH  22  25
ENDBRANCH  19  22
ENDBRANCH  15  16
ENDBRANCH  14  15
ENDBRANCH  13  14
ENDBRANCH   4  10
ENDBRANCH   2   3
TORSDOF 10
ENDMDL
MODEL      132
REMARK 921   NORMALIZED FREE ENERGY PREDICTED BY IDOCK:   -5.26 KCAL/MOL
REMARK 922        TOTAL FREE ENERGY PREDICTED BY IDOCK:  -10.30 KCAL/MOL
REMARK 923 INTER-LIGAND FREE ENERGY PREDICTED BY IDOCK:   -8.32 KCAL/MOL
REMARK 924 INTRA-LIGAND FREE ENERGY PREDICTED BY IDOCK:   -1.98 KCAL/MOL
REMARK 927      BINDING AFFINITY PREDICTED BY RF-SCORE:    0.00 PKD
ROOT
HETATM    1  C   UNL     1     -13.048  13.997  65.336  1.00  0.00    -0.176 C  
HETATM    2  O   UNL     1     -11.780  13.677  64.765  1.00  0.00    -0.347 OA 
ENDROOT
BRANCH   2   3
HETATM    3  C   UNL     1     -10.688  14.192  65.414  1.00  0.00    -0.342 A  
HETATM    4  C   UNL     1      -9.986  13.382  66.333  1.00  0.00    -0.293 A  
HETATM    5  C   UNL     1      -8.873  13.914  67.007  1.00  0.00    -0.231 A  
HETATM    6  C   UNL     1     -10.307  15.533  65.251  1.00  0.00    -0.416 A  
HETATM    7 CL   UNL     1      -7.166  15.892  67.682  1.00  0.00    -0.163 Cl 
HETATM    8  C   UNL     1      -9.225  16.060  65.956  1.00  0.00    -0.375 A  
HETATM    9  C   UNL     1      -8.507  15.246  66.821  1.00  0.00    -0.255 A  
BRANCH   4  10
HETATM   10  C   UNL     1     -10.390  11.961  66.599  1.00  0.00    -0.211 C  
HETATM   11  H   UNL     1      -9.275  11.294  64.965  1.00  0.00     0.000 HD 
HETATM   12  O   UNL     1     -11.165  11.669  67.500  1.00  0.00    -0.254 OA 
HETATM   13  N   UNL     1      -9.825  11.000  65.772  1.00  0.00    -0.223 N  
BRANCH  13  14
HETATM   14  C   UNL     1     -10.002   9.583  66.035  1.00  0.00    -0.278 C  
BRANCH  14  15
HETATM   15  C   UNL     1      -8.681   8.835  66.255  1.00  0.00    -0.169 C  
BRANCH  15  16
HETATM   16  C   UNL     1      -8.363   8.470  67.694  1.00  0.00    -0.129 A  
HETATM   17  C   UNL     1      -8.178   7.148  68.129  1.00  0.00    -0.124 A  
HETATM   18  C   UNL     1      -7.960   6.857  69.479  1.00  0.00    -0.125 A  
HETATM   19  C   UNL     1      -7.913   7.892  70.413  1.00  0.00    -0.097 A  
HETATM   20  C   UNL     1      -8.276   9.502  68.644  1.00  0.00    -0.112 A  
HETATM   21  C   UNL     1      -8.067   9.217  69.998  1.00  0.00    -0.140 A  
BRANCH  19  22
HETATM   22  S   UNL     1      -7.811   7.500  72.145  1.00  0.00    -0.098 S  
HETATM   23  O   UNL     1      -8.072   8.726  72.877  1.00  0.00    -0.404 OA 
HETATM   24  O   UNL     1      -6.604   6.744  72.391  1.00  0.00    -0.057 OA 
BRANCH  22  25
HETATM   25  N   UNL     1      -9.135   6.538  72.436  1.00  0.00    -0.134 N  
HETATM   26  H   UNL     1      -9.167   5.620  71.992  1.00  0.00     0.000 HD 
BRANCH  25  27
HETATM   27  C   UNL     1     -10.197   6.907  73.243  1.00  0.00    -0.258 C  
HETATM   28  O   UNL     1     -10.498   6.311  74.261  1.00  0.00    -0.305 OA 
BRANCH  27  29
HETATM   29  N   UNL     1     -10.880   7.994  72.769  1.00  0.00    -0.368 N  
HETATM   30  H   UNL     1     -10.902   8.859  73.309  1.00  0.00     0.000 HD 
BRANCH  29  31
HETATM   31  C   UNL     1     -11.575   7.913  71.492  1.00  0.00    -0.270 C  
HETATM   32  C   UNL     1     -13.072   7.644  71.679  1.00  0.00    -0.392 C  
HETATM   33  C   UNL     1     -13.836   8.870  72.173  1.00  0.00    -0.531 C  
HETATM   34  C   UNL     1     -13.593  10.076  71.273  1.00  0.00    -0.236 C  
HETATM   35  C   UNL     1     -12.107  10.381  71.127  1.00  0.00    -0.487 C  
HETATM   36  C   UNL     1     -11.324   9.162  70.643  1.00  0.00    -0.323 C  
ENDBRANCH  29  31
ENDBRANCH  27  29
ENDBRANCH  25  27
ENDBRANCH  22  25
ENDBRANCH  19  22
ENDBRANCH  15  16
ENDBRANCH  14  15
ENDBRANCH  13  14
ENDBRANCH   4  10
ENDBRANCH   2   3
TORSDOF 10
ENDMDL
MODEL      133
REMARK 921   NORMALIZED FREE ENERGY PREDICTED BY IDOCK:   -5.24 KCAL/MOL
REMARK 922        TOTAL FREE ENERGY PREDICTED BY IDOCK:  -10.28 KCAL/MOL
REMARK 923 INTER-LIGAND FREE ENERGY PREDICTED BY IDOCK:   -8.46 KCAL/MOL
REMARK 924 INTRA-LIGAND FREE ENERGY PREDICTED BY IDOCK:   -1.82 KCAL/MOL
REMARK 927      BINDING AFFINITY PREDICTED BY RF-SCORE:    0.00 PKD
ROOT
HETATM    1  C   UNL     1     -11.712  13.631  66.901  1.00  0.00    -0.389 C  
HETATM    2  O   UNL     1     -11.103  13.249  68.134  1.00  0.00    -0.239 OA 
ENDROOT
BRANCH   2   3
HETATM    3  C   UNL     1     -11.661  13.785  69.265  1.00  0.00    -0.327 A  
HETATM    4  C   UNL     1     -12.276  12.930  70.204  1.00  0.00    -0.336 A  
HETATM    5  C   UNL     1     -12.859  13.481  71.359  1.00  0.00    -0.440 A  
HETATM    6  C   UNL     1     -11.712  15.174  69.466  1.00  0.00    -0.351 A  
HETATM    7 CL   UNL     1     -13.638  15.524  72.941  1.00  0.00    -0.623 Cl 
HETATM    8  C   UNL     1     -12.328  15.711  70.596  1.00  0.00    -0.457 A  
HETATM    9  C   UNL     1     -12.888  14.862  71.542  1.00  0.00    -0.335 A  
BRANCH   4  10
HETATM   10  C   UNL     1     -12.313  11.442  70.008  1.00  0.00    -0.237 C  
HETATM   11  H   UNL     1     -12.318  11.129  72.073  1.00  0.00     0.000 HD 
HETATM   12  O   UNL     1     -12.274  10.936  68.895  1.00  0.00    -0.494 OA 
HETATM   13  N   UNL     1     -12.403  10.676  71.163  1.00  0.00    -0.379 N  
BRANCH  13  14
HETATM   14  C   UNL     1     -12.616   9.241  71.099  1.00  0.00    -0.257 C  
BRANCH  14  15
HETATM   15  C   UNL     1     -12.335   8.524  72.426  1.00  0.00    -0.424 C  
BRANCH  15  16
HETATM   16  C   UNL     1     -11.082   7.667  72.459  1.00  0.00    -0.388 A  
HETATM   17  C   UNL     1      -9.901   8.057  73.112  1.00  0.00    -0.332 A  
HETATM   18  C   UNL     1      -8.750   7.267  73.051  1.00  0.00    -0.160 A  
HETATM   19  C   UNL     1      -8.769   6.066  72.343  1.00  0.00    -0.126 A  
HETATM   20  C   UNL     1     -11.092   6.436  71.781  1.00  0.00    -0.311 A  
HETATM   21  C   UNL     1      -9.941   5.645  71.709  1.00  0.00    -0.222 A  
BRANCH  19  22
HETATM   22  S   UNL     1      -7.255   5.156  72.126  1.00  0.00    -0.088 S  
HETATM   23  O   UNL     1      -7.608   3.751  72.054  1.00  0.00    -0.055 OA 
HETATM   24  O   UNL     1      -6.281   5.618  73.088  1.00  0.00    -0.056 OA 
BRANCH  22  25
HETATM   25  N   UNL     1      -6.747   5.549  70.592  1.00  0.00    -0.045 N  
HETATM   26  H   UNL     1      -6.422   4.795  69.988  1.00  0.00     0.000 HD 
BRANCH  25  27
HETATM   27  C   UNL     1      -6.739   6.838  70.087  1.00  0.00    -0.052 C  
HETATM   28  O   UNL     1      -6.094   7.743  70.583  1.00  0.00    -0.034 OA 
BRANCH  27  29
HETATM   29  N   UNL     1      -7.543   6.990  68.991  1.00  0.00    -0.102 N  
HETATM   30  H   UNL     1      -7.798   6.178  68.428  1.00  0.00     0.000 HD 
BRANCH  29  31
HETATM   31  C   UNL     1      -8.033   8.313  68.628  1.00  0.00    -0.122 C  
HETATM   32  C   UNL     1      -8.000   8.533  67.113  1.00  0.00    -0.101 C  
HETATM   33  C   UNL     1      -9.102   7.772  66.380  1.00  0.00    -0.216 C  
HETATM   34  C   UNL     1     -10.476   8.090  66.959  1.00  0.00    -0.410 C  
HETATM   35  C   UNL     1     -10.531   7.821  68.459  1.00  0.00    -0.202 C  
HETATM   36  C   UNL     1      -9.428   8.565  69.208  1.00  0.00    -0.158 C  
ENDBRANCH  29  31
ENDBRANCH  27  29
ENDBRANCH  25  27
ENDBRANCH  22  25
ENDBRANCH  19  22
ENDBRANCH  15  16
ENDBRANCH  14  15
ENDBRANCH  13  14
ENDBRANCH   4  10
ENDBRANCH   2   3
TORSDOF 10
ENDMDL
MODEL      134
REMARK 921   NORMALIZED FREE ENERGY PREDICTED BY IDOCK:   -5.24 KCAL/MOL
REMARK 922        TOTAL FREE ENERGY PREDICTED BY IDOCK:  -10.28 KCAL/MOL
REMARK 923 INTER-LIGAND FREE ENERGY PREDICTED BY IDOCK:   -9.10 KCAL/MOL
REMARK 924 INTRA-LIGAND FREE ENERGY PREDICTED BY IDOCK:   -1.18 KCAL/MOL
REMARK 927      BINDING AFFINITY PREDICTED BY RF-SCORE:    0.00 PKD
ROOT
HETATM    1  C   UNL     1     -11.327   6.346  69.030  1.00  0.00    -0.255 C  
HETATM    2  O   UNL     1     -10.954   7.302  70.022  1.00  0.00    -0.253 OA 
ENDROOT
BRANCH   2   3
HETATM    3  C   UNL     1      -9.955   6.914  70.877  1.00  0.00    -0.189 A  
HETATM    4  C   UNL     1      -8.618   7.250  70.574  1.00  0.00    -0.143 A  
HETATM    5  C   UNL     1      -7.592   6.841  71.445  1.00  0.00    -0.092 A  
HETATM    6  C   UNL     1     -10.225   6.114  71.999  1.00  0.00    -0.223 A  
HETATM    7 CL   UNL     1      -6.616   5.533  73.594  1.00  0.00    -0.075 Cl 
HETATM    8  C   UNL     1      -9.194   5.682  72.833  1.00  0.00    -0.135 A  
HETATM    9  C   UNL     1      -7.885   6.057  72.559  1.00  0.00    -0.104 A  
BRANCH   4  10
HETATM   10  C   UNL     1      -8.263   8.044  69.351  1.00  0.00    -0.122 C  
HETATM   11  H   UNL     1      -8.141   6.304  68.204  1.00  0.00     0.000 HD 
HETATM   12  O   UNL     1      -8.115   9.259  69.391  1.00  0.00    -0.098 OA 
HETATM   13  N   UNL     1      -8.122   7.323  68.173  1.00  0.00    -0.123 N  
BRANCH  13  14
HETATM   14  C   UNL     1      -7.947   7.993  66.897  1.00  0.00    -0.104 C  
BRANCH  14  15
HETATM   15  C   UNL     1      -9.265   8.234  66.150  1.00  0.00    -0.250 C  
BRANCH  15  16
HETATM   16  C   UNL     1      -9.831   9.640  66.251  1.00  0.00    -0.323 A  
HETATM   17  C   UNL     1     -10.664  10.060  67.301  1.00  0.00    -0.309 A  
HETATM   18  C   UNL     1     -11.221  11.342  67.310  1.00  0.00    -0.364 A  
HETATM   19  C   UNL     1     -10.941  12.227  66.270  1.00  0.00    -0.291 A  
HETATM   20  C   UNL     1      -9.532  10.558  65.231  1.00  0.00    -0.281 A  
HETATM   21  C   UNL     1     -10.093  11.840  65.229  1.00  0.00    -0.300 A  
BRANCH  19  22
HETATM   22  S   UNL     1     -11.791  13.789  66.200  1.00  0.00    -0.422 S  
HETATM   23  O   UNL     1     -12.197  14.116  67.554  1.00  0.00    -0.370 OA 
HETATM   24  O   UNL     1     -12.765  13.752  65.134  1.00  0.00    -0.616 OA 
BRANCH  22  25
HETATM   25  N   UNL     1     -10.606  14.894  65.830  1.00  0.00    -0.312 N  
HETATM   26  H   UNL     1      -9.633  14.596  65.903  1.00  0.00     0.000 HD 
BRANCH  25  27
HETATM   27  C   UNL     1     -10.859  16.194  65.428  1.00  0.00    -0.307 C  
HETATM   28  O   UNL     1     -11.136  16.494  64.281  1.00  0.00    -0.915 OA 
BRANCH  27  29
HETATM   29  N   UNL     1     -10.748  17.102  66.444  1.00  0.00    -0.150 N  
HETATM   30  H   UNL     1     -11.585  17.527  66.845  1.00  0.00     0.000 HD 
BRANCH  29  31
HETATM   31  C   UNL     1      -9.432  17.462  66.955  1.00  0.00    -0.266 C  
HETATM   32  C   UNL     1      -8.677  18.372  65.980  1.00  0.00     0.004 C  
HETATM   33  C   UNL     1      -9.214  19.801  65.967  1.00  0.00    -0.338 C  
HETATM   34  C   UNL     1      -9.249  20.394  67.371  1.00  0.00    -0.513 C  
HETATM   35  C   UNL     1     -10.046  19.519  68.333  1.00  0.00    -0.546 C  
HETATM   36  C   UNL     1      -9.529  18.082  68.352  1.00  0.00    -0.314 C  
ENDBRANCH  29  31
ENDBRANCH  27  29
ENDBRANCH  25  27
ENDBRANCH  22  25
ENDBRANCH  19  22
ENDBRANCH  15  16
ENDBRANCH  14  15
ENDBRANCH  13  14
ENDBRANCH   4  10
ENDBRANCH   2   3
TORSDOF 10
ENDMDL
MODEL      135
REMARK 921   NORMALIZED FREE ENERGY PREDICTED BY IDOCK:   -5.24 KCAL/MOL
REMARK 922        TOTAL FREE ENERGY PREDICTED BY IDOCK:  -10.28 KCAL/MOL
REMARK 923 INTER-LIGAND FREE ENERGY PREDICTED BY IDOCK:   -7.94 KCAL/MOL
REMARK 924 INTRA-LIGAND FREE ENERGY PREDICTED BY IDOCK:   -2.34 KCAL/MOL
REMARK 927      BINDING AFFINITY PREDICTED BY RF-SCORE:    0.00 PKD
ROOT
HETATM    1  C   UNL     1     -10.835  10.548  67.265  1.00  0.00    -0.279 C  
HETATM    2  O   UNL     1     -11.452  10.481  68.550  1.00  0.00    -0.270 OA 
ENDROOT
BRANCH   2   3
HETATM    3  C   UNL     1     -11.777  11.686  69.118  1.00  0.00    -0.326 A  
HETATM    4  C   UNL     1     -12.215  11.720  70.459  1.00  0.00    -0.438 A  
HETATM    5  C   UNL     1     -12.559  12.955  71.039  1.00  0.00    -0.376 A  
HETATM    6  C   UNL     1     -11.768  12.873  68.369  1.00  0.00    -0.382 A  
HETATM    7 CL   UNL     1     -12.993  15.618  70.990  1.00  0.00    -0.540 Cl 
HETATM    8  C   UNL     1     -12.150  14.084  68.943  1.00  0.00    -0.351 A  
HETATM    9  C   UNL     1     -12.532  14.121  70.278  1.00  0.00    -0.353 A  
BRANCH   4  10
HETATM   10  C   UNL     1     -12.311  10.473  71.289  1.00  0.00    -0.397 C  
HETATM   11  H   UNL     1     -14.396  10.556  71.248  1.00  0.00     0.000 HD 
HETATM   12  O   UNL     1     -11.315   9.908  71.722  1.00  0.00    -0.216 OA 
HETATM   13  N   UNL     1     -13.592   9.995  71.529  1.00  0.00    -0.256 N  
BRANCH  13  14
HETATM   14  C   UNL     1     -13.808   8.711  72.171  1.00  0.00    -0.429 C  
BRANCH  14  15
HETATM   15  C   UNL     1     -13.711   7.523  71.207  1.00  0.00    -0.344 C  
BRANCH  15  16
HETATM   16  C   UNL     1     -12.401   6.756  71.236  1.00  0.00    -0.395 A  
HETATM   17  C   UNL     1     -11.802   6.303  72.423  1.00  0.00    -0.272 A  
HETATM   18  C   UNL     1     -10.558   5.666  72.405  1.00  0.00    -0.270 A  
HETATM   19  C   UNL     1      -9.900   5.463  71.193  1.00  0.00    -0.185 A  
HETATM   20  C   UNL     1     -11.739   6.510  70.021  1.00  0.00    -0.388 A  
HETATM   21  C   UNL     1     -10.490   5.881  69.998  1.00  0.00    -0.334 A  
BRANCH  19  22
HETATM   22  S   UNL     1      -8.244   4.812  71.197  1.00  0.00    -0.106 S  
HETATM   23  O   UNL     1      -7.620   5.224  69.954  1.00  0.00    -0.063 OA 
HETATM   24  O   UNL     1      -8.283   3.417  71.569  1.00  0.00    -0.060 OA 
BRANCH  22  25
HETATM   25  N   UNL     1      -7.457   5.677  72.379  1.00  0.00    -0.095 N  
HETATM   26  H   UNL     1      -7.905   5.758  73.291  1.00  0.00     0.000 HD 
BRANCH  25  27
HETATM   27  C   UNL     1      -6.230   6.293  72.199  1.00  0.00    -0.042 C  
HETATM   28  O   UNL     1      -5.230   5.977  72.816  1.00  0.00    -0.025 OA 
BRANCH  27  29
HETATM   29  N   UNL     1      -6.266   7.300  71.274  1.00  0.00    -0.036 N  
HETATM   30  H   UNL     1      -5.987   7.118  70.310  1.00  0.00     0.000 HD 
BRANCH  29  31
HETATM   31  C   UNL     1      -6.702   8.633  71.669  1.00  0.00    -0.083 C  
HETATM   32  C   UNL     1      -5.899   9.725  70.955  1.00  0.00    -0.084 C  
HETATM   33  C   UNL     1      -6.291   9.882  69.487  1.00  0.00    -0.047 C  
HETATM   34  C   UNL     1      -7.791  10.101  69.333  1.00  0.00    -0.150 C  
HETATM   35  C   UNL     1      -8.594   8.987  69.996  1.00  0.00    -0.157 C  
HETATM   36  C   UNL     1      -8.209   8.808  71.463  1.00  0.00    -0.190 C  
ENDBRANCH  29  31
ENDBRANCH  27  29
ENDBRANCH  25  27
ENDBRANCH  22  25
ENDBRANCH  19  22
ENDBRANCH  15  16
ENDBRANCH  14  15
ENDBRANCH  13  14
ENDBRANCH   4  10
ENDBRANCH   2   3
TORSDOF 10
ENDMDL
MODEL      136
REMARK 921   NORMALIZED FREE ENERGY PREDICTED BY IDOCK:   -5.24 KCAL/MOL
REMARK 922        TOTAL FREE ENERGY PREDICTED BY IDOCK:  -10.27 KCAL/MOL
REMARK 923 INTER-LIGAND FREE ENERGY PREDICTED BY IDOCK:   -8.61 KCAL/MOL
REMARK 924 INTRA-LIGAND FREE ENERGY PREDICTED BY IDOCK:   -1.66 KCAL/MOL
REMARK 927      BINDING AFFINITY PREDICTED BY RF-SCORE:    0.00 PKD
ROOT
HETATM    1  C   UNL     1     -11.154  16.070  64.604  1.00  0.00    -0.332 C  
HETATM    2  O   UNL     1     -11.117  15.919  66.022  1.00  0.00    -0.195 OA 
ENDROOT
BRANCH   2   3
HETATM    3  C   UNL     1     -10.277  16.772  66.690  1.00  0.00    -0.309 A  
HETATM    4  C   UNL     1      -9.583  16.307  67.827  1.00  0.00    -0.223 A  
HETATM    5  C   UNL     1      -8.730  17.185  68.520  1.00  0.00    -0.261 A  
HETATM    6  C   UNL     1     -10.161  18.121  66.320  1.00  0.00    -0.401 A  
HETATM    7 CL   UNL     1      -7.604  19.589  69.006  1.00  0.00    -0.394 Cl 
HETATM    8  C   UNL     1      -9.342  18.992  67.039  1.00  0.00    -0.345 A  
HETATM    9  C   UNL     1      -8.623  18.517  68.127  1.00  0.00    -0.303 A  
BRANCH   4  10
HETATM   10  C   UNL     1      -9.721  14.893  68.311  1.00  0.00    -0.215 C  
HETATM   11  H   UNL     1      -8.738  14.172  66.616  1.00  0.00     0.000 HD 
HETATM   12  O   UNL     1     -10.318  14.619  69.344  1.00  0.00    -0.206 OA 
HETATM   13  N   UNL     1      -9.125  13.916  67.524  1.00  0.00    -0.191 N  
BRANCH  13  14
HETATM   14  C   UNL     1      -9.043  12.537  67.969  1.00  0.00    -0.200 C  
BRANCH  14  15
HETATM   15  C   UNL     1     -10.310  11.725  67.674  1.00  0.00    -0.219 C  
BRANCH  15  16
HETATM   16  C   UNL     1     -10.802  10.838  68.804  1.00  0.00    -0.262 A  
HETATM   17  C   UNL     1     -10.424   9.493  68.945  1.00  0.00    -0.235 A  
HETATM   18  C   UNL     1     -10.963   8.696  69.960  1.00  0.00    -0.208 A  
HETATM   19  C   UNL     1     -11.882   9.240  70.855  1.00  0.00    -0.282 A  
HETATM   20  C   UNL     1     -11.702  11.378  69.738  1.00  0.00    -0.418 A  
HETATM   21  C   UNL     1     -12.252  10.584  70.749  1.00  0.00    -0.468 A  
BRANCH  19  22
HETATM   22  S   UNL     1     -12.692   8.177  72.030  1.00  0.00    -0.306 S  
HETATM   23  O   UNL     1     -13.246   7.062  71.286  1.00  0.00    -0.358 OA 
HETATM   24  O   UNL     1     -13.536   8.975  72.889  1.00  0.00    -0.356 OA 
BRANCH  22  25
HETATM   25  N   UNL     1     -11.454   7.522  72.925  1.00  0.00    -0.572 N  
HETATM   26  H   UNL     1     -10.940   8.139  73.554  1.00  0.00     0.000 HD 
BRANCH  25  27
HETATM   27  C   UNL     1     -11.078   6.191  72.869  1.00  0.00    -0.247 C  
HETATM   28  O   UNL     1     -11.198   5.426  73.807  1.00  0.00    -0.174 OA 
BRANCH  27  29
HETATM   29  N   UNL     1     -10.545   5.835  71.660  1.00  0.00    -0.238 N  
HETATM   30  H   UNL     1     -11.092   5.949  70.807  1.00  0.00     0.000 HD 
BRANCH  29  31
HETATM   31  C   UNL     1      -9.194   5.292  71.595  1.00  0.00    -0.146 C  
HETATM   32  C   UNL     1      -8.815   4.892  70.166  1.00  0.00    -0.134 C  
HETATM   33  C   UNL     1      -8.522   6.095  69.272  1.00  0.00    -0.119 C  
HETATM   34  C   UNL     1      -7.471   7.006  69.894  1.00  0.00    -0.090 C  
HETATM   35  C   UNL     1      -7.870   7.452  71.297  1.00  0.00    -0.095 C  
HETATM   36  C   UNL     1      -8.177   6.262  72.203  1.00  0.00    -0.109 C  
ENDBRANCH  29  31
ENDBRANCH  27  29
ENDBRANCH  25  27
ENDBRANCH  22  25
ENDBRANCH  19  22
ENDBRANCH  15  16
ENDBRANCH  14  15
ENDBRANCH  13  14
ENDBRANCH   4  10
ENDBRANCH   2   3
TORSDOF 10
ENDMDL
MODEL      137
REMARK 921   NORMALIZED FREE ENERGY PREDICTED BY IDOCK:   -5.22 KCAL/MOL
REMARK 922        TOTAL FREE ENERGY PREDICTED BY IDOCK:  -10.24 KCAL/MOL
REMARK 923 INTER-LIGAND FREE ENERGY PREDICTED BY IDOCK:   -9.16 KCAL/MOL
REMARK 924 INTRA-LIGAND FREE ENERGY PREDICTED BY IDOCK:   -1.08 KCAL/MOL
REMARK 927      BINDING AFFINITY PREDICTED BY RF-SCORE:    0.00 PKD
ROOT
HETATM    1  C   UNL     1      -8.938   5.753  68.980  1.00  0.00    -0.117 C  
HETATM    2  O   UNL     1      -9.506   6.211  70.206  1.00  0.00    -0.158 OA 
ENDROOT
BRANCH   2   3
HETATM    3  C   UNL     1      -9.906   5.233  71.079  1.00  0.00    -0.191 A  
HETATM    4  C   UNL     1     -10.476   5.603  72.315  1.00  0.00    -0.260 A  
HETATM    5  C   UNL     1     -10.876   4.600  73.216  1.00  0.00    -0.346 A  
HETATM    6  C   UNL     1      -9.679   3.875  70.807  1.00  0.00    -0.255 A  
HETATM    7 CL   UNL     1     -11.110   2.043  74.048  1.00  0.00    -0.245 Cl 
HETATM    8  C   UNL     1     -10.044   2.891  71.726  1.00  0.00    -0.108 A  
HETATM    9  C   UNL     1     -10.650   3.257  72.920  1.00  0.00    -0.119 A  
BRANCH   4  10
HETATM   10  C   UNL     1     -10.680   7.042  72.690  1.00  0.00    -0.259 C  
HETATM   11  H   UNL     1     -12.277   7.207  71.355  1.00  0.00     0.000 HD 
HETATM   12  O   UNL     1      -9.943   7.613  73.483  1.00  0.00    -0.315 OA 
HETATM   13  N   UNL     1     -11.758   7.683  72.093  1.00  0.00    -0.297 N  
BRANCH  13  14
HETATM   14  C   UNL     1     -12.160   9.017  72.500  1.00  0.00    -0.113 C  
BRANCH  14  15
HETATM   15  C   UNL     1     -12.668   9.880  71.339  1.00  0.00    -0.503 C  
BRANCH  15  16
HETATM   16  C   UNL     1     -11.634  10.249  70.290  1.00  0.00    -0.396 A  
HETATM   17  C   UNL     1     -10.323   9.744  70.292  1.00  0.00    -0.348 A  
HETATM   18  C   UNL     1      -9.385  10.171  69.348  1.00  0.00    -0.235 A  
HETATM   19  C   UNL     1      -9.750  11.105  68.380  1.00  0.00    -0.191 A  
HETATM   20  C   UNL     1     -11.993  11.162  69.285  1.00  0.00    -0.421 A  
HETATM   21  C   UNL     1     -11.056  11.601  68.343  1.00  0.00    -0.285 A  
BRANCH  19  22
HETATM   22  S   UNL     1      -8.507  11.772  67.297  1.00  0.00    -0.167 S  
HETATM   23  O   UNL     1      -7.385  10.852  67.316  1.00  0.00    -0.095 OA 
HETATM   24  O   UNL     1      -8.311  13.170  67.602  1.00  0.00    -0.149 OA 
BRANCH  22  25
HETATM   25  N   UNL     1      -9.156  11.625  65.773  1.00  0.00    -0.360 N  
HETATM   26  H   UNL     1      -8.753  10.928  65.147  1.00  0.00     0.000 HD 
BRANCH  25  27
HETATM   27  C   UNL     1     -10.209  12.390  65.304  1.00  0.00    -0.282 C  
HETATM   28  O   UNL     1     -11.216  11.910  64.819  1.00  0.00    -0.308 OA 
BRANCH  27  29
HETATM   29  N   UNL     1      -9.991  13.735  65.426  1.00  0.00    -0.507 N  
HETATM   30  H   UNL     1      -9.038  14.099  65.450  1.00  0.00     0.000 HD 
BRANCH  29  31
HETATM   31  C   UNL     1     -11.123  14.648  65.521  1.00  0.00    -0.345 C  
HETATM   32  C   UNL     1     -11.795  14.573  66.896  1.00  0.00    -0.399 C  
HETATM   33  C   UNL     1     -10.979  15.252  67.992  1.00  0.00    -0.299 C  
HETATM   34  C   UNL     1     -10.633  16.689  67.617  1.00  0.00    -0.321 C  
HETATM   35  C   UNL     1      -9.914  16.764  66.275  1.00  0.00    -0.336 C  
HETATM   36  C   UNL     1     -10.712  16.080  65.167  1.00  0.00    -0.429 C  
ENDBRANCH  29  31
ENDBRANCH  27  29
ENDBRANCH  25  27
ENDBRANCH  22  25
ENDBRANCH  19  22
ENDBRANCH  15  16
ENDBRANCH  14  15
ENDBRANCH  13  14
ENDBRANCH   4  10
ENDBRANCH   2   3
TORSDOF 10
ENDMDL
MODEL      138
REMARK 921   NORMALIZED FREE ENERGY PREDICTED BY IDOCK:   -5.21 KCAL/MOL
REMARK 922        TOTAL FREE ENERGY PREDICTED BY IDOCK:  -10.22 KCAL/MOL
REMARK 923 INTER-LIGAND FREE ENERGY PREDICTED BY IDOCK:   -9.40 KCAL/MOL
REMARK 924 INTRA-LIGAND FREE ENERGY PREDICTED BY IDOCK:   -0.83 KCAL/MOL
REMARK 927      BINDING AFFINITY PREDICTED BY RF-SCORE:    0.00 PKD
ROOT
HETATM    1  C   UNL     1      -9.966   7.980  66.643  1.00  0.00    -0.256 C  
HETATM    2  O   UNL     1      -9.070   7.361  67.566  1.00  0.00    -0.125 OA 
ENDROOT
BRANCH   2   3
HETATM    3  C   UNL     1      -9.084   5.990  67.581  1.00  0.00    -0.109 A  
HETATM    4  C   UNL     1      -9.556   5.318  68.728  1.00  0.00    -0.187 A  
HETATM    5  C   UNL     1      -9.560   3.911  68.749  1.00  0.00    -0.187 A  
HETATM    6  C   UNL     1      -8.558   5.243  66.515  1.00  0.00    -0.112 A  
HETATM    7 CL   UNL     1      -9.018   1.472  67.730  1.00  0.00    -0.145 Cl 
HETATM    8  C   UNL     1      -8.530   3.849  66.564  1.00  0.00    -0.105 A  
HETATM    9  C   UNL     1      -9.041   3.191  67.674  1.00  0.00    -0.178 A  
BRANCH   4  10
HETATM   10  C   UNL     1     -10.067   6.065  69.925  1.00  0.00    -0.185 C  
HETATM   11  H   UNL     1     -11.954   6.255  69.054  1.00  0.00     0.000 HD 
HETATM   12  O   UNL     1      -9.340   6.348  70.869  1.00  0.00    -0.160 OA 
HETATM   13  N   UNL     1     -11.412   6.407  69.904  1.00  0.00    -0.429 N  
BRANCH  13  14
HETATM   14  C   UNL     1     -12.062   6.979  71.070  1.00  0.00    -0.368 C  
BRANCH  14  15
HETATM   15  C   UNL     1     -11.310   8.177  71.660  1.00  0.00    -0.315 C  
BRANCH  15  16
HETATM   16  C   UNL     1     -11.456   9.486  70.903  1.00  0.00    -0.405 A  
HETATM   17  C   UNL     1     -10.667   9.822  69.791  1.00  0.00    -0.283 A  
HETATM   18  C   UNL     1     -10.788  11.070  69.172  1.00  0.00    -0.283 A  
HETATM   19  C   UNL     1     -11.711  11.996  69.655  1.00  0.00    -0.335 A  
HETATM   20  C   UNL     1     -12.406  10.418  71.352  1.00  0.00    -0.500 A  
HETATM   21  C   UNL     1     -12.525  11.672  70.743  1.00  0.00    -0.425 A  
BRANCH  19  22
HETATM   22  S   UNL     1     -11.735  13.640  68.974  1.00  0.00    -0.352 S  
HETATM   23  O   UNL     1     -12.512  14.466  69.879  1.00  0.00    -0.327 OA 
HETATM   24  O   UNL     1     -12.078  13.569  67.573  1.00  0.00    -0.357 OA 
BRANCH  22  25
HETATM   25  N   UNL     1     -10.172  14.182  69.135  1.00  0.00    -0.422 N  
HETATM   26  H   UNL     1      -9.695  14.014  70.021  1.00  0.00     0.000 HD 
BRANCH  25  27
HETATM   27  C   UNL     1      -9.479  14.848  68.139  1.00  0.00    -0.202 C  
HETATM   28  O   UNL     1      -8.472  14.405  67.618  1.00  0.00    -0.162 OA 
BRANCH  27  29
HETATM   29  N   UNL     1     -10.030  16.059  67.818  1.00  0.00    -0.232 N  
HETATM   30  H   UNL     1     -10.953  16.310  68.173  1.00  0.00     0.000 HD 
BRANCH  29  31
HETATM   31  C   UNL     1      -9.296  16.988  66.969  1.00  0.00    -0.241 C  
HETATM   32  C   UNL     1     -10.230  18.004  66.304  1.00  0.00    -0.381 C  
HETATM   33  C   UNL     1     -10.731  19.071  67.275  1.00  0.00    -0.556 C  
HETATM   34  C   UNL     1      -9.574  19.760  67.987  1.00  0.00    -0.489 C  
HETATM   35  C   UNL     1      -8.671  18.757  68.697  1.00  0.00    -0.360 C  
HETATM   36  C   UNL     1      -8.168  17.675  67.744  1.00  0.00    -0.225 C  
ENDBRANCH  29  31
ENDBRANCH  27  29
ENDBRANCH  25  27
ENDBRANCH  22  25
ENDBRANCH  19  22
ENDBRANCH  15  16
ENDBRANCH  14  15
ENDBRANCH  13  14
ENDBRANCH   4  10
ENDBRANCH   2   3
TORSDOF 10
ENDMDL
MODEL      139
REMARK 921   NORMALIZED FREE ENERGY PREDICTED BY IDOCK:   -5.20 KCAL/MOL
REMARK 922        TOTAL FREE ENERGY PREDICTED BY IDOCK:  -10.21 KCAL/MOL
REMARK 923 INTER-LIGAND FREE ENERGY PREDICTED BY IDOCK:   -9.15 KCAL/MOL
REMARK 924 INTRA-LIGAND FREE ENERGY PREDICTED BY IDOCK:   -1.06 KCAL/MOL
REMARK 927      BINDING AFFINITY PREDICTED BY RF-SCORE:    0.00 PKD
ROOT
HETATM    1  C   UNL     1     -11.975  13.763  69.654  1.00  0.00    -0.342 C  
HETATM    2  O   UNL     1     -11.886  14.100  68.271  1.00  0.00    -0.333 OA 
ENDROOT
BRANCH   2   3
HETATM    3  C   UNL     1     -11.283  15.298  67.987  1.00  0.00    -0.326 A  
HETATM    4  C   UNL     1     -10.918  15.589  66.656  1.00  0.00    -0.248 A  
HETATM    5  C   UNL     1     -10.289  16.813  66.366  1.00  0.00    -0.309 A  
HETATM    6  C   UNL     1     -10.941  16.202  69.005  1.00  0.00    -0.312 A  
HETATM    7 CL   UNL     1      -9.165  19.176  67.027  1.00  0.00    -0.318 Cl 
HETATM    8  C   UNL     1     -10.281  17.395  68.711  1.00  0.00    -0.361 A  
HETATM    9  C   UNL     1      -9.969  17.700  67.392  1.00  0.00    -0.321 A  
BRANCH   4  10
HETATM   10  C   UNL     1     -11.196  14.630  65.535  1.00  0.00    -0.343 C  
HETATM   11  H   UNL     1      -9.182  14.089  65.442  1.00  0.00     0.000 HD 
HETATM   12  O   UNL     1     -12.314  14.512  65.049  1.00  0.00    -0.403 OA 
HETATM   13  N   UNL     1     -10.117  13.879  65.090  1.00  0.00    -0.334 N  
BRANCH  13  14
HETATM   14  C   UNL     1     -10.291  12.802  64.133  1.00  0.00    -0.376 C  
BRANCH  14  15
HETATM   15  C   UNL     1     -11.014  11.581  64.715  1.00  0.00    -0.338 C  
BRANCH  15  16
HETATM   16  C   UNL     1     -10.199  10.727  65.670  1.00  0.00    -0.320 A  
HETATM   17  C   UNL     1      -8.797  10.777  65.741  1.00  0.00    -0.201 A  
HETATM   18  C   UNL     1      -8.087   9.917  66.584  1.00  0.00    -0.117 A  
HETATM   19  C   UNL     1      -8.775   9.000  67.378  1.00  0.00    -0.119 A  
HETATM   20  C   UNL     1     -10.876   9.821  66.504  1.00  0.00     0.053 A  
HETATM   21  C   UNL     1     -10.171   8.952  67.343  1.00  0.00    -0.313 A  
BRANCH  19  22
HETATM   22  S   UNL     1      -7.858   7.795  68.312  1.00  0.00    -0.122 S  
HETATM   23  O   UNL     1      -6.495   8.280  68.415  1.00  0.00    -0.056 OA 
HETATM   24  O   UNL     1      -8.128   6.478  67.783  1.00  0.00    -0.113 OA 
BRANCH  22  25
HETATM   25  N   UNL     1      -8.470   7.907  69.854  1.00  0.00    -0.126 N  
HETATM   26  H   UNL     1      -8.731   7.044  70.329  1.00  0.00     0.000 HD 
BRANCH  25  27
HETATM   27  C   UNL     1      -8.647   9.102  70.531  1.00  0.00    -0.219 C  
HETATM   28  O   UNL     1      -7.785   9.957  70.606  1.00  0.00    -0.289 OA 
BRANCH  27  29
HETATM   29  N   UNL     1      -9.878   9.210  71.118  1.00  0.00    -0.295 N  
HETATM   30  H   UNL     1      -9.953   9.414  72.114  1.00  0.00     0.000 HD 
BRANCH  29  31
HETATM   31  C   UNL     1     -11.081   9.032  70.317  1.00  0.00    -0.235 C  
HETATM   32  C   UNL     1     -11.865   7.786  70.742  1.00  0.00    -0.205 C  
HETATM   33  C   UNL     1     -12.606   7.976  72.063  1.00  0.00    -0.346 C  
HETATM   34  C   UNL     1     -13.499   9.211  72.026  1.00  0.00    -0.510 C  
HETATM   35  C   UNL     1     -12.712  10.464  71.657  1.00  0.00    -0.560 C  
HETATM   36  C   UNL     1     -11.955  10.289  70.342  1.00  0.00    -0.391 C  
ENDBRANCH  29  31
ENDBRANCH  27  29
ENDBRANCH  25  27
ENDBRANCH  22  25
ENDBRANCH  19  22
ENDBRANCH  15  16
ENDBRANCH  14  15
ENDBRANCH  13  14
ENDBRANCH   4  10
ENDBRANCH   2   3
TORSDOF 10
ENDMDL
MODEL      140
REMARK 921   NORMALIZED FREE ENERGY PREDICTED BY IDOCK:   -5.18 KCAL/MOL
REMARK 922        TOTAL FREE ENERGY PREDICTED BY IDOCK:  -10.19 KCAL/MOL
REMARK 923 INTER-LIGAND FREE ENERGY PREDICTED BY IDOCK:   -9.41 KCAL/MOL
REMARK 924 INTRA-LIGAND FREE ENERGY PREDICTED BY IDOCK:   -0.78 KCAL/MOL
REMARK 927      BINDING AFFINITY PREDICTED BY RF-SCORE:    0.00 PKD
ROOT
HETATM    1  C   UNL     1      -7.195   7.644  70.236  1.00  0.00    -0.067 C  
HETATM    2  O   UNL     1      -7.826   6.922  69.180  1.00  0.00    -0.107 OA 
ENDROOT
BRANCH   2   3
HETATM    3  C   UNL     1      -8.142   7.653  68.064  1.00  0.00    -0.123 A  
HETATM    4  C   UNL     1      -9.494   7.962  67.802  1.00  0.00    -0.165 A  
HETATM    5  C   UNL     1      -9.820   8.702  66.652  1.00  0.00    -0.336 A  
HETATM    6  C   UNL     1      -7.160   8.024  67.132  1.00  0.00    -0.082 A  
HETATM    7 CL   UNL     1      -9.246   9.940  64.324  1.00  0.00    -0.305 Cl 
HETATM    8  C   UNL     1      -7.501   8.723  65.974  1.00  0.00    -0.089 A  
HETATM    9  C   UNL     1      -8.827   9.068  65.746  1.00  0.00    -0.179 A  
BRANCH   4  10
HETATM   10  C   UNL     1     -10.594   7.532  68.728  1.00  0.00    -0.156 C  
HETATM   11  H   UNL     1     -10.257   9.181  69.963  1.00  0.00     0.000 HD 
HETATM   12  O   UNL     1     -11.216   6.492  68.553  1.00  0.00    -0.285 OA 
HETATM   13  N   UNL     1     -10.871   8.386  69.787  1.00  0.00    -0.219 N  
BRANCH  13  14
HETATM   14  C   UNL     1     -12.018   8.168  70.650  1.00  0.00    -0.029 C  
BRANCH  14  15
HETATM   15  C   UNL     1     -12.126   9.190  71.788  1.00  0.00    -0.446 C  
BRANCH  15  16
HETATM   16  C   UNL     1     -12.246  10.642  71.360  1.00  0.00    -0.405 A  
HETATM   17  C   UNL     1     -11.629  11.157  70.209  1.00  0.00    -0.388 A  
HETATM   18  C   UNL     1     -11.706  12.518  69.897  1.00  0.00    -0.327 A  
HETATM   19  C   UNL     1     -12.415  13.381  70.731  1.00  0.00    -0.341 A  
HETATM   20  C   UNL     1     -12.986  11.522  72.169  1.00  0.00    -0.205 A  
HETATM   21  C   UNL     1     -13.059  12.886  71.867  1.00  0.00    -0.474 A  
BRANCH  19  22
HETATM   22  S   UNL     1     -12.361  15.133  70.422  1.00  0.00    -0.376 S  
HETATM   23  O   UNL     1     -11.155  15.641  71.048  1.00  0.00    -0.340 OA 
HETATM   24  O   UNL     1     -13.648  15.710  70.738  1.00  0.00    -0.524 OA 
BRANCH  22  25
HETATM   25  N   UNL     1     -12.083  15.262  68.788  1.00  0.00    -0.582 N  
HETATM   26  H   UNL     1     -12.891  15.313  68.168  1.00  0.00     0.000 HD 
BRANCH  25  27
HETATM   27  C   UNL     1     -10.822  15.305  68.220  1.00  0.00    -0.262 C  
HETATM   28  O   UNL     1     -10.372  14.408  67.531  1.00  0.00    -0.249 OA 
BRANCH  27  29
HETATM   29  N   UNL     1     -10.133  16.445  68.527  1.00  0.00    -0.238 N  
HETATM   30  H   UNL     1      -9.336  16.405  69.163  1.00  0.00     0.000 HD 
BRANCH  29  31
HETATM   31  C   UNL     1     -10.538  17.717  67.944  1.00  0.00    -0.382 C  
HETATM   32  C   UNL     1     -10.086  18.902  68.804  1.00  0.00    -0.415 C  
HETATM   33  C   UNL     1      -8.587  19.174  68.696  1.00  0.00    -0.396 C  
HETATM   34  C   UNL     1      -8.156  19.341  67.244  1.00  0.00    -0.291 C  
HETATM   35  C   UNL     1      -8.556  18.139  66.395  1.00  0.00    -0.251 C  
HETATM   36  C   UNL     1     -10.051  17.846  66.498  1.00  0.00    -0.370 C  
ENDBRANCH  29  31
ENDBRANCH  27  29
ENDBRANCH  25  27
ENDBRANCH  22  25
ENDBRANCH  19  22
ENDBRANCH  15  16
ENDBRANCH  14  15
ENDBRANCH  13  14
ENDBRANCH   4  10
ENDBRANCH   2   3
TORSDOF 10
ENDMDL
MODEL      141
REMARK 921   NORMALIZED FREE ENERGY PREDICTED BY IDOCK:   -5.18 KCAL/MOL
REMARK 922        TOTAL FREE ENERGY PREDICTED BY IDOCK:  -10.18 KCAL/MOL
REMARK 923 INTER-LIGAND FREE ENERGY PREDICTED BY IDOCK:   -9.50 KCAL/MOL
REMARK 924 INTRA-LIGAND FREE ENERGY PREDICTED BY IDOCK:   -0.68 KCAL/MOL
REMARK 927      BINDING AFFINITY PREDICTED BY RF-SCORE:    0.00 PKD
ROOT
HETATM    1  C   UNL     1      -8.810   2.482  71.725  1.00  0.00    -0.075 C  
HETATM    2  O   UNL     1      -9.965   3.009  71.074  1.00  0.00    -0.090 OA 
ENDROOT
BRANCH   2   3
HETATM    3  C   UNL     1      -9.753   3.554  69.834  1.00  0.00    -0.061 A  
HETATM    4  C   UNL     1     -10.050   4.916  69.618  1.00  0.00    -0.300 A  
HETATM    5  C   UNL     1      -9.844   5.472  68.342  1.00  0.00    -0.186 A  
HETATM    6  C   UNL     1      -9.331   2.764  68.752  1.00  0.00    -0.234 A  
HETATM    7 CL   UNL     1      -9.203   5.355  65.724  1.00  0.00    -0.163 Cl 
HETATM    8  C   UNL     1      -9.169   3.317  67.483  1.00  0.00    -0.233 A  
HETATM    9  C   UNL     1      -9.414   4.670  67.287  1.00  0.00    -0.154 A  
BRANCH   4  10
HETATM   10  C   UNL     1     -10.569   5.793  70.719  1.00  0.00    -0.269 C  
HETATM   11  H   UNL     1     -12.114   6.485  69.498  1.00  0.00     0.000 HD 
HETATM   12  O   UNL     1     -10.000   5.878  71.800  1.00  0.00    -0.163 OA 
HETATM   13  N   UNL     1     -11.736   6.494  70.445  1.00  0.00    -0.406 N  
BRANCH  13  14
HETATM   14  C   UNL     1     -12.427   7.241  71.480  1.00  0.00    -0.373 C  
BRANCH  14  15
HETATM   15  C   UNL     1     -11.622   8.431  72.014  1.00  0.00    -0.418 C  
BRANCH  15  16
HETATM   16  C   UNL     1     -11.472   9.605  71.062  1.00  0.00    -0.444 A  
HETATM   17  C   UNL     1     -10.470   9.676  70.080  1.00  0.00    -0.321 A  
HETATM   18  C   UNL     1     -10.327  10.811  69.277  1.00  0.00    -0.228 A  
HETATM   19  C   UNL     1     -11.195  11.889  69.439  1.00  0.00    -0.211 A  
HETATM   20  C   UNL     1     -12.360  10.687  71.186  1.00  0.00    -0.505 A  
HETATM   21  C   UNL     1     -12.216  11.830  70.391  1.00  0.00    -0.416 A  
BRANCH  19  22
HETATM   22  S   UNL     1     -10.897  13.393  68.537  1.00  0.00    -0.271 S  
HETATM   23  O   UNL     1     -12.183  13.871  68.064  1.00  0.00    -0.326 OA 
HETATM   24  O   UNL     1      -9.809  13.183  67.609  1.00  0.00    -0.210 OA 
BRANCH  22  25
HETATM   25  N   UNL     1     -10.431  14.491  69.695  1.00  0.00    -0.441 N  
HETATM   26  H   UNL     1      -9.955  14.139  70.525  1.00  0.00     0.000 HD 
BRANCH  25  27
HETATM   27  C   UNL     1     -10.652  15.855  69.601  1.00  0.00    -0.301 C  
HETATM   28  O   UNL     1     -11.323  16.477  70.403  1.00  0.00    -0.299 OA 
BRANCH  27  29
HETATM   29  N   UNL     1     -10.054  16.421  68.509  1.00  0.00    -0.238 N  
HETATM   30  H   UNL     1      -9.285  15.941  68.041  1.00  0.00     0.000 HD 
BRANCH  29  31
HETATM   31  C   UNL     1     -10.517  17.711  68.015  1.00  0.00    -0.394 C  
HETATM   32  C   UNL     1     -10.021  18.864  68.894  1.00  0.00    -0.437 C  
HETATM   33  C   UNL     1      -8.538  19.166  68.693  1.00  0.00    -0.396 C  
HETATM   34  C   UNL     1      -8.215  19.405  67.222  1.00  0.00    -0.311 C  
HETATM   35  C   UNL     1      -8.657  18.235  66.350  1.00  0.00    -0.262 C  
HETATM   36  C   UNL     1     -10.137  17.912  66.546  1.00  0.00    -0.370 C  
ENDBRANCH  29  31
ENDBRANCH  27  29
ENDBRANCH  25  27
ENDBRANCH  22  25
ENDBRANCH  19  22
ENDBRANCH  15  16
ENDBRANCH  14  15
ENDBRANCH  13  14
ENDBRANCH   4  10
ENDBRANCH   2   3
TORSDOF 10
ENDMDL
MODEL      142
REMARK 921   NORMALIZED FREE ENERGY PREDICTED BY IDOCK:   -5.16 KCAL/MOL
REMARK 922        TOTAL FREE ENERGY PREDICTED BY IDOCK:  -10.15 KCAL/MOL
REMARK 923 INTER-LIGAND FREE ENERGY PREDICTED BY IDOCK:   -7.88 KCAL/MOL
REMARK 924 INTRA-LIGAND FREE ENERGY PREDICTED BY IDOCK:   -2.27 KCAL/MOL
REMARK 927      BINDING AFFINITY PREDICTED BY RF-SCORE:    0.00 PKD
ROOT
HETATM    1  C   UNL     1     -11.844  12.348  65.872  1.00  0.00    -0.405 C  
HETATM    2  O   UNL     1     -11.062  12.846  66.957  1.00  0.00    -0.260 OA 
ENDROOT
BRANCH   2   3
HETATM    3  C   UNL     1     -10.898  11.989  68.014  1.00  0.00    -0.216 A  
HETATM    4  C   UNL     1      -9.616  11.465  68.286  1.00  0.00    -0.192 A  
HETATM    5  C   UNL     1      -9.450  10.577  69.363  1.00  0.00    -0.158 A  
HETATM    6  C   UNL     1     -11.993  11.552  68.776  1.00  0.00    -0.335 A  
HETATM    7 CL   UNL     1     -10.337   9.049  71.403  1.00  0.00    -0.369 Cl 
HETATM    8  C   UNL     1     -11.822  10.639  69.817  1.00  0.00    -0.377 A  
HETATM    9  C   UNL     1     -10.550  10.166  70.113  1.00  0.00    -0.281 A  
BRANCH   4  10
HETATM   10  C   UNL     1      -8.420  11.843  67.461  1.00  0.00    -0.161 C  
HETATM   11  H   UNL     1      -7.824  13.242  68.892  1.00  0.00     0.000 HD 
HETATM   12  O   UNL     1      -8.214  11.352  66.359  1.00  0.00    -0.166 OA 
HETATM   13  N   UNL     1      -7.558  12.773  68.026  1.00  0.00    -0.118 N  
BRANCH  13  14
HETATM   14  C   UNL     1      -6.284  13.092  67.406  1.00  0.00    -0.035 C  
BRANCH  14  15
HETATM   15  C   UNL     1      -5.349  13.898  68.316  1.00  0.00    -0.111 C  
BRANCH  15  16
HETATM   16  C   UNL     1      -5.643  15.385  68.412  1.00  0.00    -0.106 A  
HETATM   17  C   UNL     1      -5.889  16.042  69.629  1.00  0.00    -0.155 A  
HETATM   18  C   UNL     1      -6.229  17.398  69.660  1.00  0.00    -0.233 A  
HETATM   19  C   UNL     1      -6.316  18.118  68.469  1.00  0.00    -0.206 A  
HETATM   20  C   UNL     1      -5.700  16.136  67.227  1.00  0.00    -0.108 A  
HETATM   21  C   UNL     1      -6.048  17.491  67.250  1.00  0.00    -0.162 A  
BRANCH  19  22
HETATM   22  S   UNL     1      -6.918  19.792  68.504  1.00  0.00    -0.312 S  
HETATM   23  O   UNL     1      -5.763  20.659  68.641  1.00  0.00    -0.281 OA 
HETATM   24  O   UNL     1      -8.015  19.883  69.439  1.00  0.00    -0.099 OA 
BRANCH  22  25
HETATM   25  N   UNL     1      -7.479  20.067  66.963  1.00  0.00    -0.255 N  
HETATM   26  H   UNL     1      -6.833  20.466  66.282  1.00  0.00     0.000 HD 
BRANCH  25  27
HETATM   27  C   UNL     1      -8.770  19.788  66.550  1.00  0.00    -0.360 C  
HETATM   28  O   UNL     1      -9.671  20.605  66.584  1.00  0.00    -0.336 OA 
BRANCH  27  29
HETATM   29  N   UNL     1      -8.929  18.500  66.118  1.00  0.00    -0.192 N  
HETATM   30  H   UNL     1      -8.172  18.031  65.620  1.00  0.00     0.000 HD 
BRANCH  29  31
HETATM   31  C   UNL     1     -10.181  17.799  66.370  1.00  0.00    -0.365 C  
HETATM   32  C   UNL     1     -10.081  16.315  66.003  1.00  0.00    -0.377 C  
HETATM   33  C   UNL     1      -9.267  15.509  67.012  1.00  0.00    -0.242 C  
HETATM   34  C   UNL     1      -9.794  15.699  68.430  1.00  0.00    -0.206 C  
HETATM   35  C   UNL     1      -9.843  17.172  68.820  1.00  0.00    -0.293 C  
HETATM   36  C   UNL     1     -10.645  17.997  67.816  1.00  0.00    -0.409 C  
ENDBRANCH  29  31
ENDBRANCH  27  29
ENDBRANCH  25  27
ENDBRANCH  22  25
ENDBRANCH  19  22
ENDBRANCH  15  16
ENDBRANCH  14  15
ENDBRANCH  13  14
ENDBRANCH   4  10
ENDBRANCH   2   3
TORSDOF 10
ENDMDL
MODEL      143
REMARK 921   NORMALIZED FREE ENERGY PREDICTED BY IDOCK:   -5.16 KCAL/MOL
REMARK 922        TOTAL FREE ENERGY PREDICTED BY IDOCK:  -10.14 KCAL/MOL
REMARK 923 INTER-LIGAND FREE ENERGY PREDICTED BY IDOCK:   -9.45 KCAL/MOL
REMARK 924 INTRA-LIGAND FREE ENERGY PREDICTED BY IDOCK:   -0.69 KCAL/MOL
REMARK 927      BINDING AFFINITY PREDICTED BY RF-SCORE:    0.00 PKD
ROOT
HETATM    1  C   UNL     1      -9.831  11.166  68.628  1.00  0.00    -0.202 C  
HETATM    2  O   UNL     1     -10.446   9.970  69.106  1.00  0.00    -0.195 OA 
ENDROOT
BRANCH   2   3
HETATM    3  C   UNL     1      -9.835   9.375  70.179  1.00  0.00    -0.232 A  
HETATM    4  C   UNL     1     -10.554   9.223  71.385  1.00  0.00    -0.417 A  
HETATM    5  C   UNL     1      -9.924   8.623  72.490  1.00  0.00    -0.257 A  
HETATM    6  C   UNL     1      -8.485   8.995  70.133  1.00  0.00    -0.165 A  
HETATM    7 CL   UNL     1      -7.818   7.546  73.788  1.00  0.00    -0.148 Cl 
HETATM    8  C   UNL     1      -7.860   8.437  71.248  1.00  0.00    -0.128 A  
HETATM    9  C   UNL     1      -8.585   8.244  72.416  1.00  0.00    -0.206 A  
BRANCH   4  10
HETATM   10  C   UNL     1     -11.979   9.674  71.515  1.00  0.00    -0.406 C  
HETATM   11  H   UNL     1     -11.366  11.606  72.017  1.00  0.00     0.000 HD 
HETATM   12  O   UNL     1     -12.917   8.900  71.373  1.00  0.00    -0.321 OA 
HETATM   13  N   UNL     1     -12.172  11.020  71.795  1.00  0.00     0.029 N  
BRANCH  13  14
HETATM   14  C   UNL     1     -13.498  11.611  71.777  1.00  0.00    -0.090 C  
BRANCH  14  15
HETATM   15  C   UNL     1     -13.517  13.079  72.221  1.00  0.00    -0.645 C  
BRANCH  15  16
HETATM   16  C   UNL     1     -12.709  14.037  71.364  1.00  0.00    -0.442 A  
HETATM   17  C   UNL     1     -12.087  13.656  70.163  1.00  0.00    -0.431 A  
HETATM   18  C   UNL     1     -11.292  14.556  69.447  1.00  0.00    -0.314 A  
HETATM   19  C   UNL     1     -11.118  15.856  69.919  1.00  0.00    -0.343 A  
HETATM   20  C   UNL     1     -12.551  15.362  71.804  1.00  0.00    -0.455 A  
HETATM   21  C   UNL     1     -11.749  16.264  71.097  1.00  0.00    -0.353 A  
BRANCH  19  22
HETATM   22  S   UNL     1      -9.967  16.936  69.097  1.00  0.00    -0.200 S  
HETATM   23  O   UNL     1      -8.634  16.459  69.411  1.00  0.00    -0.174 OA 
HETATM   24  O   UNL     1     -10.334  18.308  69.360  1.00  0.00    -0.130 OA 
BRANCH  22  25
HETATM   25  N   UNL     1     -10.169  16.610  67.479  1.00  0.00    -0.282 N  
HETATM   26  H   UNL     1     -10.454  15.668  67.212  1.00  0.00     0.000 HD 
BRANCH  25  27
HETATM   27  C   UNL     1      -9.975  17.540  66.473  1.00  0.00    -0.321 C  
HETATM   28  O   UNL     1     -10.463  17.432  65.363  1.00  0.00    -0.648 OA 
BRANCH  27  29
HETATM   29  N   UNL     1      -9.168  18.578  66.849  1.00  0.00    -0.282 N  
HETATM   30  H   UNL     1      -9.549  19.521  66.926  1.00  0.00     0.000 HD 
BRANCH  29  31
HETATM   31  C   UNL     1      -7.761  18.334  67.141  1.00  0.00    -0.221 C  
HETATM   32  C   UNL     1      -6.949  18.114  65.861  1.00  0.00    -0.319 C  
HETATM   33  C   UNL     1      -6.706  19.406  65.084  1.00  0.00    -0.206 C  
HETATM   34  C   UNL     1      -6.075  20.475  65.969  1.00  0.00    -0.241 C  
HETATM   35  C   UNL     1      -6.909  20.737  67.218  1.00  0.00    -0.405 C  
HETATM   36  C   UNL     1      -7.171  19.454  68.003  1.00  0.00    -0.308 C  
ENDBRANCH  29  31
ENDBRANCH  27  29
ENDBRANCH  25  27
ENDBRANCH  22  25
ENDBRANCH  19  22
ENDBRANCH  15  16
ENDBRANCH  14  15
ENDBRANCH  13  14
ENDBRANCH   4  10
ENDBRANCH   2   3
TORSDOF 10
ENDMDL
MODEL      144
REMARK 921   NORMALIZED FREE ENERGY PREDICTED BY IDOCK:   -5.15 KCAL/MOL
REMARK 922        TOTAL FREE ENERGY PREDICTED BY IDOCK:  -10.13 KCAL/MOL
REMARK 923 INTER-LIGAND FREE ENERGY PREDICTED BY IDOCK:   -8.25 KCAL/MOL
REMARK 924 INTRA-LIGAND FREE ENERGY PREDICTED BY IDOCK:   -1.88 KCAL/MOL
REMARK 927      BINDING AFFINITY PREDICTED BY RF-SCORE:    0.00 PKD
ROOT
HETATM    1  C   UNL     1      -7.555  11.967  67.652  1.00  0.00    -0.136 C  
HETATM    2  O   UNL     1      -8.266  10.832  67.161  1.00  0.00    -0.120 OA 
ENDROOT
BRANCH   2   3
HETATM    3  C   UNL     1      -9.280  11.100  66.278  1.00  0.00    -0.195 A  
HETATM    4  C   UNL     1      -9.218  10.568  64.973  1.00  0.00    -0.245 A  
HETATM    5  C   UNL     1     -10.252  10.853  64.063  1.00  0.00    -0.422 A  
HETATM    6  C   UNL     1     -10.333  11.965  66.617  1.00  0.00    -0.242 A  
HETATM    7 CL   UNL     1     -12.531  12.075  63.291  1.00  0.00    -0.646 Cl 
HETATM    8  C   UNL     1     -11.332  12.272  65.693  1.00  0.00    -0.394 A  
HETATM    9  C   UNL     1     -11.293  11.706  64.426  1.00  0.00    -0.260 A  
BRANCH   4  10
HETATM   10  C   UNL     1      -8.081   9.693  64.532  1.00  0.00    -0.143 C  
HETATM   11  H   UNL     1      -9.264   7.984  64.733  1.00  0.00     0.000 HD 
HETATM   12  O   UNL     1      -6.972  10.149  64.287  1.00  0.00    -0.130 OA 
HETATM   13  N   UNL     1      -8.363   8.339  64.410  1.00  0.00    -0.121 N  
BRANCH  13  14
HETATM   14  C   UNL     1      -7.401   7.418  63.833  1.00  0.00    -0.089 C  
BRANCH  14  15
HETATM   15  C   UNL     1      -7.400   6.038  64.502  1.00  0.00    -0.068 C  
BRANCH  15  16
HETATM   16  C   UNL     1      -8.036   5.974  65.880  1.00  0.00    -0.111 A  
HETATM   17  C   UNL     1      -7.399   6.440  67.043  1.00  0.00    -0.083 A  
HETATM   18  C   UNL     1      -7.994   6.291  68.299  1.00  0.00    -0.108 A  
HETATM   19  C   UNL     1      -9.244   5.683  68.407  1.00  0.00    -0.118 A  
HETATM   20  C   UNL     1      -9.310   5.397  66.005  1.00  0.00    -0.167 A  
HETATM   21  C   UNL     1      -9.907   5.237  67.260  1.00  0.00    -0.183 A  
BRANCH  19  22
HETATM   22  S   UNL     1      -9.912   5.341  70.020  1.00  0.00    -0.268 S  
HETATM   23  O   UNL     1      -9.167   6.145  70.970  1.00  0.00    -0.155 OA 
HETATM   24  O   UNL     1     -10.019   3.911  70.196  1.00  0.00    -0.162 OA 
BRANCH  22  25
HETATM   25  N   UNL     1     -11.434   6.010  69.993  1.00  0.00    -0.304 N  
HETATM   26  H   UNL     1     -11.958   5.972  69.119  1.00  0.00     0.000 HD 
BRANCH  25  27
HETATM   27  C   UNL     1     -12.033   6.614  71.085  1.00  0.00    -0.357 C  
HETATM   28  O   UNL     1     -12.222   6.041  72.141  1.00  0.00    -0.288 OA 
BRANCH  27  29
HETATM   29  N   UNL     1     -12.403   7.909  70.846  1.00  0.00    -0.503 N  
HETATM   30  H   UNL     1     -13.117   8.116  70.148  1.00  0.00     0.000 HD 
BRANCH  29  31
HETATM   31  C   UNL     1     -11.774   8.992  71.590  1.00  0.00    -0.361 C  
HETATM   32  C   UNL     1     -10.390   9.335  71.030  1.00  0.00    -0.388 C  
HETATM   33  C   UNL     1     -10.458  10.098  69.710  1.00  0.00    -0.301 C  
HETATM   34  C   UNL     1     -11.334  11.339  69.830  1.00  0.00    -0.329 C  
HETATM   35  C   UNL     1     -12.731  10.997  70.336  1.00  0.00    -0.297 C  
HETATM   36  C   UNL     1     -12.683  10.223  71.652  1.00  0.00    -0.561 C  
ENDBRANCH  29  31
ENDBRANCH  27  29
ENDBRANCH  25  27
ENDBRANCH  22  25
ENDBRANCH  19  22
ENDBRANCH  15  16
ENDBRANCH  14  15
ENDBRANCH  13  14
ENDBRANCH   4  10
ENDBRANCH   2   3
TORSDOF 10
ENDMDL
MODEL      145
REMARK 921   NORMALIZED FREE ENERGY PREDICTED BY IDOCK:   -5.14 KCAL/MOL
REMARK 922        TOTAL FREE ENERGY PREDICTED BY IDOCK:  -10.12 KCAL/MOL
REMARK 923 INTER-LIGAND FREE ENERGY PREDICTED BY IDOCK:   -9.13 KCAL/MOL
REMARK 924 INTRA-LIGAND FREE ENERGY PREDICTED BY IDOCK:   -1.00 KCAL/MOL
REMARK 927      BINDING AFFINITY PREDICTED BY RF-SCORE:    0.00 PKD
ROOT
HETATM    1  C   UNL     1     -10.937  16.002  69.345  1.00  0.00    -0.321 C  
HETATM    2  O   UNL     1     -11.322  16.923  68.325  1.00  0.00    -0.223 OA 
ENDROOT
BRANCH   2   3
HETATM    3  C   UNL     1     -10.341  17.780  67.896  1.00  0.00    -0.386 A  
HETATM    4  C   UNL     1      -9.938  17.746  66.544  1.00  0.00    -0.346 A  
HETATM    5  C   UNL     1      -8.924  18.616  66.107  1.00  0.00    -0.134 A  
HETATM    6  C   UNL     1      -9.669  18.627  68.792  1.00  0.00    -0.407 A  
HETATM    7 CL   UNL     1      -7.014  20.488  66.469  1.00  0.00    -0.303 Cl 
HETATM    8  C   UNL     1      -8.638  19.457  68.353  1.00  0.00    -0.397 A  
HETATM    9  C   UNL     1      -8.278  19.456  67.012  1.00  0.00    -0.272 A  
BRANCH   4  10
HETATM   10  C   UNL     1     -10.573  16.812  65.556  1.00  0.00    -0.230 C  
HETATM   11  H   UNL     1      -9.847  15.152  66.593  1.00  0.00     0.000 HD 
HETATM   12  O   UNL     1     -11.173  17.224  64.572  1.00  0.00    -1.083 OA 
HETATM   13  N   UNL     1     -10.449  15.456  65.828  1.00  0.00    -0.330 N  
BRANCH  13  14
HETATM   14  C   UNL     1     -11.160  14.462  65.045  1.00  0.00    -0.380 C  
BRANCH  14  15
HETATM   15  C   UNL     1     -10.492  13.082  65.060  1.00  0.00    -0.345 C  
BRANCH  15  16
HETATM   16  C   UNL     1     -10.511  12.357  66.394  1.00  0.00    -0.267 A  
HETATM   17  C   UNL     1      -9.345  11.988  67.085  1.00  0.00    -0.187 A  
HETATM   18  C   UNL     1      -9.412  11.255  68.273  1.00  0.00    -0.190 A  
HETATM   19  C   UNL     1     -10.653  10.890  68.794  1.00  0.00    -0.201 A  
HETATM   20  C   UNL     1     -11.753  12.011  66.954  1.00  0.00    -0.342 A  
HETATM   21  C   UNL     1     -11.827  11.270  68.138  1.00  0.00    -0.276 A  
BRANCH  19  22
HETATM   22  S   UNL     1     -10.724   9.812  70.207  1.00  0.00    -0.323 S  
HETATM   23  O   UNL     1     -11.727  10.350  71.106  1.00  0.00    -0.352 OA 
HETATM   24  O   UNL     1      -9.382   9.557  70.678  1.00  0.00    -0.254 OA 
BRANCH  22  25
HETATM   25  N   UNL     1     -11.383   8.401  69.625  1.00  0.00    -0.430 N  
HETATM   26  H   UNL     1     -12.387   8.380  69.445  1.00  0.00     0.000 HD 
BRANCH  25  27
HETATM   27  C   UNL     1     -10.652   7.254  69.368  1.00  0.00    -0.229 C  
HETATM   28  O   UNL     1     -10.896   6.180  69.886  1.00  0.00    -0.282 OA 
BRANCH  27  29
HETATM   29  N   UNL     1      -9.622   7.459  68.492  1.00  0.00    -0.145 N  
HETATM   30  H   UNL     1      -9.734   8.107  67.713  1.00  0.00     0.000 HD 
BRANCH  29  31
HETATM   31  C   UNL     1      -8.363   6.749  68.674  1.00  0.00    -0.120 C  
HETATM   32  C   UNL     1      -7.590   6.622  67.358  1.00  0.00    -0.104 C  
HETATM   33  C   UNL     1      -6.945   7.935  66.921  1.00  0.00    -0.073 C  
HETATM   34  C   UNL     1      -6.072   8.519  68.026  1.00  0.00    -0.051 C  
HETATM   35  C   UNL     1      -6.852   8.698  69.324  1.00  0.00    -0.050 C  
HETATM   36  C   UNL     1      -7.513   7.397  69.771  1.00  0.00    -0.092 C  
ENDBRANCH  29  31
ENDBRANCH  27  29
ENDBRANCH  25  27
ENDBRANCH  22  25
ENDBRANCH  19  22
ENDBRANCH  15  16
ENDBRANCH  14  15
ENDBRANCH  13  14
ENDBRANCH   4  10
ENDBRANCH   2   3
TORSDOF 10
ENDMDL
MODEL      146
REMARK 921   NORMALIZED FREE ENERGY PREDICTED BY IDOCK:   -5.14 KCAL/MOL
REMARK 922        TOTAL FREE ENERGY PREDICTED BY IDOCK:  -10.12 KCAL/MOL
REMARK 923 INTER-LIGAND FREE ENERGY PREDICTED BY IDOCK:   -8.06 KCAL/MOL
REMARK 924 INTRA-LIGAND FREE ENERGY PREDICTED BY IDOCK:   -2.06 KCAL/MOL
REMARK 927      BINDING AFFINITY PREDICTED BY RF-SCORE:    0.00 PKD
ROOT
HETATM    1  C   UNL     1     -14.298  15.548  72.400  1.00  0.00    -0.384 C  
HETATM    2  O   UNL     1     -13.105  15.486  71.620  1.00  0.00    -0.422 OA 
ENDROOT
BRANCH   2   3
HETATM    3  C   UNL     1     -12.743  14.238  71.184  1.00  0.00    -0.360 A  
HETATM    4  C   UNL     1     -11.949  14.116  70.024  1.00  0.00    -0.404 A  
HETATM    5  C   UNL     1     -11.587  12.835  69.569  1.00  0.00    -0.342 A  
HETATM    6  C   UNL     1     -13.219  13.077  71.815  1.00  0.00    -0.486 A  
HETATM    7 CL   UNL     1     -11.644  10.137  69.629  1.00  0.00    -0.247 Cl 
HETATM    8  C   UNL     1     -12.886  11.812  71.331  1.00  0.00    -0.440 A  
HETATM    9  C   UNL     1     -12.063  11.697  70.219  1.00  0.00    -0.358 A  
BRANCH   4  10
HETATM   10  C   UNL     1     -11.468  15.319  69.268  1.00  0.00    -0.320 C  
HETATM   11  H   UNL     1      -9.650  15.290  70.295  1.00  0.00     0.000 HD 
HETATM   12  O   UNL     1     -12.179  15.900  68.458  1.00  0.00    -0.075 OA 
HETATM   13  N   UNL     1     -10.168  15.729  69.533  1.00  0.00    -0.253 N  
BRANCH  13  14
HETATM   14  C   UNL     1      -9.531  16.771  68.748  1.00  0.00    -0.259 C  
BRANCH  14  15
HETATM   15  C   UNL     1      -9.101  16.304  67.352  1.00  0.00    -0.203 C  
BRANCH  15  16
HETATM   16  C   UNL     1      -8.644  14.859  67.252  1.00  0.00    -0.232 A  
HETATM   17  C   UNL     1      -7.408  14.408  67.743  1.00  0.00    -0.186 A  
HETATM   18  C   UNL     1      -7.001  13.083  67.561  1.00  0.00    -0.155 A  
HETATM   19  C   UNL     1      -7.834  12.187  66.893  1.00  0.00    -0.069 A  
HETATM   20  C   UNL     1      -9.485  13.933  66.613  1.00  0.00    -0.296 A  
HETATM   21  C   UNL     1      -9.080  12.608  66.420  1.00  0.00    -0.114 A  
BRANCH  19  22
HETATM   22  S   UNL     1      -7.235  10.555  66.513  1.00  0.00    -0.131 S  
HETATM   23  O   UNL     1      -7.374   9.758  67.716  1.00  0.00    -0.088 OA 
HETATM   24  O   UNL     1      -5.956  10.661  65.849  1.00  0.00    -0.107 OA 
BRANCH  22  25
HETATM   25  N   UNL     1      -8.357   9.933  65.455  1.00  0.00    -0.139 N  
HETATM   26  H   UNL     1      -8.919  10.589  64.913  1.00  0.00     0.000 HD 
BRANCH  25  27
HETATM   27  C   UNL     1      -8.572   8.579  65.264  1.00  0.00    -0.165 C  
HETATM   28  O   UNL     1      -8.011   7.931  64.400  1.00  0.00    -0.133 OA 
BRANCH  27  29
HETATM   29  N   UNL     1      -9.490   8.054  66.132  1.00  0.00    -0.384 N  
HETATM   30  H   UNL     1     -10.220   8.649  66.525  1.00  0.00     0.000 HD 
BRANCH  29  31
HETATM   31  C   UNL     1      -9.424   6.645  66.493  1.00  0.00    -0.152 C  
HETATM   32  C   UNL     1      -8.400   6.394  67.605  1.00  0.00    -0.117 C  
HETATM   33  C   UNL     1      -8.886   6.863  68.974  1.00  0.00    -0.130 C  
HETATM   34  C   UNL     1     -10.243   6.260  69.318  1.00  0.00    -0.236 C  
HETATM   35  C   UNL     1     -11.280   6.554  68.240  1.00  0.00    -0.259 C  
HETATM   36  C   UNL     1     -10.807   6.100  66.861  1.00  0.00    -0.411 C  
ENDBRANCH  29  31
ENDBRANCH  27  29
ENDBRANCH  25  27
ENDBRANCH  22  25
ENDBRANCH  19  22
ENDBRANCH  15  16
ENDBRANCH  14  15
ENDBRANCH  13  14
ENDBRANCH   4  10
ENDBRANCH   2   3
TORSDOF 10
ENDMDL
MODEL      147
REMARK 921   NORMALIZED FREE ENERGY PREDICTED BY IDOCK:   -5.13 KCAL/MOL
REMARK 922        TOTAL FREE ENERGY PREDICTED BY IDOCK:  -10.09 KCAL/MOL
REMARK 923 INTER-LIGAND FREE ENERGY PREDICTED BY IDOCK:   -8.28 KCAL/MOL
REMARK 924 INTRA-LIGAND FREE ENERGY PREDICTED BY IDOCK:   -1.81 KCAL/MOL
REMARK 927      BINDING AFFINITY PREDICTED BY RF-SCORE:    0.00 PKD
ROOT
HETATM    1  C   UNL     1     -12.417   9.466  70.967  1.00  0.00    -0.239 C  
HETATM    2  O   UNL     1     -11.019   9.642  70.747  1.00  0.00    -0.276 OA 
ENDROOT
BRANCH   2   3
HETATM    3  C   UNL     1     -10.196   8.779  71.423  1.00  0.00    -0.280 A  
HETATM    4  C   UNL     1      -8.971   8.393  70.838  1.00  0.00    -0.188 A  
HETATM    5  C   UNL     1      -8.132   7.499  71.526  1.00  0.00    -0.099 A  
HETATM    6  C   UNL     1     -10.586   8.202  72.642  1.00  0.00    -0.414 A  
HETATM    7 CL   UNL     1      -7.515   5.825  73.551  1.00  0.00    -0.090 Cl 
HETATM    8  C   UNL     1      -9.763   7.286  73.295  1.00  0.00    -0.277 A  
HETATM    9  C   UNL     1      -8.536   6.947  72.740  1.00  0.00    -0.116 A  
BRANCH   4  10
HETATM   10  C   UNL     1      -8.533   8.924  69.504  1.00  0.00    -0.128 C  
HETATM   11  H   UNL     1      -8.766   7.042  68.631  1.00  0.00     0.000 HD 
HETATM   12  O   UNL     1      -8.172  10.084  69.358  1.00  0.00    -0.127 OA 
HETATM   13  N   UNL     1      -8.570   8.026  68.446  1.00  0.00    -0.127 N  
BRANCH  13  14
HETATM   14  C   UNL     1      -8.334   8.459  67.081  1.00  0.00    -0.122 C  
BRANCH  14  15
HETATM   15  C   UNL     1      -9.622   8.652  66.272  1.00  0.00    -0.322 C  
BRANCH  15  16
HETATM   16  C   UNL     1     -10.167  10.069  66.228  1.00  0.00    -0.285 A  
HETATM   17  C   UNL     1     -10.950  10.623  67.254  1.00  0.00    -0.348 A  
HETATM   18  C   UNL     1     -11.491  11.906  67.135  1.00  0.00    -0.386 A  
HETATM   19  C   UNL     1     -11.244  12.659  65.987  1.00  0.00    -0.306 A  
HETATM   20  C   UNL     1      -9.900  10.856  65.096  1.00  0.00    -0.329 A  
HETATM   21  C   UNL     1     -10.446  12.138  64.966  1.00  0.00    -0.326 A  
BRANCH  19  22
HETATM   22  S   UNL     1     -12.078  14.216  65.768  1.00  0.00    -0.423 S  
HETATM   23  O   UNL     1     -13.497  13.931  65.672  1.00  0.00    -0.590 OA 
HETATM   24  O   UNL     1     -11.411  14.969  64.732  1.00  0.00    -0.400 OA 
BRANCH  22  25
HETATM   25  N   UNL     1     -11.895  14.997  67.225  1.00  0.00    -0.331 N  
HETATM   26  H   UNL     1     -12.637  14.897  67.918  1.00  0.00     0.000 HD 
BRANCH  25  27
HETATM   27  C   UNL     1     -10.798  15.774  67.553  1.00  0.00    -0.315 C  
HETATM   28  O   UNL     1     -10.889  16.924  67.939  1.00  0.00    -0.354 OA 
BRANCH  27  29
HETATM   29  N   UNL     1      -9.607  15.123  67.380  1.00  0.00    -0.207 N  
HETATM   30  H   UNL     1      -9.167  15.097  66.460  1.00  0.00     0.000 HD 
BRANCH  29  31
HETATM   31  C   UNL     1      -8.969  14.465  68.513  1.00  0.00    -0.187 C  
HETATM   32  C   UNL     1      -7.692  13.730  68.093  1.00  0.00    -0.140 C  
HETATM   33  C   UNL     1      -6.529  14.678  67.812  1.00  0.00    -0.182 C  
HETATM   34  C   UNL     1      -6.275  15.611  68.990  1.00  0.00    -0.113 C  
HETATM   35  C   UNL     1      -7.530  16.386  69.377  1.00  0.00    -0.122 C  
HETATM   36  C   UNL     1      -8.707  15.454  69.653  1.00  0.00    -0.134 C  
ENDBRANCH  29  31
ENDBRANCH  27  29
ENDBRANCH  25  27
ENDBRANCH  22  25
ENDBRANCH  19  22
ENDBRANCH  15  16
ENDBRANCH  14  15
ENDBRANCH  13  14
ENDBRANCH   4  10
ENDBRANCH   2   3
TORSDOF 10
ENDMDL
MODEL      148
REMARK 921   NORMALIZED FREE ENERGY PREDICTED BY IDOCK:   -5.11 KCAL/MOL
REMARK 922        TOTAL FREE ENERGY PREDICTED BY IDOCK:  -10.07 KCAL/MOL
REMARK 923 INTER-LIGAND FREE ENERGY PREDICTED BY IDOCK:   -9.14 KCAL/MOL
REMARK 924 INTRA-LIGAND FREE ENERGY PREDICTED BY IDOCK:   -0.92 KCAL/MOL
REMARK 927      BINDING AFFINITY PREDICTED BY RF-SCORE:    0.00 PKD
ROOT
HETATM    1  C   UNL     1     -11.389   6.464  70.461  1.00  0.00    -0.375 C  
HETATM    2  O   UNL     1     -11.010   7.373  69.428  1.00  0.00    -0.205 OA 
ENDROOT
BRANCH   2   3
HETATM    3  C   UNL     1      -9.912   8.150  69.691  1.00  0.00    -0.193 A  
HETATM    4  C   UNL     1      -9.338   8.909  68.649  1.00  0.00    -0.140 A  
HETATM    5  C   UNL     1      -8.204   9.697  68.916  1.00  0.00    -0.110 A  
HETATM    6  C   UNL     1      -9.294   8.137  70.952  1.00  0.00    -0.173 A  
HETATM    7 CL   UNL     1      -6.206  10.617  70.480  1.00  0.00    -0.123 Cl 
HETATM    8  C   UNL     1      -8.147   8.893  71.194  1.00  0.00    -0.201 A  
HETATM    9  C   UNL     1      -7.615   9.677  70.179  1.00  0.00    -0.158 A  
BRANCH   4  10
HETATM   10  C   UNL     1      -9.914   8.907  67.264  1.00  0.00    -0.216 C  
HETATM   11  H   UNL     1      -9.163  10.822  66.904  1.00  0.00     0.000 HD 
HETATM   12  O   UNL     1     -10.588   7.975  66.846  1.00  0.00    -0.338 OA 
HETATM   13  N   UNL     1      -9.630  10.019  66.482  1.00  0.00    -0.178 N  
BRANCH  13  14
HETATM   14  C   UNL     1      -9.985  10.061  65.075  1.00  0.00    -0.250 C  
BRANCH  14  15
HETATM   15  C   UNL     1     -10.741  11.334  64.675  1.00  0.00    -0.371 C  
BRANCH  15  16
HETATM   16  C   UNL     1     -10.764  12.441  65.715  1.00  0.00    -0.301 A  
HETATM   17  C   UNL     1     -11.888  12.727  66.508  1.00  0.00    -0.471 A  
HETATM   18  C   UNL     1     -11.885  13.804  67.399  1.00  0.00    -0.431 A  
HETATM   19  C   UNL     1     -10.749  14.604  67.517  1.00  0.00    -0.268 A  
HETATM   20  C   UNL     1      -9.617  13.236  65.875  1.00  0.00    -0.122 A  
HETATM   21  C   UNL     1      -9.611  14.320  66.758  1.00  0.00    -0.290 A  
BRANCH  19  22
HETATM   22  S   UNL     1     -10.816  16.072  68.521  1.00  0.00    -0.322 S  
HETATM   23  O   UNL     1      -9.683  16.022  69.426  1.00  0.00    -0.247 OA 
HETATM   24  O   UNL     1     -12.156  16.234  69.036  1.00  0.00    -0.148 OA 
BRANCH  22  25
HETATM   25  N   UNL     1     -10.472  17.313  67.470  1.00  0.00    -0.356 N  
HETATM   26  H   UNL     1     -10.424  17.098  66.475  1.00  0.00     0.000 HD 
BRANCH  25  27
HETATM   27  C   UNL     1     -10.248  18.621  67.866  1.00  0.00    -0.392 C  
HETATM   28  O   UNL     1     -10.967  19.547  67.540  1.00  0.00    -0.452 OA 
BRANCH  27  29
HETATM   29  N   UNL     1      -9.129  18.763  68.640  1.00  0.00    -0.339 N  
HETATM   30  H   UNL     1      -9.216  19.041  69.617  1.00  0.00     0.000 HD 
BRANCH  29  31
HETATM   31  C   UNL     1      -7.813  18.518  68.065  1.00  0.00    -0.274 C  
HETATM   32  C   UNL     1      -7.534  19.443  66.876  1.00  0.00    -0.239 C  
HETATM   33  C   UNL     1      -7.232  20.878  67.302  1.00  0.00    -0.408 C  
HETATM   34  C   UNL     1      -6.103  20.928  68.325  1.00  0.00    -0.383 C  
HETATM   35  C   UNL     1      -6.401  20.050  69.536  1.00  0.00    -0.379 C  
HETATM   36  C   UNL     1      -6.716  18.613  69.129  1.00  0.00    -0.291 C  
ENDBRANCH  29  31
ENDBRANCH  27  29
ENDBRANCH  25  27
ENDBRANCH  22  25
ENDBRANCH  19  22
ENDBRANCH  15  16
ENDBRANCH  14  15
ENDBRANCH  13  14
ENDBRANCH   4  10
ENDBRANCH   2   3
TORSDOF 10
ENDMDL
MODEL      149
REMARK 921   NORMALIZED FREE ENERGY PREDICTED BY IDOCK:   -5.10 KCAL/MOL
REMARK 922        TOTAL FREE ENERGY PREDICTED BY IDOCK:  -10.05 KCAL/MOL
REMARK 923 INTER-LIGAND FREE ENERGY PREDICTED BY IDOCK:   -9.00 KCAL/MOL
REMARK 924 INTRA-LIGAND FREE ENERGY PREDICTED BY IDOCK:   -1.05 KCAL/MOL
REMARK 927      BINDING AFFINITY PREDICTED BY RF-SCORE:    0.00 PKD
ROOT
HETATM    1  C   UNL     1     -11.492  15.198  69.436  1.00  0.00    -0.306 C  
HETATM    2  O   UNL     1     -11.435  15.654  68.085  1.00  0.00    -0.352 OA 
ENDROOT
BRANCH   2   3
HETATM    3  C   UNL     1     -10.667  16.767  67.864  1.00  0.00    -0.347 A  
HETATM    4  C   UNL     1     -10.189  17.028  66.562  1.00  0.00    -0.321 A  
HETATM    5  C   UNL     1      -9.391  18.165  66.337  1.00  0.00    -0.274 A  
HETATM    6  C   UNL     1     -10.272  17.603  68.920  1.00  0.00    -0.354 A  
HETATM    7 CL   UNL     1      -8.014  20.351  67.116  1.00  0.00    -0.375 Cl 
HETATM    8  C   UNL     1      -9.448  18.705  68.691  1.00  0.00    -0.396 A  
HETATM    9  C   UNL     1      -9.021  18.986  67.400  1.00  0.00    -0.291 A  
BRANCH   4  10
HETATM   10  C   UNL     1     -10.522  16.131  65.406  1.00  0.00    -0.373 C  
HETATM   11  H   UNL     1      -9.539  14.528  66.312  1.00  0.00     0.000 HD 
HETATM   12  O   UNL     1     -11.114  16.545  64.417  1.00  0.00    -0.894 OA 
HETATM   13  N   UNL     1     -10.128  14.806  65.527  1.00  0.00    -0.360 N  
BRANCH  13  14
HETATM   14  C   UNL     1     -10.538  13.806  64.557  1.00  0.00    -0.386 C  
BRANCH  14  15
HETATM   15  C   UNL     1     -11.703  12.932  65.038  1.00  0.00    -0.381 C  
BRANCH  15  16
HETATM   16  C   UNL     1     -11.371  11.940  66.138  1.00  0.00    -0.383 A  
HETATM   17  C   UNL     1     -11.765  12.113  67.475  1.00  0.00    -0.385 A  
HETATM   18  C   UNL     1     -11.372  11.209  68.466  1.00  0.00    -0.348 A  
HETATM   19  C   UNL     1     -10.584  10.109  68.128  1.00  0.00    -0.223 A  
HETATM   20  C   UNL     1     -10.608  10.806  65.811  1.00  0.00    -0.204 A  
HETATM   21  C   UNL     1     -10.203   9.902  66.800  1.00  0.00    -0.301 A  
BRANCH  19  22
HETATM   22  S   UNL     1      -9.945   9.064  69.418  1.00  0.00    -0.198 S  
HETATM   23  O   UNL     1     -10.991   8.120  69.762  1.00  0.00    -0.225 OA 
HETATM   24  O   UNL     1      -9.338   9.888  70.439  1.00  0.00    -0.193 OA 
BRANCH  22  25
HETATM   25  N   UNL     1      -8.771   8.152  68.674  1.00  0.00    -0.134 N  
HETATM   26  H   UNL     1      -8.814   8.050  67.661  1.00  0.00     0.000 HD 
BRANCH  25  27
HETATM   27  C   UNL     1      -7.738   7.522  69.348  1.00  0.00    -0.111 C  
HETATM   28  O   UNL     1      -6.699   8.081  69.644  1.00  0.00    -0.037 OA 
BRANCH  27  29
HETATM   29  N   UNL     1      -8.001   6.209  69.626  1.00  0.00    -0.105 N  
HETATM   30  H   UNL     1      -8.572   5.655  68.987  1.00  0.00     0.000 HD 
BRANCH  29  31
HETATM   31  C   UNL     1      -7.464   5.603  70.837  1.00  0.00    -0.089 C  
HETATM   32  C   UNL     1      -8.296   5.970  72.070  1.00  0.00    -0.118 C  
HETATM   33  C   UNL     1      -9.630   5.230  72.126  1.00  0.00    -0.183 C  
HETATM   34  C   UNL     1      -9.434   3.722  72.015  1.00  0.00    -0.200 C  
HETATM   35  C   UNL     1      -8.653   3.347  70.760  1.00  0.00    -0.114 C  
HETATM   36  C   UNL     1      -7.319   4.086  70.682  1.00  0.00    -0.041 C  
ENDBRANCH  29  31
ENDBRANCH  27  29
ENDBRANCH  25  27
ENDBRANCH  22  25
ENDBRANCH  19  22
ENDBRANCH  15  16
ENDBRANCH  14  15
ENDBRANCH  13  14
ENDBRANCH   4  10
ENDBRANCH   2   3
TORSDOF 10
ENDMDL
MODEL      150
REMARK 921   NORMALIZED FREE ENERGY PREDICTED BY IDOCK:   -5.09 KCAL/MOL
REMARK 922        TOTAL FREE ENERGY PREDICTED BY IDOCK:  -10.04 KCAL/MOL
REMARK 923 INTER-LIGAND FREE ENERGY PREDICTED BY IDOCK:   -8.92 KCAL/MOL
REMARK 924 INTRA-LIGAND FREE ENERGY PREDICTED BY IDOCK:   -1.12 KCAL/MOL
REMARK 927      BINDING AFFINITY PREDICTED BY RF-SCORE:    0.00 PKD
ROOT
HETATM    1  C   UNL     1      -9.092   3.020  70.862  1.00  0.00    -0.114 C  
HETATM    2  O   UNL     1      -9.073   4.325  70.285  1.00  0.00    -0.085 OA 
ENDROOT
BRANCH   2   3
HETATM    3  C   UNL     1     -10.103   5.153  70.652  1.00  0.00    -0.239 A  
HETATM    4  C   UNL     1     -10.703   5.979  69.679  1.00  0.00    -0.405 A  
HETATM    5  C   UNL     1     -11.752   6.837  70.057  1.00  0.00    -0.330 A  
HETATM    6  C   UNL     1     -10.511   5.260  71.991  1.00  0.00    -0.283 A  
HETATM    7 CL   UNL     1     -13.405   8.001  71.845  1.00  0.00    -0.346 Cl 
HETATM    8  C   UNL     1     -11.525   6.144  72.360  1.00  0.00    -0.349 A  
HETATM    9  C   UNL     1     -12.147   6.919  71.391  1.00  0.00    -0.364 A  
BRANCH   4  10
HETATM   10  C   UNL     1     -10.262   5.957  68.245  1.00  0.00    -0.184 C  
HETATM   11  H   UNL     1     -10.257   8.044  68.170  1.00  0.00     0.000 HD 
HETATM   12  O   UNL     1     -10.118   4.909  67.629  1.00  0.00    -0.162 OA 
HETATM   13  N   UNL     1     -10.017   7.193  67.661  1.00  0.00    -0.149 N  
BRANCH  13  14
HETATM   14  C   UNL     1      -9.425   7.298  66.340  1.00  0.00    -0.127 C  
BRANCH  14  15
HETATM   15  C   UNL     1      -8.359   8.395  66.235  1.00  0.00    -0.123 C  
BRANCH  15  16
HETATM   16  C   UNL     1      -8.859   9.818  66.413  1.00  0.00    -0.163 A  
HETATM   17  C   UNL     1     -10.135  10.241  66.007  1.00  0.00    -0.311 A  
HETATM   18  C   UNL     1     -10.522  11.579  66.123  1.00  0.00    -0.296 A  
HETATM   19  C   UNL     1      -9.637  12.513  66.661  1.00  0.00    -0.239 A  
HETATM   20  C   UNL     1      -7.995  10.767  66.985  1.00  0.00    -0.124 A  
HETATM   21  C   UNL     1      -8.373  12.109  67.096  1.00  0.00    -0.183 A  
BRANCH  19  22
HETATM   22  S   UNL     1     -10.072  14.238  66.644  1.00  0.00    -0.280 S  
HETATM   23  O   UNL     1     -11.269  14.369  65.834  1.00  0.00    -0.313 OA 
HETATM   24  O   UNL     1      -8.896  15.021  66.342  1.00  0.00    -0.273 OA 
BRANCH  22  25
HETATM   25  N   UNL     1     -10.568  14.560  68.197  1.00  0.00    -0.235 N  
HETATM   26  H   UNL     1     -10.451  13.829  68.899  1.00  0.00     0.000 HD 
BRANCH  25  27
HETATM   27  C   UNL     1     -11.129  15.761  68.596  1.00  0.00    -0.327 C  
HETATM   28  O   UNL     1     -11.873  15.862  69.554  1.00  0.00    -0.345 OA 
BRANCH  27  29
HETATM   29  N   UNL     1     -10.776  16.812  67.795  1.00  0.00    -0.338 N  
HETATM   30  H   UNL     1     -11.037  16.812  66.809  1.00  0.00     0.000 HD 
BRANCH  29  31
HETATM   31  C   UNL     1     -10.027  17.930  68.353  1.00  0.00    -0.367 C  
HETATM   32  C   UNL     1      -8.553  17.885  67.938  1.00  0.00    -0.252 C  
HETATM   33  C   UNL     1      -8.334  18.287  66.482  1.00  0.00    -0.287 C  
HETATM   34  C   UNL     1      -8.958  19.645  66.181  1.00  0.00    -0.375 C  
HETATM   35  C   UNL     1     -10.439  19.678  66.541  1.00  0.00    -0.612 C  
HETATM   36  C   UNL     1     -10.678  19.268  67.993  1.00  0.00    -0.339 C  
ENDBRANCH  29  31
ENDBRANCH  27  29
ENDBRANCH  25  27
ENDBRANCH  22  25
ENDBRANCH  19  22
ENDBRANCH  15  16
ENDBRANCH  14  15
ENDBRANCH  13  14
ENDBRANCH   4  10
ENDBRANCH   2   3
TORSDOF 10
ENDMDL
MODEL      151
REMARK 921   NORMALIZED FREE ENERGY PREDICTED BY IDOCK:   -5.08 KCAL/MOL
REMARK 922        TOTAL FREE ENERGY PREDICTED BY IDOCK:  -10.03 KCAL/MOL
REMARK 923 INTER-LIGAND FREE ENERGY PREDICTED BY IDOCK:   -8.75 KCAL/MOL
REMARK 924 INTRA-LIGAND FREE ENERGY PREDICTED BY IDOCK:   -1.28 KCAL/MOL
REMARK 927      BINDING AFFINITY PREDICTED BY RF-SCORE:    0.00 PKD
ROOT
HETATM    1  C   UNL     1     -12.168  14.255  66.322  1.00  0.00    -0.410 C  
HETATM    2  O   UNL     1     -10.824  14.614  66.639  1.00  0.00    -0.300 OA 
ENDROOT
BRANCH   2   3
HETATM    3  C   UNL     1     -10.579  15.958  66.757  1.00  0.00    -0.309 A  
HETATM    4  C   UNL     1     -10.443  16.524  68.043  1.00  0.00    -0.313 A  
HETATM    5  C   UNL     1     -10.203  17.904  68.165  1.00  0.00    -0.386 A  
HETATM    6  C   UNL     1     -10.549  16.797  65.632  1.00  0.00    -0.258 A  
HETATM    7 CL   UNL     1      -9.911  20.407  67.200  1.00  0.00    -0.592 Cl 
HETATM    8  C   UNL     1     -10.350  18.170  65.769  1.00  0.00    -0.178 A  
HETATM    9  C   UNL     1     -10.167  18.715  67.032  1.00  0.00    -0.381 A  
BRANCH   4  10
HETATM   10  C   UNL     1     -10.535  15.687  69.286  1.00  0.00    -0.247 C  
HETATM   11  H   UNL     1     -12.482  16.353  69.641  1.00  0.00     0.000 HD 
HETATM   12  O   UNL     1      -9.588  15.025  69.689  1.00  0.00    -0.151 OA 
HETATM   13  N   UNL     1     -11.757  15.702  69.944  1.00  0.00    -0.339 N  
BRANCH  13  14
HETATM   14  C   UNL     1     -12.024  14.808  71.056  1.00  0.00    -0.331 C  
BRANCH  14  15
HETATM   15  C   UNL     1     -13.081  13.742  70.741  1.00  0.00    -0.165 C  
BRANCH  15  16
HETATM   16  C   UNL     1     -12.570  12.316  70.641  1.00  0.00    -0.241 A  
HETATM   17  C   UNL     1     -12.886  11.319  71.579  1.00  0.00    -0.519 A  
HETATM   18  C   UNL     1     -12.330  10.040  71.486  1.00  0.00    -0.513 A  
HETATM   19  C   UNL     1     -11.457   9.737  70.442  1.00  0.00    -0.280 A  
HETATM   20  C   UNL     1     -11.717  11.981  69.576  1.00  0.00    -0.408 A  
HETATM   21  C   UNL     1     -11.151  10.706  69.482  1.00  0.00    -0.328 A  
BRANCH  19  22
HETATM   22  S   UNL     1     -10.622   8.166  70.430  1.00  0.00    -0.227 S  
HETATM   23  O   UNL     1      -9.217   8.431  70.180  1.00  0.00    -0.155 OA 
HETATM   24  O   UNL     1     -11.353   7.246  69.589  1.00  0.00    -0.144 OA 
BRANCH  22  25
HETATM   25  N   UNL     1     -10.686   7.646  72.007  1.00  0.00    -0.218 N  
HETATM   26  H   UNL     1     -11.596   7.624  72.467  1.00  0.00     0.000 HD 
BRANCH  25  27
HETATM   27  C   UNL     1      -9.580   7.240  72.733  1.00  0.00    -0.158 C  
HETATM   28  O   UNL     1      -8.794   8.019  73.240  1.00  0.00    -0.216 OA 
BRANCH  27  29
HETATM   29  N   UNL     1      -9.454   5.880  72.806  1.00  0.00    -0.149 N  
HETATM   30  H   UNL     1      -9.825   5.374  73.611  1.00  0.00     0.000 HD 
BRANCH  29  31
HETATM   31  C   UNL     1      -8.791   5.154  71.731  1.00  0.00    -0.134 C  
HETATM   32  C   UNL     1      -7.444   4.582  72.183  1.00  0.00    -0.080 C  
HETATM   33  C   UNL     1      -7.593   3.367  73.095  1.00  0.00    -0.060 C  
HETATM   34  C   UNL     1      -8.468   2.296  72.455  1.00  0.00    -0.062 C  
HETATM   35  C   UNL     1      -9.831   2.848  72.053  1.00  0.00    -0.242 C  
HETATM   36  C   UNL     1      -9.702   4.070  71.148  1.00  0.00    -0.257 C  
ENDBRANCH  29  31
ENDBRANCH  27  29
ENDBRANCH  25  27
ENDBRANCH  22  25
ENDBRANCH  19  22
ENDBRANCH  15  16
ENDBRANCH  14  15
ENDBRANCH  13  14
ENDBRANCH   4  10
ENDBRANCH   2   3
TORSDOF 10
ENDMDL
MODEL      152
REMARK 921   NORMALIZED FREE ENERGY PREDICTED BY IDOCK:   -5.08 KCAL/MOL
REMARK 922        TOTAL FREE ENERGY PREDICTED BY IDOCK:  -10.02 KCAL/MOL
REMARK 923 INTER-LIGAND FREE ENERGY PREDICTED BY IDOCK:   -8.37 KCAL/MOL
REMARK 924 INTRA-LIGAND FREE ENERGY PREDICTED BY IDOCK:   -1.65 KCAL/MOL
REMARK 927      BINDING AFFINITY PREDICTED BY RF-SCORE:    0.00 PKD
ROOT
HETATM    1  C   UNL     1      -9.493   2.051  68.534  1.00  0.00    -0.157 C  
HETATM    2  O   UNL     1      -9.517   3.393  69.018  1.00  0.00    -0.165 OA 
ENDROOT
BRANCH   2   3
HETATM    3  C   UNL     1      -9.140   4.357  68.119  1.00  0.00    -0.127 A  
HETATM    4  C   UNL     1      -9.565   5.688  68.316  1.00  0.00    -0.145 A  
HETATM    5  C   UNL     1      -9.188   6.676  67.388  1.00  0.00    -0.124 A  
HETATM    6  C   UNL     1      -8.416   4.032  66.961  1.00  0.00    -0.100 A  
HETATM    7 CL   UNL     1      -8.039   7.542  65.105  1.00  0.00    -0.128 Cl 
HETATM    8  C   UNL     1      -8.082   5.013  66.027  1.00  0.00    -0.108 A  
HETATM    9  C   UNL     1      -8.460   6.331  66.251  1.00  0.00    -0.133 A  
BRANCH   4  10
HETATM   10  C   UNL     1     -10.399   6.083  69.500  1.00  0.00    -0.233 C  
HETATM   11  H   UNL     1      -8.711   6.132  70.726  1.00  0.00     0.000 HD 
HETATM   12  O   UNL     1     -11.617   6.182  69.427  1.00  0.00    -0.372 OA 
HETATM   13  N   UNL     1      -9.709   6.336  70.677  1.00  0.00    -0.175 N  
BRANCH  13  14
HETATM   14  C   UNL     1     -10.381   6.886  71.841  1.00  0.00    -0.189 C  
BRANCH  14  15
HETATM   15  C   UNL     1     -10.034   8.356  72.106  1.00  0.00    -0.376 C  
BRANCH  15  16
HETATM   16  C   UNL     1     -10.362   9.324  70.981  1.00  0.00    -0.388 A  
HETATM   17  C   UNL     1      -9.446   9.669  69.974  1.00  0.00    -0.277 A  
HETATM   18  C   UNL     1      -9.769  10.621  69.003  1.00  0.00    -0.214 A  
HETATM   19  C   UNL     1     -11.022  11.234  69.021  1.00  0.00    -0.236 A  
HETATM   20  C   UNL     1     -11.631   9.925  70.962  1.00  0.00    -0.470 A  
HETATM   21  C   UNL     1     -11.957  10.885  69.999  1.00  0.00    -0.429 A  
BRANCH  19  22
HETATM   22  S   UNL     1     -11.359  12.566  67.891  1.00  0.00    -0.313 S  
HETATM   23  O   UNL     1     -11.910  13.659  68.671  1.00  0.00    -0.337 OA 
HETATM   24  O   UNL     1     -12.075  12.050  66.748  1.00  0.00    -0.613 OA 
BRANCH  22  25
HETATM   25  N   UNL     1      -9.859  13.097  67.410  1.00  0.00    -0.222 N  
HETATM   26  H   UNL     1      -9.439  12.664  66.588  1.00  0.00     0.000 HD 
BRANCH  25  27
HETATM   27  C   UNL     1      -9.145  14.090  68.058  1.00  0.00    -0.190 C  
HETATM   28  O   UNL     1      -8.224  13.859  68.819  1.00  0.00    -0.122 OA 
BRANCH  27  29
HETATM   29  N   UNL     1      -9.595  15.350  67.770  1.00  0.00    -0.209 N  
HETATM   30  H   UNL     1     -10.361  15.480  67.109  1.00  0.00     0.000 HD 
BRANCH  29  31
HETATM   31  C   UNL     1      -8.977  16.504  68.408  1.00  0.00    -0.219 C  
HETATM   32  C   UNL     1      -7.780  17.021  67.603  1.00  0.00    -0.183 C  
HETATM   33  C   UNL     1      -8.195  17.769  66.339  1.00  0.00    -0.290 C  
HETATM   34  C   UNL     1      -9.180  18.888  66.654  1.00  0.00    -0.343 C  
HETATM   35  C   UNL     1     -10.401  18.370  67.407  1.00  0.00    -0.415 C  
HETATM   36  C   UNL     1     -10.004  17.609  68.670  1.00  0.00    -0.367 C  
ENDBRANCH  29  31
ENDBRANCH  27  29
ENDBRANCH  25  27
ENDBRANCH  22  25
ENDBRANCH  19  22
ENDBRANCH  15  16
ENDBRANCH  14  15
ENDBRANCH  13  14
ENDBRANCH   4  10
ENDBRANCH   2   3
TORSDOF 10
ENDMDL
MODEL      153
REMARK 921   NORMALIZED FREE ENERGY PREDICTED BY IDOCK:   -5.08 KCAL/MOL
REMARK 922        TOTAL FREE ENERGY PREDICTED BY IDOCK:  -10.02 KCAL/MOL
REMARK 923 INTER-LIGAND FREE ENERGY PREDICTED BY IDOCK:   -8.51 KCAL/MOL
REMARK 924 INTRA-LIGAND FREE ENERGY PREDICTED BY IDOCK:   -1.51 KCAL/MOL
REMARK 927      BINDING AFFINITY PREDICTED BY RF-SCORE:    0.00 PKD
ROOT
HETATM    1  C   UNL     1      -9.651   4.115  67.135  1.00  0.00    -0.197 C  
HETATM    2  O   UNL     1      -8.936   4.956  68.040  1.00  0.00    -0.106 OA 
ENDROOT
BRANCH   2   3
HETATM    3  C   UNL     1      -9.698   5.835  68.765  1.00  0.00    -0.132 A  
HETATM    4  C   UNL     1      -9.576   7.219  68.520  1.00  0.00    -0.140 A  
HETATM    5  C   UNL     1     -10.350   8.122  69.272  1.00  0.00    -0.222 A  
HETATM    6  C   UNL     1     -10.531   5.393  69.805  1.00  0.00    -0.378 A  
HETATM    7 CL   UNL     1     -12.089   8.777  71.228  1.00  0.00    -0.336 Cl 
HETATM    8  C   UNL     1     -11.263   6.300  70.570  1.00  0.00    -0.420 A  
HETATM    9  C   UNL     1     -11.178   7.658  70.292  1.00  0.00    -0.216 A  
BRANCH   4  10
HETATM   10  C   UNL     1      -8.650   7.754  67.467  1.00  0.00    -0.122 C  
HETATM   11  H   UNL     1     -10.037   7.323  65.968  1.00  0.00     0.000 HD 
HETATM   12  O   UNL     1      -7.527   8.159  67.740  1.00  0.00    -0.091 OA 
HETATM   13  N   UNL     1      -9.144   7.773  66.170  1.00  0.00    -0.172 N  
BRANCH  13  14
HETATM   14  C   UNL     1      -8.414   8.420  65.095  1.00  0.00    -0.160 C  
BRANCH  14  15
HETATM   15  C   UNL     1      -9.215   9.522  64.392  1.00  0.00    -0.192 C  
BRANCH  15  16
HETATM   16  C   UNL     1      -9.349  10.828  65.155  1.00  0.00    -0.254 A  
HETATM   17  C   UNL     1      -8.607  11.122  66.311  1.00  0.00    -0.180 A  
HETATM   18  C   UNL     1      -8.820  12.307  67.021  1.00  0.00    -0.205 A  
HETATM   19  C   UNL     1      -9.773  13.222  66.575  1.00  0.00    -0.273 A  
HETATM   20  C   UNL     1     -10.279  11.778  64.701  1.00  0.00    -0.326 A  
HETATM   21  C   UNL     1     -10.503  12.962  65.412  1.00  0.00    -0.308 A  
BRANCH  19  22
HETATM   22  S   UNL     1     -10.159  14.640  67.578  1.00  0.00    -0.224 S  
HETATM   23  O   UNL     1     -10.843  14.153  68.762  1.00  0.00    -0.244 OA 
HETATM   24  O   UNL     1     -10.765  15.657  66.750  1.00  0.00    -0.308 OA 
BRANCH  22  25
HETATM   25  N   UNL     1      -8.685  15.179  68.126  1.00  0.00    -0.163 N  
HETATM   26  H   UNL     1      -8.444  15.006  69.102  1.00  0.00     0.000 HD 
BRANCH  25  27
HETATM   27  C   UNL     1      -7.765  15.848  67.338  1.00  0.00    -0.175 C  
HETATM   28  O   UNL     1      -6.616  15.474  67.194  1.00  0.00    -0.283 OA 
BRANCH  27  29
HETATM   29  N   UNL     1      -8.275  16.976  66.757  1.00  0.00    -0.217 N  
HETATM   30  H   UNL     1      -9.036  16.904  66.081  1.00  0.00     0.000 HD 
BRANCH  29  31
HETATM   31  C   UNL     1      -7.730  18.282  67.105  1.00  0.00    -0.221 C  
HETATM   32  C   UNL     1      -8.132  19.352  66.085  1.00  0.00    -0.323 C  
HETATM   33  C   UNL     1      -9.594  19.775  66.216  1.00  0.00    -0.515 C  
HETATM   34  C   UNL     1      -9.920  20.209  67.640  1.00  0.00    -0.560 C  
HETATM   35  C   UNL     1      -9.572  19.125  68.654  1.00  0.00    -0.471 C  
HETATM   36  C   UNL     1      -8.116  18.682  68.531  1.00  0.00    -0.370 C  
ENDBRANCH  29  31
ENDBRANCH  27  29
ENDBRANCH  25  27
ENDBRANCH  22  25
ENDBRANCH  19  22
ENDBRANCH  15  16
ENDBRANCH  14  15
ENDBRANCH  13  14
ENDBRANCH   4  10
ENDBRANCH   2   3
TORSDOF 10
ENDMDL
MODEL      154
REMARK 921   NORMALIZED FREE ENERGY PREDICTED BY IDOCK:   -5.07 KCAL/MOL
REMARK 922        TOTAL FREE ENERGY PREDICTED BY IDOCK:  -10.00 KCAL/MOL
REMARK 923 INTER-LIGAND FREE ENERGY PREDICTED BY IDOCK:   -9.31 KCAL/MOL
REMARK 924 INTRA-LIGAND FREE ENERGY PREDICTED BY IDOCK:   -0.68 KCAL/MOL
REMARK 927      BINDING AFFINITY PREDICTED BY RF-SCORE:    0.00 PKD
ROOT
HETATM    1  C   UNL     1      -7.041   7.668  70.014  1.00  0.00    -0.059 C  
HETATM    2  O   UNL     1      -7.469   6.859  68.920  1.00  0.00    -0.091 OA 
ENDROOT
BRANCH   2   3
HETATM    3  C   UNL     1      -7.827   7.537  67.783  1.00  0.00    -0.117 A  
HETATM    4  C   UNL     1      -9.190   7.616  67.427  1.00  0.00    -0.150 A  
HETATM    5  C   UNL     1      -9.556   8.302  66.254  1.00  0.00    -0.266 A  
HETATM    6  C   UNL     1      -6.859   8.076  66.920  1.00  0.00    -0.073 A  
HETATM    7 CL   UNL     1      -9.039   9.640  63.969  1.00  0.00    -0.274 Cl 
HETATM    8  C   UNL     1      -7.232   8.718  65.739  1.00  0.00    -0.084 A  
HETATM    9  C   UNL     1      -8.578   8.838  65.419  1.00  0.00    -0.178 A  
BRANCH   4  10
HETATM   10  C   UNL     1     -10.263   6.999  68.275  1.00  0.00    -0.182 C  
HETATM   11  H   UNL     1     -10.078   8.523  69.691  1.00  0.00     0.000 HD 
HETATM   12  O   UNL     1     -10.795   5.939  67.973  1.00  0.00    -0.269 OA 
HETATM   13  N   UNL     1     -10.623   7.705  69.415  1.00  0.00    -0.227 N  
BRANCH  13  14
HETATM   14  C   UNL     1     -11.759   7.302  70.224  1.00  0.00    -0.126 C  
BRANCH  14  15
HETATM   15  C   UNL     1     -11.950   8.162  71.479  1.00  0.00    -0.334 C  
BRANCH  15  16
HETATM   16  C   UNL     1     -12.214   9.637  71.233  1.00  0.00    -0.452 A  
HETATM   17  C   UNL     1     -11.651  10.351  70.162  1.00  0.00    -0.392 A  
HETATM   18  C   UNL     1     -11.865  11.725  70.021  1.00  0.00    -0.422 A  
HETATM   19  C   UNL     1     -12.657  12.403  70.946  1.00  0.00    -0.246 A  
HETATM   20  C   UNL     1     -13.039  10.331  72.134  1.00  0.00    -0.444 A  
HETATM   21  C   UNL     1     -13.250  11.708  72.003  1.00  0.00    -0.443 A  
BRANCH  19  22
HETATM   22  S   UNL     1     -12.780  14.176  70.858  1.00  0.00    -0.359 S  
HETATM   23  O   UNL     1     -11.606  14.719  71.515  1.00  0.00    -0.332 OA 
HETATM   24  O   UNL     1     -14.103  14.581  71.272  1.00  0.00    -0.364 OA 
BRANCH  22  25
HETATM   25  N   UNL     1     -12.572  14.530  69.247  1.00  0.00    -0.547 N  
HETATM   26  H   UNL     1     -13.401  14.572  68.655  1.00  0.00     0.000 HD 
BRANCH  25  27
HETATM   27  C   UNL     1     -11.341  14.772  68.661  1.00  0.00    -0.285 C  
HETATM   28  O   UNL     1     -10.307  14.855  69.296  1.00  0.00    -0.237 OA 
BRANCH  27  29
HETATM   29  N   UNL     1     -11.413  14.924  67.303  1.00  0.00    -0.352 N  
HETATM   30  H   UNL     1     -10.972  15.728  66.855  1.00  0.00     0.000 HD 
BRANCH  29  31
HETATM   31  C   UNL     1     -12.120  13.937  66.499  1.00  0.00    -0.449 C  
HETATM   32  C   UNL     1     -12.336  14.428  65.064  1.00  0.00    -0.401 C  
HETATM   33  C   UNL     1     -11.058  14.395  64.229  1.00  0.00    -0.063 C  
HETATM   34  C   UNL     1     -10.413  13.014  64.256  1.00  0.00    -0.424 C  
HETATM   35  C   UNL     1     -10.145  12.545  65.681  1.00  0.00    -0.285 C  
HETATM   36  C   UNL     1     -11.411  12.581  66.535  1.00  0.00    -0.387 C  
ENDBRANCH  29  31
ENDBRANCH  27  29
ENDBRANCH  25  27
ENDBRANCH  22  25
ENDBRANCH  19  22
ENDBRANCH  15  16
ENDBRANCH  14  15
ENDBRANCH  13  14
ENDBRANCH   4  10
ENDBRANCH   2   3
TORSDOF 10
ENDMDL
MODEL      155
REMARK 921   NORMALIZED FREE ENERGY PREDICTED BY IDOCK:   -5.06 KCAL/MOL
REMARK 922        TOTAL FREE ENERGY PREDICTED BY IDOCK:   -9.98 KCAL/MOL
REMARK 923 INTER-LIGAND FREE ENERGY PREDICTED BY IDOCK:   -8.63 KCAL/MOL
REMARK 924 INTRA-LIGAND FREE ENERGY PREDICTED BY IDOCK:   -1.36 KCAL/MOL
REMARK 927      BINDING AFFINITY PREDICTED BY RF-SCORE:    0.00 PKD
ROOT
HETATM    1  C   UNL     1     -12.670  10.334  71.358  1.00  0.00    -0.442 C  
HETATM    2  O   UNL     1     -11.799   9.641  70.466  1.00  0.00    -0.265 OA 
ENDROOT
BRANCH   2   3
HETATM    3  C   UNL     1     -11.443   8.373  70.847  1.00  0.00    -0.267 A  
HETATM    4  C   UNL     1     -10.592   7.616  70.015  1.00  0.00    -0.240 A  
HETATM    5  C   UNL     1     -10.236   6.310  70.400  1.00  0.00    -0.248 A  
HETATM    6  C   UNL     1     -11.980   7.780  72.001  1.00  0.00    -0.350 A  
HETATM    7 CL   UNL     1     -10.359   4.136  71.993  1.00  0.00    -0.197 Cl 
HETATM    8  C   UNL     1     -11.651   6.471  72.351  1.00  0.00    -0.292 A  
HETATM    9  C   UNL     1     -10.773   5.747  71.556  1.00  0.00    -0.258 A  
BRANCH   4  10
HETATM   10  C   UNL     1     -10.042   8.172  68.734  1.00  0.00    -0.199 C  
HETATM   11  H   UNL     1      -8.289   8.771  69.696  1.00  0.00     0.000 HD 
HETATM   12  O   UNL     1     -10.693   8.169  67.697  1.00  0.00    -0.221 OA 
HETATM   13  N   UNL     1      -8.752   8.682  68.792  1.00  0.00    -0.134 N  
BRANCH  13  14
HETATM   14  C   UNL     1      -8.050   9.092  67.589  1.00  0.00    -0.109 C  
BRANCH  14  15
HETATM   15  C   UNL     1      -7.303  10.422  67.744  1.00  0.00    -0.087 C  
BRANCH  15  16
HETATM   16  C   UNL     1      -8.064  11.660  67.301  1.00  0.00    -0.160 A  
HETATM   17  C   UNL     1      -7.738  12.957  67.731  1.00  0.00    -0.151 A  
HETATM   18  C   UNL     1      -8.514  14.057  67.355  1.00  0.00    -0.209 A  
HETATM   19  C   UNL     1      -9.624  13.874  66.532  1.00  0.00    -0.287 A  
HETATM   20  C   UNL     1      -9.164  11.500  66.443  1.00  0.00    -0.218 A  
HETATM   21  C   UNL     1      -9.951  12.596  66.071  1.00  0.00    -0.267 A  
BRANCH  19  22
HETATM   22  S   UNL     1     -10.704  15.249  66.203  1.00  0.00    -0.324 S  
HETATM   23  O   UNL     1     -12.028  14.707  65.968  1.00  0.00    -0.337 OA 
HETATM   24  O   UNL     1     -10.084  16.116  65.227  1.00  0.00    -0.505 OA 
BRANCH  22  25
HETATM   25  N   UNL     1     -10.819  16.048  67.657  1.00  0.00    -0.323 N  
HETATM   26  H   UNL     1     -11.183  15.533  68.458  1.00  0.00     0.000 HD 
BRANCH  25  27
HETATM   27  C   UNL     1     -10.451  17.369  67.845  1.00  0.00    -0.383 C  
HETATM   28  O   UNL     1     -11.133  18.308  67.477  1.00  0.00    -0.237 OA 
BRANCH  27  29
HETATM   29  N   UNL     1      -9.241  17.506  68.467  1.00  0.00    -0.274 N  
HETATM   30  H   UNL     1      -9.190  17.544  69.485  1.00  0.00     0.000 HD 
BRANCH  29  31
HETATM   31  C   UNL     1      -8.023  17.597  67.672  1.00  0.00    -0.208 C  
HETATM   32  C   UNL     1      -8.025  18.839  66.775  1.00  0.00    -0.265 C  
HETATM   33  C   UNL     1      -7.779  20.130  67.552  1.00  0.00    -0.342 C  
HETATM   34  C   UNL     1      -6.504  20.044  68.382  1.00  0.00    -0.324 C  
HETATM   35  C   UNL     1      -6.520  18.839  69.317  1.00  0.00    -0.301 C  
HETATM   36  C   UNL     1      -6.776  17.539  68.558  1.00  0.00    -0.202 C  
ENDBRANCH  29  31
ENDBRANCH  27  29
ENDBRANCH  25  27
ENDBRANCH  22  25
ENDBRANCH  19  22
ENDBRANCH  15  16
ENDBRANCH  14  15
ENDBRANCH  13  14
ENDBRANCH   4  10
ENDBRANCH   2   3
TORSDOF 10
ENDMDL
MODEL      156
REMARK 921   NORMALIZED FREE ENERGY PREDICTED BY IDOCK:   -5.05 KCAL/MOL
REMARK 922        TOTAL FREE ENERGY PREDICTED BY IDOCK:   -9.98 KCAL/MOL
REMARK 923 INTER-LIGAND FREE ENERGY PREDICTED BY IDOCK:   -9.21 KCAL/MOL
REMARK 924 INTRA-LIGAND FREE ENERGY PREDICTED BY IDOCK:   -0.78 KCAL/MOL
REMARK 927      BINDING AFFINITY PREDICTED BY RF-SCORE:    0.00 PKD
ROOT
HETATM    1  C   UNL     1      -7.772  10.724  68.786  1.00  0.00    -0.121 C  
HETATM    2  O   UNL     1      -8.357   9.879  69.776  1.00  0.00    -0.157 OA 
ENDROOT
BRANCH   2   3
HETATM    3  C   UNL     1      -8.618   8.592  69.381  1.00  0.00    -0.127 A  
HETATM    4  C   UNL     1      -9.601   7.847  70.066  1.00  0.00    -0.168 A  
HETATM    5  C   UNL     1      -9.861   6.523  69.668  1.00  0.00    -0.176 A  
HETATM    6  C   UNL     1      -7.867   7.972  68.370  1.00  0.00    -0.122 A  
HETATM    7 CL   UNL     1      -9.414   4.299  68.206  1.00  0.00    -0.207 Cl 
HETATM    8  C   UNL     1      -8.107   6.645  68.012  1.00  0.00    -0.110 A  
HETATM    9  C   UNL     1      -9.110   5.932  68.655  1.00  0.00    -0.115 A  
BRANCH   4  10
HETATM   10  C   UNL     1     -10.388   8.435  71.200  1.00  0.00    -0.212 C  
HETATM   11  H   UNL     1     -11.687   9.379  69.865  1.00  0.00     0.000 HD 
HETATM   12  O   UNL     1     -10.060   8.269  72.368  1.00  0.00    -0.262 OA 
HETATM   13  N   UNL     1     -11.513   9.169  70.848  1.00  0.00    -0.282 N  
BRANCH  13  14
HETATM   14  C   UNL     1     -12.447   9.643  71.853  1.00  0.00    -0.377 C  
BRANCH  14  15
HETATM   15  C   UNL     1     -13.030  11.026  71.538  1.00  0.00    -0.553 C  
BRANCH  15  16
HETATM   16  C   UNL     1     -12.374  11.772  70.389  1.00  0.00    -0.362 A  
HETATM   17  C   UNL     1     -11.896  11.134  69.233  1.00  0.00    -0.422 A  
HETATM   18  C   UNL     1     -11.232  11.854  68.235  1.00  0.00    -0.317 A  
HETATM   19  C   UNL     1     -11.047  13.228  68.378  1.00  0.00    -0.270 A  
HETATM   20  C   UNL     1     -12.210  13.163  70.498  1.00  0.00    -0.405 A  
HETATM   21  C   UNL     1     -11.538  13.887  69.508  1.00  0.00    -0.358 A  
BRANCH  19  22
HETATM   22  S   UNL     1     -10.050  14.103  67.191  1.00  0.00    -0.261 S  
HETATM   23  O   UNL     1     -10.883  15.143  66.617  1.00  0.00    -0.311 OA 
HETATM   24  O   UNL     1      -9.380  13.149  66.339  1.00  0.00    -0.246 OA 
BRANCH  22  25
HETATM   25  N   UNL     1      -8.924  14.913  68.107  1.00  0.00    -0.171 N  
HETATM   26  H   UNL     1      -8.940  14.776  69.117  1.00  0.00     0.000 HD 
BRANCH  25  27
HETATM   27  C   UNL     1      -7.966  15.762  67.581  1.00  0.00    -0.146 C  
HETATM   28  O   UNL     1      -6.819  15.418  67.363  1.00  0.00    -0.181 OA 
BRANCH  27  29
HETATM   29  N   UNL     1      -8.436  17.026  67.350  1.00  0.00    -0.194 N  
HETATM   30  H   UNL     1      -8.585  17.350  66.395  1.00  0.00     0.000 HD 
BRANCH  29  31
HETATM   31  C   UNL     1      -8.724  17.909  68.473  1.00  0.00    -0.292 C  
HETATM   32  C   UNL     1      -7.790  19.124  68.490  1.00  0.00    -0.380 C  
HETATM   33  C   UNL     1      -8.137  20.151  67.416  1.00  0.00    -0.372 C  
HETATM   34  C   UNL     1      -9.600  20.570  67.499  1.00  0.00    -0.545 C  
HETATM   35  C   UNL     1     -10.535  19.369  67.427  1.00  0.00    -0.581 C  
HETATM   36  C   UNL     1     -10.197  18.324  68.489  1.00  0.00    -0.402 C  
ENDBRANCH  29  31
ENDBRANCH  27  29
ENDBRANCH  25  27
ENDBRANCH  22  25
ENDBRANCH  19  22
ENDBRANCH  15  16
ENDBRANCH  14  15
ENDBRANCH  13  14
ENDBRANCH   4  10
ENDBRANCH   2   3
TORSDOF 10
ENDMDL
MODEL      157
REMARK 921   NORMALIZED FREE ENERGY PREDICTED BY IDOCK:   -5.05 KCAL/MOL
REMARK 922        TOTAL FREE ENERGY PREDICTED BY IDOCK:   -9.98 KCAL/MOL
REMARK 923 INTER-LIGAND FREE ENERGY PREDICTED BY IDOCK:   -8.45 KCAL/MOL
REMARK 924 INTRA-LIGAND FREE ENERGY PREDICTED BY IDOCK:   -1.53 KCAL/MOL
REMARK 927      BINDING AFFINITY PREDICTED BY RF-SCORE:    0.00 PKD
ROOT
HETATM    1  C   UNL     1      -8.242  13.007  67.339  1.00  0.00    -0.183 C  
HETATM    2  O   UNL     1      -7.747  11.885  68.068  1.00  0.00    -0.115 OA 
ENDROOT
BRANCH   2   3
HETATM    3  C   UNL     1      -7.909  10.664  67.466  1.00  0.00    -0.106 A  
HETATM    4  C   UNL     1      -8.939   9.807  67.909  1.00  0.00    -0.119 A  
HETATM    5  C   UNL     1      -9.098   8.550  67.298  1.00  0.00    -0.152 A  
HETATM    6  C   UNL     1      -7.018  10.213  66.479  1.00  0.00    -0.102 A  
HETATM    7 CL   UNL     1      -8.392   6.573  65.603  1.00  0.00    -0.140 Cl 
HETATM    8  C   UNL     1      -7.162   8.949  65.909  1.00  0.00    -0.089 A  
HETATM    9  C   UNL     1      -8.207   8.129  66.313  1.00  0.00    -0.114 A  
BRANCH   4  10
HETATM   10  C   UNL     1      -9.879  10.207  69.008  1.00  0.00    -0.205 C  
HETATM   11  H   UNL     1     -11.122  11.187  67.645  1.00  0.00     0.000 HD 
HETATM   12  O   UNL     1      -9.651   9.942  70.181  1.00  0.00    -0.245 OA 
HETATM   13  N   UNL     1     -11.025  10.886  68.616  1.00  0.00    -0.208 N  
BRANCH  13  14
HETATM   14  C   UNL     1     -12.089  11.177  69.560  1.00  0.00    -0.326 C  
BRANCH  14  15
HETATM   15  C   UNL     1     -11.996  12.581  70.168  1.00  0.00    -0.377 C  
BRANCH  15  16
HETATM   16  C   UNL     1     -11.628  13.695  69.203  1.00  0.00    -0.356 A  
HETATM   17  C   UNL     1     -11.969  13.674  67.841  1.00  0.00    -0.382 A  
HETATM   18  C   UNL     1     -11.544  14.687  66.976  1.00  0.00    -0.385 A  
HETATM   19  C   UNL     1     -10.778  15.743  67.469  1.00  0.00    -0.317 A  
HETATM   20  C   UNL     1     -10.887  14.785  69.688  1.00  0.00    -0.247 A  
HETATM   21  C   UNL     1     -10.450  15.797  68.826  1.00  0.00    -0.228 A  
BRANCH  19  22
HETATM   22  S   UNL     1     -10.095  16.930  66.333  1.00  0.00    -0.333 S  
HETATM   23  O   UNL     1     -10.308  18.244  66.910  1.00  0.00    -0.355 OA 
HETATM   24  O   UNL     1     -10.562  16.633  64.998  1.00  0.00    -0.683 OA 
BRANCH  22  25
HETATM   25  N   UNL     1      -8.452  16.688  66.411  1.00  0.00    -0.286 N  
HETATM   26  H   UNL     1      -8.115  15.737  66.560  1.00  0.00     0.000 HD 
BRANCH  25  27
HETATM   27  C   UNL     1      -7.515  17.699  66.286  1.00  0.00    -0.305 C  
HETATM   28  O   UNL     1      -7.393  18.373  65.280  1.00  0.00    -0.468 OA 
BRANCH  27  29
HETATM   29  N   UNL     1      -6.733  17.847  67.399  1.00  0.00    -0.174 N  
HETATM   30  H   UNL     1      -5.724  17.959  67.303  1.00  0.00     0.000 HD 
BRANCH  29  31
HETATM   31  C   UNL     1      -7.345  17.845  68.721  1.00  0.00    -0.270 C  
HETATM   32  C   UNL     1      -6.839  16.678  69.576  1.00  0.00    -0.157 C  
HETATM   33  C   UNL     1      -5.415  16.891  70.084  1.00  0.00    -0.219 C  
HETATM   34  C   UNL     1      -5.280  18.220  70.818  1.00  0.00    -0.277 C  
HETATM   35  C   UNL     1      -5.731  19.391  69.951  1.00  0.00    -0.275 C  
HETATM   36  C   UNL     1      -7.150  19.191  69.425  1.00  0.00    -0.248 C  
ENDBRANCH  29  31
ENDBRANCH  27  29
ENDBRANCH  25  27
ENDBRANCH  22  25
ENDBRANCH  19  22
ENDBRANCH  15  16
ENDBRANCH  14  15
ENDBRANCH  13  14
ENDBRANCH   4  10
ENDBRANCH   2   3
TORSDOF 10
ENDMDL
MODEL      158
REMARK 921   NORMALIZED FREE ENERGY PREDICTED BY IDOCK:   -5.04 KCAL/MOL
REMARK 922        TOTAL FREE ENERGY PREDICTED BY IDOCK:   -9.96 KCAL/MOL
REMARK 923 INTER-LIGAND FREE ENERGY PREDICTED BY IDOCK:   -8.57 KCAL/MOL
REMARK 924 INTRA-LIGAND FREE ENERGY PREDICTED BY IDOCK:   -1.39 KCAL/MOL
REMARK 927      BINDING AFFINITY PREDICTED BY RF-SCORE:    0.00 PKD
ROOT
HETATM    1  C   UNL     1     -12.087  14.238  69.278  1.00  0.00    -0.313 C  
HETATM    2  O   UNL     1     -11.891  14.514  67.892  1.00  0.00    -0.348 OA 
ENDROOT
BRANCH   2   3
HETATM    3  C   UNL     1     -11.204  15.664  67.605  1.00  0.00    -0.274 A  
HETATM    4  C   UNL     1     -10.749  15.886  66.288  1.00  0.00    -0.261 A  
HETATM    5  C   UNL     1     -10.033  17.061  65.995  1.00  0.00    -0.288 A  
HETATM    6  C   UNL     1     -10.866  16.583  68.611  1.00  0.00    -0.345 A  
HETATM    7 CL   UNL     1      -8.811  19.378  66.643  1.00  0.00    -0.345 Cl 
HETATM    8  C   UNL     1     -10.121  17.725  68.316  1.00  0.00    -0.371 A  
HETATM    9  C   UNL     1      -9.719  17.964  67.009  1.00  0.00    -0.298 A  
BRANCH   4  10
HETATM   10  C   UNL     1     -11.021  14.905  65.185  1.00  0.00    -0.399 C  
HETATM   11  H   UNL     1      -9.272  13.855  65.631  1.00  0.00     0.000 HD 
HETATM   12  O   UNL     1     -11.984  15.022  64.439  1.00  0.00    -0.442 OA 
HETATM   13  N   UNL     1     -10.122  13.853  65.066  1.00  0.00    -0.338 N  
BRANCH  13  14
HETATM   14  C   UNL     1     -10.368  12.752  64.153  1.00  0.00    -0.376 C  
BRANCH  14  15
HETATM   15  C   UNL     1     -11.453  11.786  64.642  1.00  0.00    -0.303 C  
BRANCH  15  16
HETATM   16  C   UNL     1     -11.125  11.013  65.908  1.00  0.00    -0.038 A  
HETATM   17  C   UNL     1     -11.584  11.392  67.180  1.00  0.00    -0.182 A  
HETATM   18  C   UNL     1     -11.194  10.691  68.325  1.00  0.00    -0.362 A  
HETATM   19  C   UNL     1     -10.346   9.590  68.209  1.00  0.00    -0.207 A  
HETATM   20  C   UNL     1     -10.301   9.879  65.808  1.00  0.00    -0.155 A  
HETATM   21  C   UNL     1      -9.900   9.179  66.950  1.00  0.00    -0.280 A  
BRANCH  19  22
HETATM   22  S   UNL     1      -9.717   8.814  69.681  1.00  0.00    -0.176 S  
HETATM   23  O   UNL     1      -8.760   9.730  70.272  1.00  0.00    -0.209 OA 
HETATM   24  O   UNL     1      -9.334   7.455  69.375  1.00  0.00    -0.155 OA 
BRANCH  22  25
HETATM   25  N   UNL     1     -11.005   8.802  70.732  1.00  0.00    -0.238 N  
HETATM   26  H   UNL     1     -11.491   9.683  70.904  1.00  0.00     0.000 HD 
BRANCH  25  27
HETATM   27  C   UNL     1     -11.458   7.671  71.387  1.00  0.00    -0.264 C  
HETATM   28  O   UNL     1     -12.609   7.281  71.324  1.00  0.00    -0.355 OA 
BRANCH  27  29
HETATM   29  N   UNL     1     -10.486   7.051  72.124  1.00  0.00    -0.206 N  
HETATM   30  H   UNL     1      -9.666   7.575  72.431  1.00  0.00     0.000 HD 
BRANCH  29  31
HETATM   31  C   UNL     1     -10.624   5.643  72.469  1.00  0.00    -0.224 C  
HETATM   32  C   UNL     1      -9.930   4.739  71.445  1.00  0.00    -0.267 C  
HETATM   33  C   UNL     1      -8.409   4.762  71.571  1.00  0.00    -0.109 C  
HETATM   34  C   UNL     1      -7.964   4.439  72.992  1.00  0.00    -0.094 C  
HETATM   35  C   UNL     1      -8.610   5.372  74.011  1.00  0.00    -0.115 C  
HETATM   36  C   UNL     1     -10.133   5.369  73.893  1.00  0.00    -0.232 C  
ENDBRANCH  29  31
ENDBRANCH  27  29
ENDBRANCH  25  27
ENDBRANCH  22  25
ENDBRANCH  19  22
ENDBRANCH  15  16
ENDBRANCH  14  15
ENDBRANCH  13  14
ENDBRANCH   4  10
ENDBRANCH   2   3
TORSDOF 10
ENDMDL
MODEL      159
REMARK 921   NORMALIZED FREE ENERGY PREDICTED BY IDOCK:   -5.04 KCAL/MOL
REMARK 922        TOTAL FREE ENERGY PREDICTED BY IDOCK:   -9.96 KCAL/MOL
REMARK 923 INTER-LIGAND FREE ENERGY PREDICTED BY IDOCK:   -9.60 KCAL/MOL
REMARK 924 INTRA-LIGAND FREE ENERGY PREDICTED BY IDOCK:   -0.37 KCAL/MOL
REMARK 927      BINDING AFFINITY PREDICTED BY RF-SCORE:    0.00 PKD
ROOT
HETATM    1  C   UNL     1     -11.047   6.295  68.514  1.00  0.00    -0.308 C  
HETATM    2  O   UNL     1     -10.483   6.426  69.818  1.00  0.00    -0.186 OA 
ENDROOT
BRANCH   2   3
HETATM    3  C   UNL     1      -9.335   7.171  69.899  1.00  0.00    -0.150 A  
HETATM    4  C   UNL     1      -9.275   8.251  70.804  1.00  0.00    -0.174 A  
HETATM    5  C   UNL     1      -8.101   9.022  70.878  1.00  0.00    -0.203 A  
HETATM    6  C   UNL     1      -8.252   6.937  69.037  1.00  0.00    -0.125 A  
HETATM    7 CL   UNL     1      -5.620   9.740  70.096  1.00  0.00    -0.040 Cl 
HETATM    8  C   UNL     1      -7.108   7.733  69.093  1.00  0.00    -0.073 A  
HETATM    9  C   UNL     1      -7.034   8.764  70.020  1.00  0.00    -0.043 A  
BRANCH   4  10
HETATM   10  C   UNL     1     -10.428   8.592  71.702  1.00  0.00    -0.275 C  
HETATM   11  H   UNL     1     -10.864  10.290  70.568  1.00  0.00     0.000 HD 
HETATM   12  O   UNL     1     -10.692   7.927  72.695  1.00  0.00    -0.290 OA 
HETATM   13  N   UNL     1     -11.183   9.698  71.335  1.00  0.00    -0.374 N  
BRANCH  13  14
HETATM   14  C   UNL     1     -12.419  10.028  72.022  1.00  0.00    -0.224 C  
BRANCH  14  15
HETATM   15  C   UNL     1     -12.821  11.501  71.877  1.00  0.00    -0.372 C  
BRANCH  15  16
HETATM   16  C   UNL     1     -12.377  12.182  70.595  1.00  0.00    -0.385 A  
HETATM   17  C   UNL     1     -12.297  13.578  70.455  1.00  0.00    -0.397 A  
HETATM   18  C   UNL     1     -11.954  14.160  69.231  1.00  0.00    -0.382 A  
HETATM   19  C   UNL     1     -11.674  13.350  68.131  1.00  0.00    -0.362 A  
HETATM   20  C   UNL     1     -12.056  11.382  69.486  1.00  0.00    -0.370 A  
HETATM   21  C   UNL     1     -11.721  11.959  68.256  1.00  0.00    -0.385 A  
BRANCH  19  22
HETATM   22  S   UNL     1     -11.411  14.099  66.539  1.00  0.00    -0.354 S  
HETATM   23  O   UNL     1     -12.652  13.976  65.798  1.00  0.00    -0.491 OA 
HETATM   24  O   UNL     1     -10.173  13.605  65.981  1.00  0.00    -0.292 OA 
BRANCH  22  25
HETATM   25  N   UNL     1     -11.263  15.723  66.860  1.00  0.00    -0.136 N  
HETATM   26  H   UNL     1     -11.687  16.083  67.715  1.00  0.00     0.000 HD 
BRANCH  25  27
HETATM   27  C   UNL     1     -10.598  16.617  66.038  1.00  0.00    -0.233 C  
HETATM   28  O   UNL     1     -10.854  16.749  64.856  1.00  0.00    -0.707 OA 
BRANCH  27  29
HETATM   29  N   UNL     1      -9.617  17.316  66.686  1.00  0.00    -0.265 N  
HETATM   30  H   UNL     1      -8.760  16.845  66.977  1.00  0.00     0.000 HD 
BRANCH  29  31
HETATM   31  C   UNL     1      -9.799  18.735  66.962  1.00  0.00    -0.325 C  
HETATM   32  C   UNL     1      -9.562  19.059  68.440  1.00  0.00    -0.429 C  
HETATM   33  C   UNL     1      -8.084  19.034  68.822  1.00  0.00    -0.372 C  
HETATM   34  C   UNL     1      -7.260  19.939  67.913  1.00  0.00    -0.317 C  
HETATM   35  C   UNL     1      -7.451  19.585  66.442  1.00  0.00    -0.277 C  
HETATM   36  C   UNL     1      -8.925  19.595  66.044  1.00  0.00    -0.279 C  
ENDBRANCH  29  31
ENDBRANCH  27  29
ENDBRANCH  25  27
ENDBRANCH  22  25
ENDBRANCH  19  22
ENDBRANCH  15  16
ENDBRANCH  14  15
ENDBRANCH  13  14
ENDBRANCH   4  10
ENDBRANCH   2   3
TORSDOF 10
ENDMDL
MODEL      160
REMARK 921   NORMALIZED FREE ENERGY PREDICTED BY IDOCK:   -5.04 KCAL/MOL
REMARK 922        TOTAL FREE ENERGY PREDICTED BY IDOCK:   -9.95 KCAL/MOL
REMARK 923 INTER-LIGAND FREE ENERGY PREDICTED BY IDOCK:   -7.28 KCAL/MOL
REMARK 924 INTRA-LIGAND FREE ENERGY PREDICTED BY IDOCK:   -2.67 KCAL/MOL
REMARK 927      BINDING AFFINITY PREDICTED BY RF-SCORE:    0.00 PKD
ROOT
HETATM    1  C   UNL     1     -11.085   5.345  73.145  1.00  0.00    -0.308 C  
HETATM    2  O   UNL     1     -10.874   6.669  73.634  1.00  0.00    -0.274 OA 
ENDROOT
BRANCH   2   3
HETATM    3  C   UNL     1     -11.083   7.678  72.730  1.00  0.00    -0.383 A  
HETATM    4  C   UNL     1      -9.975   8.393  72.226  1.00  0.00    -0.383 A  
HETATM    5  C   UNL     1     -10.190   9.436  71.307  1.00  0.00    -0.340 A  
HETATM    6  C   UNL     1     -12.379   8.073  72.363  1.00  0.00    -0.299 A  
HETATM    7 CL   UNL     1     -11.733  11.105  69.853  1.00  0.00    -0.397 Cl 
HETATM    8  C   UNL     1     -12.580   9.135  71.481  1.00  0.00    -0.413 A  
HETATM    9  C   UNL     1     -11.485   9.803  70.949  1.00  0.00    -0.369 A  
BRANCH   4  10
HETATM   10  C   UNL     1      -8.570   8.060  72.636  1.00  0.00    -0.179 C  
HETATM   11  H   UNL     1      -8.487   6.506  71.244  1.00  0.00     0.000 HD 
HETATM   12  O   UNL     1      -8.006   8.652  73.546  1.00  0.00    -0.410 OA 
HETATM   13  N   UNL     1      -7.946   7.050  71.916  1.00  0.00    -0.098 N  
BRANCH  13  14
HETATM   14  C   UNL     1      -6.537   6.753  72.102  1.00  0.00    -0.058 C  
BRANCH  14  15
HETATM   15  C   UNL     1      -5.617   7.564  71.182  1.00  0.00    -0.034 C  
BRANCH  15  16
HETATM   16  C   UNL     1      -6.196   7.930  69.827  1.00  0.00    -0.026 A  
HETATM   17  C   UNL     1      -6.239   7.037  68.743  1.00  0.00    -0.027 A  
HETATM   18  C   UNL     1      -6.714   7.443  67.493  1.00  0.00    -0.069 A  
HETATM   19  C   UNL     1      -7.164   8.750  67.313  1.00  0.00    -0.080 A  
HETATM   20  C   UNL     1      -6.688   9.232  69.636  1.00  0.00    -0.047 A  
HETATM   21  C   UNL     1      -7.155   9.647  68.385  1.00  0.00    -0.070 A  
BRANCH  19  22
HETATM   22  S   UNL     1      -7.600   9.307  65.681  1.00  0.00    -0.095 S  
HETATM   23  O   UNL     1      -7.412   8.184  64.782  1.00  0.00    -0.084 OA 
HETATM   24  O   UNL     1      -6.949  10.570  65.420  1.00  0.00    -0.133 OA 
BRANCH  22  25
HETATM   25  N   UNL     1      -9.246   9.536  65.742  1.00  0.00    -0.194 N  
HETATM   26  H   UNL     1      -9.646  10.287  65.182  1.00  0.00     0.000 HD 
BRANCH  25  27
HETATM   27  C   UNL     1     -10.105   8.767  66.508  1.00  0.00    -0.279 C  
HETATM   28  O   UNL     1     -10.932   9.245  67.262  1.00  0.00    -0.166 OA 
BRANCH  27  29
HETATM   29  N   UNL     1      -9.915   7.422  66.344  1.00  0.00    -0.451 N  
HETATM   30  H   UNL     1      -9.100   7.080  65.833  1.00  0.00     0.000 HD 
BRANCH  29  31
HETATM   31  C   UNL     1     -10.877   6.480  66.899  1.00  0.00    -0.357 C  
HETATM   32  C   UNL     1     -10.650   5.061  66.367  1.00  0.00    -0.317 C  
HETATM   33  C   UNL     1      -9.426   4.387  66.982  1.00  0.00    -0.194 C  
HETATM   34  C   UNL     1      -9.487   4.408  68.505  1.00  0.00    -0.217 C  
HETATM   35  C   UNL     1      -9.658   5.825  69.042  1.00  0.00    -0.168 C  
HETATM   36  C   UNL     1     -10.872   6.520  68.430  1.00  0.00    -0.357 C  
ENDBRANCH  29  31
ENDBRANCH  27  29
ENDBRANCH  25  27
ENDBRANCH  22  25
ENDBRANCH  19  22
ENDBRANCH  15  16
ENDBRANCH  14  15
ENDBRANCH  13  14
ENDBRANCH   4  10
ENDBRANCH   2   3
TORSDOF 10
ENDMDL
MODEL      161
REMARK 921   NORMALIZED FREE ENERGY PREDICTED BY IDOCK:   -5.03 KCAL/MOL
REMARK 922        TOTAL FREE ENERGY PREDICTED BY IDOCK:   -9.94 KCAL/MOL
REMARK 923 INTER-LIGAND FREE ENERGY PREDICTED BY IDOCK:   -8.46 KCAL/MOL
REMARK 924 INTRA-LIGAND FREE ENERGY PREDICTED BY IDOCK:   -1.48 KCAL/MOL
REMARK 927      BINDING AFFINITY PREDICTED BY RF-SCORE:    0.00 PKD
ROOT
HETATM    1  C   UNL     1      -8.179   3.455  66.139  1.00  0.00    -0.097 C  
HETATM    2  O   UNL     1      -9.075   4.557  66.272  1.00  0.00    -0.116 OA 
ENDROOT
BRANCH   2   3
HETATM    3  C   UNL     1      -8.577   5.779  65.902  1.00  0.00    -0.146 A  
HETATM    4  C   UNL     1      -9.109   6.948  66.487  1.00  0.00    -0.179 A  
HETATM    5  C   UNL     1      -8.605   8.202  66.098  1.00  0.00    -0.154 A  
HETATM    6  C   UNL     1      -7.612   5.897  64.889  1.00  0.00    -0.090 A  
HETATM    7 CL   UNL     1      -7.061   9.836  64.606  1.00  0.00    -0.121 Cl 
HETATM    8  C   UNL     1      -7.149   7.148  64.483  1.00  0.00    -0.058 A  
HETATM    9  C   UNL     1      -7.639   8.293  65.097  1.00  0.00    -0.093 A  
BRANCH   4  10
HETATM   10  C   UNL     1     -10.190   6.887  67.525  1.00  0.00    -0.194 C  
HETATM   11  H   UNL     1      -8.792   7.132  69.056  1.00  0.00     0.000 HD 
HETATM   12  O   UNL     1     -11.361   6.685  67.228  1.00  0.00    -0.324 OA 
HETATM   13  N   UNL     1      -9.788   7.081  68.840  1.00  0.00    -0.148 N  
BRANCH  13  14
HETATM   14  C   UNL     1     -10.757   7.214  69.912  1.00  0.00    -0.239 C  
BRANCH  14  15
HETATM   15  C   UNL     1     -10.717   8.582  70.604  1.00  0.00    -0.251 C  
BRANCH  15  16
HETATM   16  C   UNL     1     -10.694   9.787  69.680  1.00  0.00    -0.264 A  
HETATM   17  C   UNL     1      -9.539  10.218  69.006  1.00  0.00    -0.210 A  
HETATM   18  C   UNL     1      -9.551  11.377  68.225  1.00  0.00    -0.192 A  
HETATM   19  C   UNL     1     -10.726  12.116  68.098  1.00  0.00    -0.211 A  
HETATM   20  C   UNL     1     -11.878  10.525  69.511  1.00  0.00    -0.287 A  
HETATM   21  C   UNL     1     -11.893  11.691  68.738  1.00  0.00    -0.387 A  
BRANCH  19  22
HETATM   22  S   UNL     1     -10.687  13.679  67.248  1.00  0.00    -0.281 S  
HETATM   23  O   UNL     1     -12.032  13.940  66.772  1.00  0.00    -0.396 OA 
HETATM   24  O   UNL     1      -9.571  13.692  66.331  1.00  0.00    -0.277 OA 
BRANCH  22  25
HETATM   25  N   UNL     1     -10.430  14.801  68.447  1.00  0.00    -0.238 N  
HETATM   26  H   UNL     1      -9.584  14.717  69.009  1.00  0.00     0.000 HD 
BRANCH  25  27
HETATM   27  C   UNL     1     -11.296  15.844  68.728  1.00  0.00    -0.378 C  
HETATM   28  O   UNL     1     -12.104  15.811  69.637  1.00  0.00    -0.355 OA 
BRANCH  27  29
HETATM   29  N   UNL     1     -11.161  16.901  67.869  1.00  0.00    -0.244 N  
HETATM   30  H   UNL     1     -11.989  17.371  67.504  1.00  0.00     0.000 HD 
BRANCH  29  31
HETATM   31  C   UNL     1      -9.832  17.353  67.479  1.00  0.00    -0.277 C  
HETATM   32  C   UNL     1      -9.866  18.139  66.165  1.00  0.00    -0.255 C  
HETATM   33  C   UNL     1     -10.445  19.542  66.330  1.00  0.00    -0.609 C  
HETATM   34  C   UNL     1      -9.721  20.317  67.425  1.00  0.00    -0.584 C  
HETATM   35  C   UNL     1      -9.732  19.562  68.750  1.00  0.00    -0.513 C  
HETATM   36  C   UNL     1      -9.166  18.152  68.602  1.00  0.00    -0.295 C  
ENDBRANCH  29  31
ENDBRANCH  27  29
ENDBRANCH  25  27
ENDBRANCH  22  25
ENDBRANCH  19  22
ENDBRANCH  15  16
ENDBRANCH  14  15
ENDBRANCH  13  14
ENDBRANCH   4  10
ENDBRANCH   2   3
TORSDOF 10
ENDMDL
MODEL      162
REMARK 921   NORMALIZED FREE ENERGY PREDICTED BY IDOCK:   -5.02 KCAL/MOL
REMARK 922        TOTAL FREE ENERGY PREDICTED BY IDOCK:   -9.93 KCAL/MOL
REMARK 923 INTER-LIGAND FREE ENERGY PREDICTED BY IDOCK:   -7.87 KCAL/MOL
REMARK 924 INTRA-LIGAND FREE ENERGY PREDICTED BY IDOCK:   -2.06 KCAL/MOL
REMARK 927      BINDING AFFINITY PREDICTED BY RF-SCORE:    0.00 PKD
ROOT
HETATM    1  C   UNL     1     -11.577   5.828  72.698  1.00  0.00    -0.253 C  
HETATM    2  O   UNL     1     -11.438   7.146  73.227  1.00  0.00    -0.101 OA 
ENDROOT
BRANCH   2   3
HETATM    3  C   UNL     1     -11.500   8.165  72.313  1.00  0.00    -0.371 A  
HETATM    4  C   UNL     1     -10.302   8.748  71.848  1.00  0.00    -0.414 A  
HETATM    5  C   UNL     1     -10.365   9.802  70.918  1.00  0.00    -0.245 A  
HETATM    6  C   UNL     1     -12.730   8.699  71.896  1.00  0.00    -0.413 A  
HETATM    7 CL   UNL     1     -11.659  11.622  69.403  1.00  0.00    -0.358 Cl 
HETATM    8  C   UNL     1     -12.779   9.770  71.004  1.00  0.00    -0.392 A  
HETATM    9  C   UNL     1     -11.598  10.308  70.511  1.00  0.00    -0.338 A  
BRANCH   4  10
HETATM   10  C   UNL     1      -8.959   8.265  72.311  1.00  0.00    -0.213 C  
HETATM   11  H   UNL     1      -8.845   6.922  70.717  1.00  0.00     0.000 HD 
HETATM   12  O   UNL     1      -8.442   8.682  73.340  1.00  0.00    -0.385 OA 
HETATM   13  N   UNL     1      -8.334   7.327  71.501  1.00  0.00    -0.109 N  
BRANCH  13  14
HETATM   14  C   UNL     1      -6.965   6.909  71.749  1.00  0.00    -0.070 C  
BRANCH  14  15
HETATM   15  C   UNL     1      -5.928   7.980  71.390  1.00  0.00    -0.035 C  
BRANCH  15  16
HETATM   16  C   UNL     1      -6.263   8.847  70.189  1.00  0.00    -0.037 A  
HETATM   17  C   UNL     1      -6.189   8.386  68.865  1.00  0.00    -0.044 A  
HETATM   18  C   UNL     1      -6.436   9.244  67.789  1.00  0.00    -0.059 A  
HETATM   19  C   UNL     1      -6.773  10.576  68.027  1.00  0.00    -0.065 A  
HETATM   20  C   UNL     1      -6.640  10.182  70.410  1.00  0.00    -0.132 A  
HETATM   21  C   UNL     1      -6.880  11.048  69.338  1.00  0.00    -0.119 A  
BRANCH  19  22
HETATM   22  S   UNL     1      -6.913  11.700  66.654  1.00  0.00     0.047 S  
HETATM   23  O   UNL     1      -5.651  11.663  65.941  1.00  0.00    -0.171 OA 
HETATM   24  O   UNL     1      -7.453  12.956  67.123  1.00  0.00    -0.115 OA 
BRANCH  22  25
HETATM   25  N   UNL     1      -8.005  10.976  65.631  1.00  0.00    -0.358 N  
HETATM   26  H   UNL     1      -7.640  10.434  64.847  1.00  0.00     0.000 HD 
BRANCH  25  27
HETATM   27  C   UNL     1      -9.379  11.065  65.777  1.00  0.00    -0.211 C  
HETATM   28  O   UNL     1     -10.053  10.182  66.274  1.00  0.00    -0.226 OA 
BRANCH  27  29
HETATM   29  N   UNL     1      -9.897  12.233  65.290  1.00  0.00    -0.387 N  
HETATM   30  H   UNL     1      -9.483  12.672  64.467  1.00  0.00     0.000 HD 
BRANCH  29  31
HETATM   31  C   UNL     1     -11.040  12.850  65.949  1.00  0.00    -0.283 C  
HETATM   32  C   UNL     1     -10.733  14.286  66.385  1.00  0.00    -0.297 C  
HETATM   33  C   UNL     1     -10.704  15.267  65.216  1.00  0.00    -0.433 C  
HETATM   34  C   UNL     1     -11.988  15.194  64.398  1.00  0.00    -0.321 C  
HETATM   35  C   UNL     1     -12.269  13.776  63.914  1.00  0.00    -0.402 C  
HETATM   36  C   UNL     1     -12.292  12.779  65.070  1.00  0.00    -0.559 C  
ENDBRANCH  29  31
ENDBRANCH  27  29
ENDBRANCH  25  27
ENDBRANCH  22  25
ENDBRANCH  19  22
ENDBRANCH  15  16
ENDBRANCH  14  15
ENDBRANCH  13  14
ENDBRANCH   4  10
ENDBRANCH   2   3
TORSDOF 10
ENDMDL
MODEL      163
REMARK 921   NORMALIZED FREE ENERGY PREDICTED BY IDOCK:   -5.02 KCAL/MOL
REMARK 922        TOTAL FREE ENERGY PREDICTED BY IDOCK:   -9.92 KCAL/MOL
REMARK 923 INTER-LIGAND FREE ENERGY PREDICTED BY IDOCK:   -8.30 KCAL/MOL
REMARK 924 INTRA-LIGAND FREE ENERGY PREDICTED BY IDOCK:   -1.62 KCAL/MOL
REMARK 927      BINDING AFFINITY PREDICTED BY RF-SCORE:    0.00 PKD
ROOT
HETATM    1  C   UNL     1     -10.576   5.712  73.950  1.00  0.00    -0.256 C  
HETATM    2  O   UNL     1     -11.108   5.672  72.627  1.00  0.00    -0.250 OA 
ENDROOT
BRANCH   2   3
HETATM    3  C   UNL     1     -11.337   6.889  72.039  1.00  0.00    -0.265 A  
HETATM    4  C   UNL     1     -10.667   7.213  70.841  1.00  0.00    -0.251 A  
HETATM    5  C   UNL     1     -10.892   8.467  70.244  1.00  0.00    -0.249 A  
HETATM    6  C   UNL     1     -12.153   7.853  72.652  1.00  0.00    -0.240 A  
HETATM    7 CL   UNL     1     -11.951  10.947  70.143  1.00  0.00    -0.400 Cl 
HETATM    8  C   UNL     1     -12.337   9.108  72.071  1.00  0.00    -0.448 A  
HETATM    9  C   UNL     1     -11.716   9.404  70.865  1.00  0.00    -0.308 A  
BRANCH   4  10
HETATM   10  C   UNL     1      -9.729   6.249  70.176  1.00  0.00    -0.163 C  
HETATM   11  H   UNL     1     -11.300   4.935  69.770  1.00  0.00     0.000 HD 
HETATM   12  O   UNL     1      -8.522   6.450  70.129  1.00  0.00    -0.131 OA 
HETATM   13  N   UNL     1     -10.310   5.121  69.611  1.00  0.00    -0.272 N  
BRANCH  13  14
HETATM   14  C   UNL     1      -9.535   4.203  68.797  1.00  0.00    -0.163 C  
BRANCH  14  15
HETATM   15  C   UNL     1      -9.773   4.373  67.291  1.00  0.00    -0.222 C  
BRANCH  15  16
HETATM   16  C   UNL     1      -9.457   5.747  66.726  1.00  0.00    -0.154 A  
HETATM   17  C   UNL     1      -8.272   6.037  66.030  1.00  0.00    -0.125 A  
HETATM   18  C   UNL     1      -7.993   7.335  65.593  1.00  0.00    -0.123 A  
HETATM   19  C   UNL     1      -8.904   8.361  65.839  1.00  0.00    -0.175 A  
HETATM   20  C   UNL     1     -10.380   6.786  66.932  1.00  0.00    -0.324 A  
HETATM   21  C   UNL     1     -10.102   8.089  66.505  1.00  0.00    -0.270 A  
BRANCH  19  22
HETATM   22  S   UNL     1      -8.462  10.037  65.436  1.00  0.00    -0.159 S  
HETATM   23  O   UNL     1      -7.870  10.016  64.112  1.00  0.00    -0.138 OA 
HETATM   24  O   UNL     1      -7.748  10.620  66.548  1.00  0.00    -0.124 OA 
BRANCH  22  25
HETATM   25  N   UNL     1      -9.917  10.819  65.242  1.00  0.00    -0.263 N  
HETATM   26  H   UNL     1     -10.771  10.290  65.416  1.00  0.00     0.000 HD 
BRANCH  25  27
HETATM   27  C   UNL     1     -10.038  12.143  64.860  1.00  0.00    -0.254 C  
HETATM   28  O   UNL     1     -10.425  12.485  63.758  1.00  0.00    -0.416 OA 
BRANCH  27  29
HETATM   29  N   UNL     1      -9.661  13.021  65.839  1.00  0.00    -0.448 N  
HETATM   30  H   UNL     1      -9.020  13.785  65.621  1.00  0.00     0.000 HD 
BRANCH  29  31
HETATM   31  C   UNL     1     -10.176  12.864  67.192  1.00  0.00    -0.239 C  
HETATM   32  C   UNL     1      -9.503  13.834  68.169  1.00  0.00    -0.212 C  
HETATM   33  C   UNL     1      -9.989  15.272  68.004  1.00  0.00    -0.224 C  
HETATM   34  C   UNL     1     -11.509  15.358  68.089  1.00  0.00    -0.352 C  
HETATM   35  C   UNL     1     -12.183  14.434  67.080  1.00  0.00    -0.257 C  
HETATM   36  C   UNL     1     -11.701  12.992  67.224  1.00  0.00    -0.429 C  
ENDBRANCH  29  31
ENDBRANCH  27  29
ENDBRANCH  25  27
ENDBRANCH  22  25
ENDBRANCH  19  22
ENDBRANCH  15  16
ENDBRANCH  14  15
ENDBRANCH  13  14
ENDBRANCH   4  10
ENDBRANCH   2   3
TORSDOF 10
ENDMDL
MODEL      164
REMARK 921   NORMALIZED FREE ENERGY PREDICTED BY IDOCK:   -5.01 KCAL/MOL
REMARK 922        TOTAL FREE ENERGY PREDICTED BY IDOCK:   -9.91 KCAL/MOL
REMARK 923 INTER-LIGAND FREE ENERGY PREDICTED BY IDOCK:   -8.58 KCAL/MOL
REMARK 924 INTRA-LIGAND FREE ENERGY PREDICTED BY IDOCK:   -1.33 KCAL/MOL
REMARK 927      BINDING AFFINITY PREDICTED BY RF-SCORE:    0.00 PKD
ROOT
HETATM    1  C   UNL     1      -7.767   5.594  71.624  1.00  0.00    -0.107 C  
HETATM    2  O   UNL     1      -7.544   6.376  70.451  1.00  0.00    -0.092 OA 
ENDROOT
BRANCH   2   3
HETATM    3  C   UNL     1      -8.290   6.029  69.354  1.00  0.00    -0.115 A  
HETATM    4  C   UNL     1      -9.373   6.848  68.970  1.00  0.00    -0.135 A  
HETATM    5  C   UNL     1     -10.146   6.487  67.851  1.00  0.00    -0.170 A  
HETATM    6  C   UNL     1      -8.054   4.832  68.660  1.00  0.00    -0.083 A  
HETATM    7 CL   UNL     1     -10.863   4.851  65.828  1.00  0.00    -0.242 Cl 
HETATM    8  C   UNL     1      -8.852   4.465  67.576  1.00  0.00    -0.119 A  
HETATM    9  C   UNL     1      -9.886   5.299  67.171  1.00  0.00    -0.164 A  
BRANCH   4  10
HETATM   10  C   UNL     1      -9.715   8.104  69.717  1.00  0.00    -0.173 C  
HETATM   11  H   UNL     1     -11.444   7.224  70.489  1.00  0.00     0.000 HD 
HETATM   12  O   UNL     1      -9.035   9.117  69.622  1.00  0.00    -0.141 OA 
HETATM   13  N   UNL     1     -10.842   8.047  70.526  1.00  0.00    -0.238 N  
BRANCH  13  14
HETATM   14  C   UNL     1     -11.179   9.135  71.425  1.00  0.00    -0.349 C  
BRANCH  14  15
HETATM   15  C   UNL     1     -12.409   9.935  70.979  1.00  0.00    -0.451 C  
BRANCH  15  16
HETATM   16  C   UNL     1     -12.141  11.063  69.998  1.00  0.00    -0.441 A  
HETATM   17  C   UNL     1     -11.878  10.849  68.635  1.00  0.00    -0.269 A  
HETATM   18  C   UNL     1     -11.563  11.914  67.786  1.00  0.00    -0.393 A  
HETATM   19  C   UNL     1     -11.519  13.214  68.290  1.00  0.00    -0.314 A  
HETATM   20  C   UNL     1     -12.127  12.383  70.479  1.00  0.00    -0.363 A  
HETATM   21  C   UNL     1     -11.804  13.452  69.637  1.00  0.00    -0.394 A  
BRANCH  19  22
HETATM   22  S   UNL     1     -10.948  14.536  67.246  1.00  0.00    -0.315 S  
HETATM   23  O   UNL     1     -11.792  14.544  66.066  1.00  0.00    -0.373 OA 
HETATM   24  O   UNL     1      -9.511  14.453  67.117  1.00  0.00    -0.208 OA 
BRANCH  22  25
HETATM   25  N   UNL     1     -11.350  15.923  68.070  1.00  0.00    -0.322 N  
HETATM   26  H   UNL     1     -12.243  16.366  67.855  1.00  0.00     0.000 HD 
BRANCH  25  27
HETATM   27  C   UNL     1     -10.546  16.513  69.030  1.00  0.00    -0.324 C  
HETATM   28  O   UNL     1     -10.912  16.715  70.172  1.00  0.00    -0.321 OA 
BRANCH  27  29
HETATM   29  N   UNL     1      -9.310  16.859  68.556  1.00  0.00    -0.251 N  
HETATM   30  H   UNL     1      -8.489  16.317  68.824  1.00  0.00     0.000 HD 
BRANCH  29  31
HETATM   31  C   UNL     1      -9.169  18.005  67.667  1.00  0.00    -0.259 C  
HETATM   32  C   UNL     1      -8.494  19.187  68.370  1.00  0.00    -0.384 C  
HETATM   33  C   UNL     1      -6.994  18.980  68.567  1.00  0.00    -0.304 C  
HETATM   34  C   UNL     1      -6.302  18.645  67.251  1.00  0.00    -0.192 C  
HETATM   35  C   UNL     1      -6.936  17.435  66.573  1.00  0.00    -0.295 C  
HETATM   36  C   UNL     1      -8.439  17.620  66.377  1.00  0.00    -0.279 C  
ENDBRANCH  29  31
ENDBRANCH  27  29
ENDBRANCH  25  27
ENDBRANCH  22  25
ENDBRANCH  19  22
ENDBRANCH  15  16
ENDBRANCH  14  15
ENDBRANCH  13  14
ENDBRANCH   4  10
ENDBRANCH   2   3
TORSDOF 10
ENDMDL
MODEL      165
REMARK 921   NORMALIZED FREE ENERGY PREDICTED BY IDOCK:   -5.01 KCAL/MOL
REMARK 922        TOTAL FREE ENERGY PREDICTED BY IDOCK:   -9.91 KCAL/MOL
REMARK 923 INTER-LIGAND FREE ENERGY PREDICTED BY IDOCK:   -7.89 KCAL/MOL
REMARK 924 INTRA-LIGAND FREE ENERGY PREDICTED BY IDOCK:   -2.02 KCAL/MOL
REMARK 927      BINDING AFFINITY PREDICTED BY RF-SCORE:    0.00 PKD
ROOT
HETATM    1  C   UNL     1      -8.761   6.893  66.881  1.00  0.00    -0.118 C  
HETATM    2  O   UNL     1      -9.417   6.876  68.148  1.00  0.00    -0.125 OA 
ENDROOT
BRANCH   2   3
HETATM    3  C   UNL     1      -9.431   5.667  68.795  1.00  0.00    -0.126 A  
HETATM    4  C   UNL     1      -9.454   5.639  70.205  1.00  0.00    -0.202 A  
HETATM    5  C   UNL     1      -9.457   4.399  70.869  1.00  0.00    -0.241 A  
HETATM    6  C   UNL     1      -9.333   4.459  68.086  1.00  0.00    -0.195 A  
HETATM    7 CL   UNL     1      -9.337   1.705  70.971  1.00  0.00    -0.166 Cl 
HETATM    8  C   UNL     1      -9.297   3.237  68.757  1.00  0.00    -0.235 A  
HETATM    9  C   UNL     1      -9.370   3.213  70.143  1.00  0.00    -0.168 A  
BRANCH   4  10
HETATM   10  C   UNL     1      -9.489   6.901  71.018  1.00  0.00    -0.163 C  
HETATM   11  H   UNL     1     -11.469   7.256  70.458  1.00  0.00     0.000 HD 
HETATM   12  O   UNL     1      -8.503   7.311  71.616  1.00  0.00    -0.112 OA 
HETATM   13  N   UNL     1     -10.706   7.568  71.060  1.00  0.00    -0.229 N  
BRANCH  13  14
HETATM   14  C   UNL     1     -10.914   8.701  71.943  1.00  0.00    -0.342 C  
BRANCH  14  15
HETATM   15  C   UNL     1     -11.304   9.986  71.203  1.00  0.00    -0.397 C  
BRANCH  15  16
HETATM   16  C   UNL     1     -10.748  10.133  69.798  1.00  0.00    -0.317 A  
HETATM   17  C   UNL     1      -9.373  10.188  69.518  1.00  0.00    -0.230 A  
HETATM   18  C   UNL     1      -8.911  10.398  68.215  1.00  0.00    -0.135 A  
HETATM   19  C   UNL     1      -9.822  10.546  67.171  1.00  0.00    -0.176 A  
HETATM   20  C   UNL     1     -11.650  10.247  68.727  1.00  0.00    -0.118 A  
HETATM   21  C   UNL     1     -11.195  10.468  67.423  1.00  0.00    -0.249 A  
BRANCH  19  22
HETATM   22  S   UNL     1      -9.231  10.987  65.552  1.00  0.00    -0.212 S  
HETATM   23  O   UNL     1     -10.244  10.571  64.599  1.00  0.00    -0.345 OA 
HETATM   24  O   UNL     1      -7.865  10.541  65.408  1.00  0.00    -0.152 OA 
BRANCH  22  25
HETATM   25  N   UNL     1      -9.277  12.649  65.528  1.00  0.00    -0.383 N  
HETATM   26  H   UNL     1      -8.412  13.154  65.722  1.00  0.00     0.000 HD 
BRANCH  25  27
HETATM   27  C   UNL     1     -10.416  13.387  65.261  1.00  0.00    -0.324 C  
HETATM   28  O   UNL     1     -10.894  13.494  64.147  1.00  0.00    -0.372 OA 
BRANCH  27  29
HETATM   29  N   UNL     1     -10.934  13.996  66.371  1.00  0.00    -0.305 N  
HETATM   30  H   UNL     1     -11.911  14.291  66.383  1.00  0.00     0.000 HD 
BRANCH  29  31
HETATM   31  C   UNL     1     -10.089  14.221  67.536  1.00  0.00    -0.236 C  
HETATM   32  C   UNL     1      -9.636  15.681  67.631  1.00  0.00    -0.220 C  
HETATM   33  C   UNL     1     -10.751  16.619  68.088  1.00  0.00    -0.349 C  
HETATM   34  C   UNL     1     -11.377  16.142  69.393  1.00  0.00    -0.323 C  
HETATM   35  C   UNL     1     -11.880  14.707  69.287  1.00  0.00    -0.357 C  
HETATM   36  C   UNL     1     -10.780  13.756  68.821  1.00  0.00    -0.267 C  
ENDBRANCH  29  31
ENDBRANCH  27  29
ENDBRANCH  25  27
ENDBRANCH  22  25
ENDBRANCH  19  22
ENDBRANCH  15  16
ENDBRANCH  14  15
ENDBRANCH  13  14
ENDBRANCH   4  10
ENDBRANCH   2   3
TORSDOF 10
ENDMDL
MODEL      166
REMARK 921   NORMALIZED FREE ENERGY PREDICTED BY IDOCK:   -5.00 KCAL/MOL
REMARK 922        TOTAL FREE ENERGY PREDICTED BY IDOCK:   -9.90 KCAL/MOL
REMARK 923 INTER-LIGAND FREE ENERGY PREDICTED BY IDOCK:   -9.51 KCAL/MOL
REMARK 924 INTRA-LIGAND FREE ENERGY PREDICTED BY IDOCK:   -0.38 KCAL/MOL
REMARK 927      BINDING AFFINITY PREDICTED BY RF-SCORE:    0.00 PKD
ROOT
HETATM    1  C   UNL     1     -10.162  19.898  67.465  1.00  0.00    -0.422 C  
HETATM    2  O   UNL     1     -10.404  18.559  67.892  1.00  0.00    -0.363 OA 
ENDROOT
BRANCH   2   3
HETATM    3  C   UNL     1      -9.352  17.690  67.753  1.00  0.00    -0.255 A  
HETATM    4  C   UNL     1      -9.425  16.416  68.355  1.00  0.00    -0.220 A  
HETATM    5  C   UNL     1      -8.342  15.529  68.222  1.00  0.00    -0.147 A  
HETATM    6  C   UNL     1      -8.170  18.075  67.101  1.00  0.00    -0.231 A  
HETATM    7 CL   UNL     1      -5.851  14.848  67.439  1.00  0.00     0.092 Cl 
HETATM    8  C   UNL     1      -7.087  17.201  67.010  1.00  0.00    -0.225 A  
HETATM    9  C   UNL     1      -7.182  15.929  67.560  1.00  0.00    -0.177 A  
BRANCH   4  10
HETATM   10  C   UNL     1     -10.637  15.976  69.123  1.00  0.00    -0.260 C  
HETATM   11  H   UNL     1      -9.471  15.560  70.805  1.00  0.00     0.000 HD 
HETATM   12  O   UNL     1     -11.748  15.938  68.611  1.00  0.00    -0.387 OA 
HETATM   13  N   UNL     1     -10.426  15.624  70.450  1.00  0.00    -0.279 N  
BRANCH  13  14
HETATM   14  C   UNL     1     -11.537  15.345  71.341  1.00  0.00    -0.402 C  
BRANCH  14  15
HETATM   15  C   UNL     1     -12.687  14.592  70.663  1.00  0.00    -0.421 C  
BRANCH  15  16
HETATM   16  C   UNL     1     -12.682  13.083  70.840  1.00  0.00    -0.299 A  
HETATM   17  C   UNL     1     -13.402  12.426  71.850  1.00  0.00    -0.450 A  
HETATM   18  C   UNL     1     -13.306  11.041  72.019  1.00  0.00    -0.393 A  
HETATM   19  C   UNL     1     -12.494  10.293  71.168  1.00  0.00    -0.391 A  
HETATM   20  C   UNL     1     -11.897  12.308  69.970  1.00  0.00    -0.372 A  
HETATM   21  C   UNL     1     -11.789  10.924  70.139  1.00  0.00    -0.438 A  
BRANCH  19  22
HETATM   22  S   UNL     1     -12.242   8.563  71.499  1.00  0.00    -0.322 S  
HETATM   23  O   UNL     1     -13.553   7.948  71.578  1.00  0.00    -0.341 OA 
HETATM   24  O   UNL     1     -11.299   8.420  72.584  1.00  0.00    -0.372 OA 
BRANCH  22  25
HETATM   25  N   UNL     1     -11.571   7.963  70.101  1.00  0.00    -0.476 N  
HETATM   26  H   UNL     1     -11.628   8.535  69.258  1.00  0.00     0.000 HD 
BRANCH  25  27
HETATM   27  C   UNL     1     -10.939   6.735  70.012  1.00  0.00    -0.295 C  
HETATM   28  O   UNL     1     -11.068   5.989  69.059  1.00  0.00    -0.351 OA 
BRANCH  27  29
HETATM   29  N   UNL     1     -10.175   6.443  71.108  1.00  0.00    -0.189 N  
HETATM   30  H   UNL     1      -9.696   7.190  71.611  1.00  0.00     0.000 HD 
BRANCH  29  31
HETATM   31  C   UNL     1     -10.049   5.063  71.557  1.00  0.00    -0.196 C  
HETATM   32  C   UNL     1      -8.590   4.694  71.845  1.00  0.00    -0.128 C  
HETATM   33  C   UNL     1      -8.069   5.308  73.142  1.00  0.00    -0.108 C  
HETATM   34  C   UNL     1      -8.973   4.968  74.320  1.00  0.00    -0.111 C  
HETATM   35  C   UNL     1     -10.417   5.383  74.061  1.00  0.00    -0.317 C  
HETATM   36  C   UNL     1     -10.953   4.786  72.762  1.00  0.00    -0.268 C  
ENDBRANCH  29  31
ENDBRANCH  27  29
ENDBRANCH  25  27
ENDBRANCH  22  25
ENDBRANCH  19  22
ENDBRANCH  15  16
ENDBRANCH  14  15
ENDBRANCH  13  14
ENDBRANCH   4  10
ENDBRANCH   2   3
TORSDOF 10
ENDMDL
MODEL      167
REMARK 921   NORMALIZED FREE ENERGY PREDICTED BY IDOCK:   -5.00 KCAL/MOL
REMARK 922        TOTAL FREE ENERGY PREDICTED BY IDOCK:   -9.89 KCAL/MOL
REMARK 923 INTER-LIGAND FREE ENERGY PREDICTED BY IDOCK:   -8.77 KCAL/MOL
REMARK 924 INTRA-LIGAND FREE ENERGY PREDICTED BY IDOCK:   -1.13 KCAL/MOL
REMARK 927      BINDING AFFINITY PREDICTED BY RF-SCORE:    0.00 PKD
ROOT
HETATM    1  C   UNL     1      -7.135   8.320  72.653  1.00  0.00    -0.097 C  
HETATM    2  O   UNL     1      -7.827   7.392  71.819  1.00  0.00    -0.088 OA 
ENDROOT
BRANCH   2   3
HETATM    3  C   UNL     1      -9.184   7.564  71.734  1.00  0.00    -0.140 A  
HETATM    4  C   UNL     1      -9.763   7.877  70.486  1.00  0.00    -0.174 A  
HETATM    5  C   UNL     1     -11.155   8.065  70.401  1.00  0.00    -0.238 A  
HETATM    6  C   UNL     1      -9.998   7.525  72.877  1.00  0.00    -0.303 A  
HETATM    7 CL   UNL     1     -13.638   8.281  71.434  1.00  0.00    -0.301 Cl 
HETATM    8  C   UNL     1     -11.371   7.753  72.787  1.00  0.00    -0.446 A  
HETATM    9  C   UNL     1     -11.943   8.010  71.548  1.00  0.00    -0.297 A  
BRANCH   4  10
HETATM   10  C   UNL     1      -8.934   8.000  69.241  1.00  0.00    -0.148 C  
HETATM   11  H   UNL     1     -10.486   7.225  68.080  1.00  0.00     0.000 HD 
HETATM   12  O   UNL     1      -7.775   8.392  69.273  1.00  0.00    -0.094 OA 
HETATM   13  N   UNL     1      -9.561   7.653  68.052  1.00  0.00    -0.143 N  
BRANCH  13  14
HETATM   14  C   UNL     1      -8.925   7.889  66.768  1.00  0.00    -0.145 C  
BRANCH  14  15
HETATM   15  C   UNL     1      -9.729   8.817  65.851  1.00  0.00    -0.211 C  
BRANCH  15  16
HETATM   16  C   UNL     1      -9.567  10.305  66.112  1.00  0.00    -0.248 A  
HETATM   17  C   UNL     1      -8.454  10.852  66.772  1.00  0.00    -0.139 A  
HETATM   18  C   UNL     1      -8.385  12.219  67.055  1.00  0.00    -0.168 A  
HETATM   19  C   UNL     1      -9.428  13.061  66.671  1.00  0.00    -0.256 A  
HETATM   20  C   UNL     1     -10.591  11.174  65.701  1.00  0.00    -0.286 A  
HETATM   21  C   UNL     1     -10.532  12.542  65.990  1.00  0.00    -0.282 A  
BRANCH  19  22
HETATM   22  S   UNL     1      -9.412  14.763  67.189  1.00  0.00    -0.236 S  
HETATM   23  O   UNL     1      -8.240  15.379  66.598  1.00  0.00    -0.248 OA 
HETATM   24  O   UNL     1      -9.630  14.826  68.616  1.00  0.00    -0.207 OA 
BRANCH  22  25
HETATM   25  N   UNL     1     -10.703  15.452  66.401  1.00  0.00    -0.310 N  
HETATM   26  H   UNL     1     -11.640  15.133  66.646  1.00  0.00     0.000 HD 
BRANCH  25  27
HETATM   27  C   UNL     1     -10.583  16.434  65.433  1.00  0.00    -0.320 C  
HETATM   28  O   UNL     1     -11.099  16.351  64.334  1.00  0.00    -0.825 OA 
BRANCH  27  29
HETATM   29  N   UNL     1      -9.813  17.491  65.832  1.00  0.00    -0.160 N  
HETATM   30  H   UNL     1      -8.832  17.542  65.557  1.00  0.00     0.000 HD 
BRANCH  29  31
HETATM   31  C   UNL     1     -10.396  18.545  66.652  1.00  0.00    -0.408 C  
HETATM   32  C   UNL     1     -10.055  18.363  68.134  1.00  0.00    -0.408 C  
HETATM   33  C   UNL     1      -8.607  18.724  68.457  1.00  0.00    -0.378 C  
HETATM   34  C   UNL     1      -8.265  20.129  67.974  1.00  0.00    -0.201 C  
HETATM   35  C   UNL     1      -8.551  20.299  66.486  1.00  0.00    -0.269 C  
HETATM   36  C   UNL     1      -9.993  19.932  66.142  1.00  0.00    -0.593 C  
ENDBRANCH  29  31
ENDBRANCH  27  29
ENDBRANCH  25  27
ENDBRANCH  22  25
ENDBRANCH  19  22
ENDBRANCH  15  16
ENDBRANCH  14  15
ENDBRANCH  13  14
ENDBRANCH   4  10
ENDBRANCH   2   3
TORSDOF 10
ENDMDL
MODEL      168
REMARK 921   NORMALIZED FREE ENERGY PREDICTED BY IDOCK:   -4.99 KCAL/MOL
REMARK 922        TOTAL FREE ENERGY PREDICTED BY IDOCK:   -9.87 KCAL/MOL
REMARK 923 INTER-LIGAND FREE ENERGY PREDICTED BY IDOCK:   -8.16 KCAL/MOL
REMARK 924 INTRA-LIGAND FREE ENERGY PREDICTED BY IDOCK:   -1.71 KCAL/MOL
REMARK 927      BINDING AFFINITY PREDICTED BY RF-SCORE:    0.00 PKD
ROOT
HETATM    1  C   UNL     1     -13.152  16.023  73.199  1.00  0.00    -0.533 C  
HETATM    2  O   UNL     1     -12.790  15.663  71.867  1.00  0.00    -0.397 OA 
ENDROOT
BRANCH   2   3
HETATM    3  C   UNL     1     -12.745  14.318  71.605  1.00  0.00    -0.352 A  
HETATM    4  C   UNL     1     -12.124  13.866  70.421  1.00  0.00    -0.421 A  
HETATM    5  C   UNL     1     -12.088  12.487  70.146  1.00  0.00    -0.368 A  
HETATM    6  C   UNL     1     -13.380  13.389  72.444  1.00  0.00    -0.629 A  
HETATM    7 CL   UNL     1     -12.697   9.903  70.631  1.00  0.00    -0.276 Cl 
HETATM    8  C   UNL     1     -13.371  12.028  72.140  1.00  0.00    -0.396 A  
HETATM    9  C   UNL     1     -12.717  11.583  71.000  1.00  0.00    -0.328 A  
BRANCH   4  10
HETATM   10  C   UNL     1     -11.489  14.819  69.451  1.00  0.00    -0.301 C  
HETATM   11  H   UNL     1      -9.623  13.926  69.731  1.00  0.00     0.000 HD 
HETATM   12  O   UNL     1     -12.125  15.720  68.920  1.00  0.00    -0.333 OA 
HETATM   13  N   UNL     1     -10.142  14.613  69.184  1.00  0.00    -0.207 N  
BRANCH  13  14
HETATM   14  C   UNL     1      -9.458  15.357  68.142  1.00  0.00    -0.202 C  
BRANCH  14  15
HETATM   15  C   UNL     1      -9.691  14.790  66.736  1.00  0.00    -0.264 C  
BRANCH  15  16
HETATM   16  C   UNL     1      -9.496  13.291  66.590  1.00  0.00    -0.262 A  
HETATM   17  C   UNL     1     -10.548  12.404  66.308  1.00  0.00    -0.277 A  
HETATM   18  C   UNL     1     -10.331  11.024  66.257  1.00  0.00    -0.304 A  
HETATM   19  C   UNL     1      -9.053  10.513  66.477  1.00  0.00    -0.157 A  
HETATM   20  C   UNL     1      -8.208  12.761  66.773  1.00  0.00     0.058 A  
HETATM   21  C   UNL     1      -7.987  11.380  66.732  1.00  0.00    -0.160 A  
BRANCH  19  22
HETATM   22  S   UNL     1      -8.822   8.752  66.583  1.00  0.00    -0.137 S  
HETATM   23  O   UNL     1      -7.848   8.511  67.630  1.00  0.00    -0.101 OA 
HETATM   24  O   UNL     1      -8.616   8.220  65.255  1.00  0.00    -0.171 OA 
BRANCH  22  25
HETATM   25  N   UNL     1     -10.258   8.178  67.192  1.00  0.00    -0.266 N  
HETATM   26  H   UNL     1     -11.125   8.589  66.844  1.00  0.00     0.000 HD 
BRANCH  25  27
HETATM   27  C   UNL     1     -10.349   7.175  68.142  1.00  0.00    -0.196 C  
HETATM   28  O   UNL     1     -11.141   7.204  69.066  1.00  0.00    -0.135 OA 
BRANCH  27  29
HETATM   29  N   UNL     1      -9.448   6.165  67.945  1.00  0.00    -0.116 N  
HETATM   30  H   UNL     1      -8.451   6.337  68.076  1.00  0.00     0.000 HD 
BRANCH  29  31
HETATM   31  C   UNL     1      -9.915   4.843  67.549  1.00  0.00    -0.156 C  
HETATM   32  C   UNL     1     -10.418   4.832  66.102  1.00  0.00    -0.332 C  
HETATM   33  C   UNL     1      -9.284   4.888  65.081  1.00  0.00    -0.128 C  
HETATM   34  C   UNL     1      -8.262   3.785  65.325  1.00  0.00    -0.097 C  
HETATM   35  C   UNL     1      -7.717   3.826  66.749  1.00  0.00    -0.084 C  
HETATM   36  C   UNL     1      -8.839   3.780  67.785  1.00  0.00    -0.136 C  
ENDBRANCH  29  31
ENDBRANCH  27  29
ENDBRANCH  25  27
ENDBRANCH  22  25
ENDBRANCH  19  22
ENDBRANCH  15  16
ENDBRANCH  14  15
ENDBRANCH  13  14
ENDBRANCH   4  10
ENDBRANCH   2   3
TORSDOF 10
ENDMDL
MODEL      169
REMARK 921   NORMALIZED FREE ENERGY PREDICTED BY IDOCK:   -4.98 KCAL/MOL
REMARK 922        TOTAL FREE ENERGY PREDICTED BY IDOCK:   -9.87 KCAL/MOL
REMARK 923 INTER-LIGAND FREE ENERGY PREDICTED BY IDOCK:   -8.47 KCAL/MOL
REMARK 924 INTRA-LIGAND FREE ENERGY PREDICTED BY IDOCK:   -1.40 KCAL/MOL
REMARK 927      BINDING AFFINITY PREDICTED BY RF-SCORE:    0.00 PKD
ROOT
HETATM    1  C   UNL     1      -8.157   5.251  66.132  1.00  0.00    -0.109 C  
HETATM    2  O   UNL     1      -7.694   5.603  67.435  1.00  0.00    -0.098 OA 
ENDROOT
BRANCH   2   3
HETATM    3  C   UNL     1      -8.664   5.736  68.395  1.00  0.00    -0.111 A  
HETATM    4  C   UNL     1      -9.050   7.028  68.811  1.00  0.00    -0.133 A  
HETATM    5  C   UNL     1     -10.036   7.165  69.804  1.00  0.00    -0.200 A  
HETATM    6  C   UNL     1      -9.216   4.616  69.036  1.00  0.00    -0.183 A  
HETATM    7 CL   UNL     1     -11.755   6.222  71.659  1.00  0.00    -0.358 Cl 
HETATM    8  C   UNL     1     -10.164   4.765  70.048  1.00  0.00    -0.251 A  
HETATM    9  C   UNL     1     -10.577   6.038  70.419  1.00  0.00    -0.268 A  
BRANCH   4  10
HETATM   10  C   UNL     1      -8.444   8.263  68.210  1.00  0.00    -0.136 C  
HETATM   11  H   UNL     1      -7.271   8.566  69.910  1.00  0.00     0.000 HD 
HETATM   12  O   UNL     1      -8.798   8.690  67.119  1.00  0.00    -0.126 OA 
HETATM   13  N   UNL     1      -7.456   8.886  68.959  1.00  0.00    -0.073 N  
BRANCH  13  14
HETATM   14  C   UNL     1      -6.678   9.985  68.415  1.00  0.00    -0.055 C  
BRANCH  14  15
HETATM   15  C   UNL     1      -6.991  11.336  69.071  1.00  0.00    -0.104 C  
BRANCH  15  16
HETATM   16  C   UNL     1      -7.978  12.217  68.327  1.00  0.00    -0.163 A  
HETATM   17  C   UNL     1      -7.596  13.363  67.610  1.00  0.00    -0.177 A  
HETATM   18  C   UNL     1      -8.550  14.185  67.003  1.00  0.00    -0.204 A  
HETATM   19  C   UNL     1      -9.903  13.862  67.095  1.00  0.00    -0.241 A  
HETATM   20  C   UNL     1      -9.343  11.889  68.378  1.00  0.00    -0.184 A  
HETATM   21  C   UNL     1     -10.303  12.712  67.780  1.00  0.00    -0.221 A  
BRANCH  19  22
HETATM   22  S   UNL     1     -11.117  15.003  66.472  1.00  0.00    -0.304 S  
HETATM   23  O   UNL     1     -12.422  14.422  66.729  1.00  0.00    -0.331 OA 
HETATM   24  O   UNL     1     -10.748  15.406  65.134  1.00  0.00    -0.384 OA 
BRANCH  22  25
HETATM   25  N   UNL     1     -11.023  16.314  67.490  1.00  0.00    -0.260 N  
HETATM   26  H   UNL     1     -11.031  17.245  67.074  1.00  0.00     0.000 HD 
BRANCH  25  27
HETATM   27  C   UNL     1     -10.933  16.217  68.868  1.00  0.00    -0.334 C  
HETATM   28  O   UNL     1      -9.914  16.459  69.487  1.00  0.00    -0.236 OA 
BRANCH  27  29
HETATM   29  N   UNL     1     -12.099  15.807  69.454  1.00  0.00    -0.485 N  
HETATM   30  H   UNL     1     -12.982  16.255  69.205  1.00  0.00     0.000 HD 
BRANCH  29  31
HETATM   31  C   UNL     1     -12.078  14.730  70.435  1.00  0.00    -0.321 C  
HETATM   32  C   UNL     1     -11.293  15.124  71.690  1.00  0.00    -0.394 C  
HETATM   33  C   UNL     1     -12.054  16.104  72.580  1.00  0.00    -0.652 C  
HETATM   34  C   UNL     1     -13.440  15.576  72.931  1.00  0.00    -0.641 C  
HETATM   35  C   UNL     1     -14.245  15.234  71.683  1.00  0.00    -0.654 C  
HETATM   36  C   UNL     1     -13.496  14.261  70.775  1.00  0.00    -0.079 C  
ENDBRANCH  29  31
ENDBRANCH  27  29
ENDBRANCH  25  27
ENDBRANCH  22  25
ENDBRANCH  19  22
ENDBRANCH  15  16
ENDBRANCH  14  15
ENDBRANCH  13  14
ENDBRANCH   4  10
ENDBRANCH   2   3
TORSDOF 10
ENDMDL
MODEL      170
REMARK 921   NORMALIZED FREE ENERGY PREDICTED BY IDOCK:   -4.97 KCAL/MOL
REMARK 922        TOTAL FREE ENERGY PREDICTED BY IDOCK:   -9.84 KCAL/MOL
REMARK 923 INTER-LIGAND FREE ENERGY PREDICTED BY IDOCK:   -9.07 KCAL/MOL
REMARK 924 INTRA-LIGAND FREE ENERGY PREDICTED BY IDOCK:   -0.78 KCAL/MOL
REMARK 927      BINDING AFFINITY PREDICTED BY RF-SCORE:    0.00 PKD
ROOT
HETATM    1  C   UNL     1      -7.975   8.543  69.331  1.00  0.00    -0.107 C  
HETATM    2  O   UNL     1      -9.266   8.630  68.730  1.00  0.00    -0.142 OA 
ENDROOT
BRANCH   2   3
HETATM    3  C   UNL     1     -10.301   8.918  69.582  1.00  0.00    -0.212 A  
HETATM    4  C   UNL     1     -11.143  10.015  69.300  1.00  0.00    -0.248 A  
HETATM    5  C   UNL     1     -12.198  10.317  70.179  1.00  0.00    -0.251 A  
HETATM    6  C   UNL     1     -10.487   8.199  70.774  1.00  0.00    -0.223 A  
HETATM    7 CL   UNL     1     -13.640   9.988  72.436  1.00  0.00    -0.327 Cl 
HETATM    8  C   UNL     1     -11.513   8.534  71.658  1.00  0.00    -0.365 A  
HETATM    9  C   UNL     1     -12.369   9.583  71.351  1.00  0.00    -0.364 A  
BRANCH   4  10
HETATM   10  C   UNL     1     -10.949  10.862  68.076  1.00  0.00    -0.265 C  
HETATM   11  H   UNL     1      -9.706  12.170  69.126  1.00  0.00     0.000 HD 
HETATM   12  O   UNL     1     -11.524  10.616  67.023  1.00  0.00    -0.304 OA 
HETATM   13  N   UNL     1     -10.075  11.933  68.205  1.00  0.00    -0.192 N  
BRANCH  13  14
HETATM   14  C   UNL     1      -9.675  12.722  67.054  1.00  0.00    -0.224 C  
BRANCH  14  15
HETATM   15  C   UNL     1     -10.801  13.602  66.498  1.00  0.00    -0.283 C  
BRANCH  15  16
HETATM   16  C   UNL     1     -10.557  15.100  66.557  1.00  0.00    -0.304 A  
HETATM   17  C   UNL     1     -10.357  15.799  67.759  1.00  0.00    -0.275 A  
HETATM   18  C   UNL     1     -10.210  17.189  67.768  1.00  0.00    -0.324 A  
HETATM   19  C   UNL     1     -10.250  17.899  66.568  1.00  0.00    -0.379 A  
HETATM   20  C   UNL     1     -10.557  15.828  65.356  1.00  0.00    -0.441 A  
HETATM   21  C   UNL     1     -10.420  17.220  65.359  1.00  0.00    -0.049 A  
BRANCH  19  22
HETATM   22  S   UNL     1     -10.238  19.677  66.605  1.00  0.00    -0.506 S  
HETATM   23  O   UNL     1     -10.783  20.082  67.887  1.00  0.00    -0.312 OA 
HETATM   24  O   UNL     1     -10.806  20.182  65.376  1.00  0.00    -0.307 OA 
BRANCH  22  25
HETATM   25  N   UNL     1      -8.627  20.084  66.677  1.00  0.00    -0.374 N  
HETATM   26  H   UNL     1      -8.387  21.052  66.888  1.00  0.00     0.000 HD 
BRANCH  25  27
HETATM   27  C   UNL     1      -7.593  19.187  66.468  1.00  0.00    -0.251 C  
HETATM   28  O   UNL     1      -7.456  18.560  65.434  1.00  0.00    -0.484 OA 
BRANCH  27  29
HETATM   29  N   UNL     1      -6.759  19.069  67.545  1.00  0.00    -0.202 N  
HETATM   30  H   UNL     1      -5.748  19.120  67.417  1.00  0.00     0.000 HD 
BRANCH  29  31
HETATM   31  C   UNL     1      -7.317  18.869  68.876  1.00  0.00    -0.310 C  
HETATM   32  C   UNL     1      -6.982  17.479  69.426  1.00  0.00    -0.098 C  
HETATM   33  C   UNL     1      -5.526  17.352  69.868  1.00  0.00    -0.226 C  
HETATM   34  C   UNL     1      -5.147  18.450  70.855  1.00  0.00    -0.268 C  
HETATM   35  C   UNL     1      -5.428  19.838  70.290  1.00  0.00    -0.274 C  
HETATM   36  C   UNL     1      -6.878  19.980  69.834  1.00  0.00    -0.177 C  
ENDBRANCH  29  31
ENDBRANCH  27  29
ENDBRANCH  25  27
ENDBRANCH  22  25
ENDBRANCH  19  22
ENDBRANCH  15  16
ENDBRANCH  14  15
ENDBRANCH  13  14
ENDBRANCH   4  10
ENDBRANCH   2   3
TORSDOF 10
ENDMDL
MODEL      171
REMARK 921   NORMALIZED FREE ENERGY PREDICTED BY IDOCK:   -4.97 KCAL/MOL
REMARK 922        TOTAL FREE ENERGY PREDICTED BY IDOCK:   -9.84 KCAL/MOL
REMARK 923 INTER-LIGAND FREE ENERGY PREDICTED BY IDOCK:   -7.98 KCAL/MOL
REMARK 924 INTRA-LIGAND FREE ENERGY PREDICTED BY IDOCK:   -1.87 KCAL/MOL
REMARK 927      BINDING AFFINITY PREDICTED BY RF-SCORE:    0.00 PKD
ROOT
HETATM    1  C   UNL     1      -8.081  12.425  68.236  1.00  0.00    -0.166 C  
HETATM    2  O   UNL     1      -8.491  11.615  67.135  1.00  0.00    -0.149 OA 
ENDROOT
BRANCH   2   3
HETATM    3  C   UNL     1      -8.959  10.367  67.456  1.00  0.00    -0.135 A  
HETATM    4  C   UNL     1     -10.084   9.855  66.775  1.00  0.00    -0.292 A  
HETATM    5  C   UNL     1     -10.571   8.580  67.111  1.00  0.00    -0.314 A  
HETATM    6  C   UNL     1      -8.397   9.624  68.507  1.00  0.00    -0.117 A  
HETATM    7 CL   UNL     1     -10.621   6.314  68.577  1.00  0.00    -0.271 Cl 
HETATM    8  C   UNL     1      -8.914   8.378  68.858  1.00  0.00    -0.146 A  
HETATM    9  C   UNL     1      -9.990   7.857  68.152  1.00  0.00    -0.180 A  
BRANCH   4  10
HETATM   10  C   UNL     1     -10.769  10.633  65.689  1.00  0.00    -0.034 C  
HETATM   11  H   UNL     1     -12.091  11.475  67.067  1.00  0.00     0.000 HD 
HETATM   12  O   UNL     1     -10.448  10.520  64.513  1.00  0.00    -0.310 OA 
HETATM   13  N   UNL     1     -11.778  11.494  66.096  1.00  0.00     0.074 N  
BRANCH  13  14
HETATM   14  C   UNL     1     -12.398  12.422  65.167  1.00  0.00    -0.332 C  
BRANCH  14  15
HETATM   15  C   UNL     1     -11.396  13.106  64.230  1.00  0.00    -0.427 C  
BRANCH  15  16
HETATM   16  C   UNL     1     -10.822  14.422  64.725  1.00  0.00    -0.415 A  
HETATM   17  C   UNL     1      -9.635  14.510  65.472  1.00  0.00    -0.117 A  
HETATM   18  C   UNL     1      -9.187  15.737  65.969  1.00  0.00    -0.379 A  
HETATM   19  C   UNL     1      -9.918  16.897  65.716  1.00  0.00    -0.184 A  
HETATM   20  C   UNL     1     -11.525  15.606  64.450  1.00  0.00    -0.266 A  
HETATM   21  C   UNL     1     -11.086  16.836  64.953  1.00  0.00    -0.061 A  
BRANCH  19  22
HETATM   22  S   UNL     1      -9.435  18.421  66.498  1.00  0.00    -0.305 S  
HETATM   23  O   UNL     1     -10.625  19.245  66.599  1.00  0.00    -0.409 OA 
HETATM   24  O   UNL     1      -8.246  18.929  65.854  1.00  0.00    -0.477 OA 
BRANCH  22  25
HETATM   25  N   UNL     1      -9.076  17.992  68.064  1.00  0.00    -0.266 N  
HETATM   26  H   UNL     1      -8.095  17.872  68.314  1.00  0.00     0.000 HD 
BRANCH  25  27
HETATM   27  C   UNL     1     -10.028  17.789  69.047  1.00  0.00    -0.264 C  
HETATM   28  O   UNL     1     -10.520  18.695  69.694  1.00  0.00     0.310 OA 
BRANCH  27  29
HETATM   29  N   UNL     1     -10.342  16.470  69.227  1.00  0.00    -0.303 N  
HETATM   30  H   UNL     1      -9.603  15.788  69.400  1.00  0.00     0.000 HD 
BRANCH  29  31
HETATM   31  C   UNL     1     -11.733  16.041  69.170  1.00  0.00    -0.307 C  
HETATM   32  C   UNL     1     -11.903  14.790  68.303  1.00  0.00    -0.316 C  
HETATM   33  C   UNL     1     -11.397  13.522  68.986  1.00  0.00    -0.336 C  
HETATM   34  C   UNL     1     -12.032  13.339  70.360  1.00  0.00    -0.350 C  
HETATM   35  C   UNL     1     -11.818  14.561  71.247  1.00  0.00    -0.345 C  
HETATM   36  C   UNL     1     -12.310  15.841  70.575  1.00  0.00    -0.388 C  
ENDBRANCH  29  31
ENDBRANCH  27  29
ENDBRANCH  25  27
ENDBRANCH  22  25
ENDBRANCH  19  22
ENDBRANCH  15  16
ENDBRANCH  14  15
ENDBRANCH  13  14
ENDBRANCH   4  10
ENDBRANCH   2   3
TORSDOF 10
ENDMDL
MODEL      172
REMARK 921   NORMALIZED FREE ENERGY PREDICTED BY IDOCK:   -4.94 KCAL/MOL
REMARK 922        TOTAL FREE ENERGY PREDICTED BY IDOCK:   -9.80 KCAL/MOL
REMARK 923 INTER-LIGAND FREE ENERGY PREDICTED BY IDOCK:   -8.50 KCAL/MOL
REMARK 924 INTRA-LIGAND FREE ENERGY PREDICTED BY IDOCK:   -1.30 KCAL/MOL
REMARK 927      BINDING AFFINITY PREDICTED BY RF-SCORE:    0.00 PKD
ROOT
HETATM    1  C   UNL     1     -10.594   7.174  73.769  1.00  0.00    -0.260 C  
HETATM    2  O   UNL     1     -11.479   7.124  72.651  1.00  0.00    -0.280 OA 
ENDROOT
BRANCH   2   3
HETATM    3  C   UNL     1     -11.517   8.250  71.870  1.00  0.00    -0.310 A  
HETATM    4  C   UNL     1     -10.500   8.461  70.915  1.00  0.00    -0.235 A  
HETATM    5  C   UNL     1     -10.532   9.622  70.121  1.00  0.00    -0.321 A  
HETATM    6  C   UNL     1     -12.494   9.239  72.063  1.00  0.00    -0.451 A  
HETATM    7 CL   UNL     1     -11.523  12.018  69.371  1.00  0.00    -0.352 Cl 
HETATM    8  C   UNL     1     -12.492  10.405  71.297  1.00  0.00    -0.521 A  
HETATM    9  C   UNL     1     -11.519  10.585  70.323  1.00  0.00    -0.333 A  
BRANCH   4  10
HETATM   10  C   UNL     1      -9.391   7.471  70.712  1.00  0.00    -0.162 C  
HETATM   11  H   UNL     1     -10.661   6.202  69.648  1.00  0.00     0.000 HD 
HETATM   12  O   UNL     1      -8.280   7.639  71.197  1.00  0.00    -0.098 OA 
HETATM   13  N   UNL     1      -9.696   6.361  69.937  1.00  0.00    -0.165 N  
BRANCH  13  14
HETATM   14  C   UNL     1      -8.667   5.421  69.529  1.00  0.00    -0.102 C  
BRANCH  14  15
HETATM   15  C   UNL     1      -8.572   5.244  68.009  1.00  0.00    -0.103 C  
BRANCH  15  16
HETATM   16  C   UNL     1      -8.036   6.438  67.238  1.00  0.00    -0.113 A  
HETATM   17  C   UNL     1      -7.297   7.470  67.838  1.00  0.00    -0.099 A  
HETATM   18  C   UNL     1      -6.889   8.586  67.101  1.00  0.00    -0.067 A  
HETATM   19  C   UNL     1      -7.207   8.677  65.747  1.00  0.00    -0.080 A  
HETATM   20  C   UNL     1      -8.316   6.530  65.864  1.00  0.00    -0.140 A  
HETATM   21  C   UNL     1      -7.918   7.648  65.124  1.00  0.00    -0.130 A  
BRANCH  19  22
HETATM   22  S   UNL     1      -6.837  10.176  64.862  1.00  0.00    -0.108 S  
HETATM   23  O   UNL     1      -5.994   9.812  63.739  1.00  0.00    -0.098 OA 
HETATM   24  O   UNL     1      -6.409  11.188  65.800  1.00  0.00    -0.038 OA 
BRANCH  22  25
HETATM   25  N   UNL     1      -8.285  10.629  64.182  1.00  0.00    -0.350 N  
HETATM   26  H   UNL     1      -8.341  10.683  63.166  1.00  0.00     0.000 HD 
BRANCH  25  27
HETATM   27  C   UNL     1      -9.419  10.938  64.913  1.00  0.00    -0.235 C  
HETATM   28  O   UNL     1     -10.277  10.119  65.188  1.00  0.00    -0.306 OA 
BRANCH  27  29
HETATM   29  N   UNL     1      -9.483  12.255  65.275  1.00  0.00    -0.442 N  
HETATM   30  H   UNL     1      -9.053  12.567  66.146  1.00  0.00     0.000 HD 
BRANCH  29  31
HETATM   31  C   UNL     1     -10.165  13.212  64.414  1.00  0.00    -0.297 C  
HETATM   32  C   UNL     1     -11.478  12.644  63.867  1.00  0.00    -0.509 C  
HETATM   33  C   UNL     1     -12.584  12.593  64.918  1.00  0.00    -0.525 C  
HETATM   34  C   UNL     1     -12.794  13.954  65.571  1.00  0.00    -0.471 C  
HETATM   35  C   UNL     1     -11.500  14.500  66.165  1.00  0.00    -0.357 C  
HETATM   36  C   UNL     1     -10.379  14.549  65.130  1.00  0.00    -0.438 C  
ENDBRANCH  29  31
ENDBRANCH  27  29
ENDBRANCH  25  27
ENDBRANCH  22  25
ENDBRANCH  19  22
ENDBRANCH  15  16
ENDBRANCH  14  15
ENDBRANCH  13  14
ENDBRANCH   4  10
ENDBRANCH   2   3
TORSDOF 10
ENDMDL
MODEL      173
REMARK 921   NORMALIZED FREE ENERGY PREDICTED BY IDOCK:   -4.94 KCAL/MOL
REMARK 922        TOTAL FREE ENERGY PREDICTED BY IDOCK:   -9.79 KCAL/MOL
REMARK 923 INTER-LIGAND FREE ENERGY PREDICTED BY IDOCK:   -7.80 KCAL/MOL
REMARK 924 INTRA-LIGAND FREE ENERGY PREDICTED BY IDOCK:   -2.00 KCAL/MOL
REMARK 927      BINDING AFFINITY PREDICTED BY RF-SCORE:    0.00 PKD
ROOT
HETATM    1  C   UNL     1     -11.625  11.015  70.772  1.00  0.00    -0.058 C  
HETATM    2  O   UNL     1     -11.548   9.793  70.040  1.00  0.00    -0.218 OA 
ENDROOT
BRANCH   2   3
HETATM    3  C   UNL     1     -11.537   8.648  70.793  1.00  0.00    -0.242 A  
HETATM    4  C   UNL     1     -10.359   7.872  70.853  1.00  0.00    -0.215 A  
HETATM    5  C   UNL     1     -10.351   6.691  71.616  1.00  0.00    -0.227 A  
HETATM    6  C   UNL     1     -12.697   8.184  71.433  1.00  0.00    -0.283 A  
HETATM    7 CL   UNL     1     -11.498   4.789  73.149  1.00  0.00    -0.382 Cl 
HETATM    8  C   UNL     1     -12.688   6.990  72.154  1.00  0.00    -0.123 A  
HETATM    9  C   UNL     1     -11.513   6.256  72.251  1.00  0.00    -0.306 A  
BRANCH   4  10
HETATM   10  C   UNL     1      -9.108   8.283  70.133  1.00  0.00    -0.147 C  
HETATM   11  H   UNL     1      -8.995   6.427  69.183  1.00  0.00     0.000 HD 
HETATM   12  O   UNL     1      -8.579   9.370  70.326  1.00  0.00    -0.184 OA 
HETATM   13  N   UNL     1      -8.592   7.363  69.231  1.00  0.00    -0.136 N  
BRANCH  13  14
HETATM   14  C   UNL     1      -7.488   7.707  68.353  1.00  0.00    -0.104 C  
BRANCH  14  15
HETATM   15  C   UNL     1      -7.833   7.583  66.863  1.00  0.00    -0.111 C  
BRANCH  15  16
HETATM   16  C   UNL     1      -8.625   8.736  66.272  1.00  0.00    -0.144 A  
HETATM   17  C   UNL     1      -9.949   9.028  66.640  1.00  0.00    -0.349 A  
HETATM   18  C   UNL     1     -10.661  10.054  66.013  1.00  0.00    -0.045 A  
HETATM   19  C   UNL     1     -10.051  10.813  65.015  1.00  0.00    -0.313 A  
HETATM   20  C   UNL     1      -8.016   9.535  65.290  1.00  0.00    -0.112 A  
HETATM   21  C   UNL     1      -8.726  10.558  64.653  1.00  0.00    -0.193 A  
BRANCH  19  22
HETATM   22  S   UNL     1     -11.018  11.997  64.105  1.00  0.00    -0.397 S  
HETATM   23  O   UNL     1     -11.737  11.264  63.079  1.00  0.00     0.101 OA 
HETATM   24  O   UNL     1     -10.182  13.120  63.751  1.00  0.00    -0.307 OA 
BRANCH  22  25
HETATM   25  N   UNL     1     -12.189  12.494  65.176  1.00  0.00    -0.465 N  
HETATM   26  H   UNL     1     -12.833  11.792  65.540  1.00  0.00     0.000 HD 
BRANCH  25  27
HETATM   27  C   UNL     1     -12.341  13.801  65.603  1.00  0.00    -0.482 C  
HETATM   28  O   UNL     1     -13.339  14.461  65.383  1.00  0.00    -0.568 OA 
BRANCH  27  29
HETATM   29  N   UNL     1     -11.250  14.276  66.278  1.00  0.00    -0.330 N  
HETATM   30  H   UNL     1     -10.802  15.144  65.981  1.00  0.00     0.000 HD 
BRANCH  29  31
HETATM   31  C   UNL     1     -10.728  13.541  67.422  1.00  0.00    -0.263 C  
HETATM   32  C   UNL     1      -9.198  13.599  67.481  1.00  0.00    -0.218 C  
HETATM   33  C   UNL     1      -8.675  14.958  67.942  1.00  0.00    -0.164 C  
HETATM   34  C   UNL     1      -9.301  15.374  69.268  1.00  0.00    -0.254 C  
HETATM   35  C   UNL     1     -10.825  15.370  69.197  1.00  0.00    -0.249 C  
HETATM   36  C   UNL     1     -11.366  14.021  68.728  1.00  0.00    -0.309 C  
ENDBRANCH  29  31
ENDBRANCH  27  29
ENDBRANCH  25  27
ENDBRANCH  22  25
ENDBRANCH  19  22
ENDBRANCH  15  16
ENDBRANCH  14  15
ENDBRANCH  13  14
ENDBRANCH   4  10
ENDBRANCH   2   3
TORSDOF 10
ENDMDL
MODEL      174
REMARK 921   NORMALIZED FREE ENERGY PREDICTED BY IDOCK:   -4.93 KCAL/MOL
REMARK 922        TOTAL FREE ENERGY PREDICTED BY IDOCK:   -9.78 KCAL/MOL
REMARK 923 INTER-LIGAND FREE ENERGY PREDICTED BY IDOCK:   -7.48 KCAL/MOL
REMARK 924 INTRA-LIGAND FREE ENERGY PREDICTED BY IDOCK:   -2.31 KCAL/MOL
REMARK 927      BINDING AFFINITY PREDICTED BY RF-SCORE:    0.00 PKD
ROOT
HETATM    1  C   UNL     1      -5.459   9.648  65.132  1.00  0.00    -0.048 C  
HETATM    2  O   UNL     1      -6.695   9.987  65.759  1.00  0.00    -0.092 OA 
ENDROOT
BRANCH   2   3
HETATM    3  C   UNL     1      -6.772   9.725  67.103  1.00  0.00    -0.075 A  
HETATM    4  C   UNL     1      -6.790  10.800  68.016  1.00  0.00    -0.068 A  
HETATM    5  C   UNL     1      -6.858  10.530  69.395  1.00  0.00    -0.088 A  
HETATM    6  C   UNL     1      -6.743   8.409  67.592  1.00  0.00    -0.066 A  
HETATM    7 CL   UNL     1      -6.884   8.902  71.547  1.00  0.00    -0.092 Cl 
HETATM    8  C   UNL     1      -6.770   8.155  68.963  1.00  0.00    -0.048 A  
HETATM    9  C   UNL     1      -6.839   9.216  69.857  1.00  0.00    -0.052 A  
BRANCH   4  10
HETATM   10  C   UNL     1      -6.753  12.227  67.554  1.00  0.00    -0.138 C  
HETATM   11  H   UNL     1      -8.825  12.388  67.749  1.00  0.00     0.000 HD 
HETATM   12  O   UNL     1      -5.711  12.765  67.202  1.00  0.00    -0.332 OA 
HETATM   13  N   UNL     1      -7.966  12.903  67.558  1.00  0.00    -0.167 N  
BRANCH  13  14
HETATM   14  C   UNL     1      -8.034  14.330  67.296  1.00  0.00    -0.168 C  
BRANCH  14  15
HETATM   15  C   UNL     1      -9.461  14.839  67.066  1.00  0.00    -0.241 C  
BRANCH  15  16
HETATM   16  C   UNL     1     -10.256  15.163  68.320  1.00  0.00    -0.223 A  
HETATM   17  C   UNL     1      -9.658  15.563  69.526  1.00  0.00    -0.278 A  
HETATM   18  C   UNL     1     -10.426  15.777  70.674  1.00  0.00     0.042 A  
HETATM   19  C   UNL     1     -11.809  15.605  70.626  1.00  0.00    -0.376 A  
HETATM   20  C   UNL     1     -11.654  15.030  68.281  1.00  0.00    -0.355 A  
HETATM   21  C   UNL     1     -12.427  15.234  69.429  1.00  0.00    -0.072 A  
BRANCH  19  22
HETATM   22  S   UNL     1     -12.755  15.709  72.129  1.00  0.00    -0.461 S  
HETATM   23  O   UNL     1     -14.144  15.878  71.749  1.00  0.00    -0.363 OA 
HETATM   24  O   UNL     1     -12.121  16.650  73.024  1.00  0.00    -0.471 OA 
BRANCH  22  25
HETATM   25  N   UNL     1     -12.672  14.183  72.783  1.00  0.00    -0.312 N  
HETATM   26  H   UNL     1     -12.185  14.068  73.672  1.00  0.00     0.000 HD 
BRANCH  25  27
HETATM   27  C   UNL     1     -13.223  13.058  72.193  1.00  0.00    -0.457 C  
HETATM   28  O   UNL     1     -14.386  12.733  72.340  1.00  0.00    -0.279 OA 
BRANCH  27  29
HETATM   29  N   UNL     1     -12.323  12.346  71.449  1.00  0.00    -0.190 N  
HETATM   30  H   UNL     1     -11.340  12.620  71.436  1.00  0.00     0.000 HD 
BRANCH  29  31
HETATM   31  C   UNL     1     -12.770  11.195  70.676  1.00  0.00    -0.263 C  
HETATM   32  C   UNL     1     -12.180  11.200  69.262  1.00  0.00    -0.295 C  
HETATM   33  C   UNL     1     -10.702  10.816  69.237  1.00  0.00    -0.268 C  
HETATM   34  C   UNL     1     -10.462   9.484  69.937  1.00  0.00    -0.269 C  
HETATM   35  C   UNL     1     -11.000   9.493  71.364  1.00  0.00    -0.415 C  
HETATM   36  C   UNL     1     -12.475   9.884  71.410  1.00  0.00    -0.495 C  
ENDBRANCH  29  31
ENDBRANCH  27  29
ENDBRANCH  25  27
ENDBRANCH  22  25
ENDBRANCH  19  22
ENDBRANCH  15  16
ENDBRANCH  14  15
ENDBRANCH  13  14
ENDBRANCH   4  10
ENDBRANCH   2   3
TORSDOF 10
ENDMDL
MODEL      175
REMARK 921   NORMALIZED FREE ENERGY PREDICTED BY IDOCK:   -4.93 KCAL/MOL
REMARK 922        TOTAL FREE ENERGY PREDICTED BY IDOCK:   -9.77 KCAL/MOL
REMARK 923 INTER-LIGAND FREE ENERGY PREDICTED BY IDOCK:   -7.99 KCAL/MOL
REMARK 924 INTRA-LIGAND FREE ENERGY PREDICTED BY IDOCK:   -1.78 KCAL/MOL
REMARK 927      BINDING AFFINITY PREDICTED BY RF-SCORE:    0.00 PKD
ROOT
HETATM    1  C   UNL     1     -12.125  14.754  71.507  1.00  0.00    -0.350 C  
HETATM    2  O   UNL     1     -12.147  13.487  70.852  1.00  0.00    -0.332 OA 
ENDROOT
BRANCH   2   3
HETATM    3  C   UNL     1     -11.955  13.514  69.495  1.00  0.00    -0.334 A  
HETATM    4  C   UNL     1     -11.881  12.298  68.783  1.00  0.00    -0.356 A  
HETATM    5  C   UNL     1     -11.672  12.326  67.393  1.00  0.00    -0.405 A  
HETATM    6  C   UNL     1     -11.741  14.722  68.812  1.00  0.00    -0.354 A  
HETATM    7 CL   UNL     1     -11.180  13.554  65.041  1.00  0.00    -0.320 Cl 
HETATM    8  C   UNL     1     -11.494  14.735  67.440  1.00  0.00    -0.376 A  
HETATM    9  C   UNL     1     -11.473  13.538  66.735  1.00  0.00    -0.346 A  
BRANCH   4  10
HETATM   10  C   UNL     1     -12.034  10.972  69.471  1.00  0.00    -0.342 C  
HETATM   11  H   UNL     1     -13.527  11.741  70.711  1.00  0.00     0.000 HD 
HETATM   12  O   UNL     1     -11.322  10.016  69.194  1.00  0.00    -0.189 OA 
HETATM   13  N   UNL     1     -13.034  10.893  70.430  1.00  0.00    -0.187 N  
BRANCH  13  14
HETATM   14  C   UNL     1     -13.392   9.626  71.041  1.00  0.00    -0.204 C  
BRANCH  14  15
HETATM   15  C   UNL     1     -12.573   9.302  72.296  1.00  0.00    -0.402 C  
BRANCH  15  16
HETATM   16  C   UNL     1     -11.751   8.026  72.235  1.00  0.00    -0.428 A  
HETATM   17  C   UNL     1     -10.757   7.706  73.175  1.00  0.00    -0.445 A  
HETATM   18  C   UNL     1      -9.976   6.556  73.034  1.00  0.00    -0.185 A  
HETATM   19  C   UNL     1     -10.188   5.701  71.953  1.00  0.00    -0.195 A  
HETATM   20  C   UNL     1     -11.975   7.133  71.173  1.00  0.00    -0.381 A  
HETATM   21  C   UNL     1     -11.191   5.985  71.022  1.00  0.00    -0.332 A  
BRANCH  19  22
HETATM   22  S   UNL     1      -9.077   4.337  71.687  1.00  0.00    -0.128 S  
HETATM   23  O   UNL     1      -9.798   3.342  70.916  1.00  0.00    -0.163 OA 
HETATM   24  O   UNL     1      -8.456   3.979  72.942  1.00  0.00    -0.094 OA 
BRANCH  22  25
HETATM   25  N   UNL     1      -7.924   4.932  70.649  1.00  0.00    -0.077 N  
HETATM   26  H   UNL     1      -7.733   4.409  69.795  1.00  0.00     0.000 HD 
BRANCH  25  27
HETATM   27  C   UNL     1      -7.209   6.096  70.873  1.00  0.00    -0.074 C  
HETATM   28  O   UNL     1      -6.602   6.315  71.904  1.00  0.00    -0.059 OA 
BRANCH  27  29
HETATM   29  N   UNL     1      -7.271   6.975  69.826  1.00  0.00    -0.077 N  
HETATM   30  H   UNL     1      -6.483   7.061  69.184  1.00  0.00     0.000 HD 
BRANCH  29  31
HETATM   31  C   UNL     1      -8.464   7.787  69.631  1.00  0.00    -0.133 C  
HETATM   32  C   UNL     1      -8.431   9.055  70.490  1.00  0.00    -0.226 C  
HETATM   33  C   UNL     1      -7.461  10.106  69.957  1.00  0.00    -0.171 C  
HETATM   34  C   UNL     1      -7.743  10.430  68.494  1.00  0.00    -0.101 C  
HETATM   35  C   UNL     1      -7.722   9.177  67.625  1.00  0.00    -0.089 C  
HETATM   36  C   UNL     1      -8.680   8.110  68.150  1.00  0.00    -0.136 C  
ENDBRANCH  29  31
ENDBRANCH  27  29
ENDBRANCH  25  27
ENDBRANCH  22  25
ENDBRANCH  19  22
ENDBRANCH  15  16
ENDBRANCH  14  15
ENDBRANCH  13  14
ENDBRANCH   4  10
ENDBRANCH   2   3
TORSDOF 10
ENDMDL
MODEL      176
REMARK 921   NORMALIZED FREE ENERGY PREDICTED BY IDOCK:   -4.90 KCAL/MOL
REMARK 922        TOTAL FREE ENERGY PREDICTED BY IDOCK:   -9.73 KCAL/MOL
REMARK 923 INTER-LIGAND FREE ENERGY PREDICTED BY IDOCK:   -9.43 KCAL/MOL
REMARK 924 INTRA-LIGAND FREE ENERGY PREDICTED BY IDOCK:   -0.31 KCAL/MOL
REMARK 927      BINDING AFFINITY PREDICTED BY RF-SCORE:    0.00 PKD
ROOT
HETATM    1  C   UNL     1      -7.895   3.885  67.537  1.00  0.00    -0.086 C  
HETATM    2  O   UNL     1      -7.896   4.946  68.491  1.00  0.00    -0.080 OA 
ENDROOT
BRANCH   2   3
HETATM    3  C   UNL     1      -8.560   4.692  69.664  1.00  0.00    -0.077 A  
HETATM    4  C   UNL     1      -9.599   5.556  70.069  1.00  0.00    -0.218 A  
HETATM    5  C   UNL     1     -10.272   5.302  71.278  1.00  0.00    -0.291 A  
HETATM    6  C   UNL     1      -8.168   3.643  70.512  1.00  0.00    -0.070 A  
HETATM    7 CL   UNL     1     -10.681   3.974  73.591  1.00  0.00    -0.286 Cl 
HETATM    8  C   UNL     1      -8.818   3.426  71.727  1.00  0.00    -0.133 A  
HETATM    9  C   UNL     1      -9.873   4.249  72.098  1.00  0.00    -0.167 A  
BRANCH   4  10
HETATM   10  C   UNL     1     -10.015   6.733  69.237  1.00  0.00    -0.160 C  
HETATM   11  H   UNL     1      -9.968   5.575  67.500  1.00  0.00     0.000 HD 
HETATM   12  O   UNL     1     -10.173   7.845  69.724  1.00  0.00    -0.202 OA 
HETATM   13  N   UNL     1     -10.220   6.486  67.886  1.00  0.00    -0.153 N  
BRANCH  13  14
HETATM   14  C   UNL     1     -10.785   7.498  67.012  1.00  0.00    -0.297 C  
BRANCH  14  15
HETATM   15  C   UNL     1      -9.739   8.463  66.441  1.00  0.00    -0.312 C  
BRANCH  15  16
HETATM   16  C   UNL     1     -10.264   9.818  66.000  1.00  0.00    -0.263 A  
HETATM   17  C   UNL     1     -10.980  10.677  66.848  1.00  0.00    -0.228 A  
HETATM   18  C   UNL     1     -11.507  11.882  66.375  1.00  0.00    -0.371 A  
HETATM   19  C   UNL     1     -11.314  12.249  65.044  1.00  0.00    -0.328 A  
HETATM   20  C   UNL     1     -10.047  10.221  64.672  1.00  0.00    -0.317 A  
HETATM   21  C   UNL     1     -10.580  11.421  64.189  1.00  0.00    -0.430 A  
BRANCH  19  22
HETATM   22  S   UNL     1     -12.134  13.693  64.407  1.00  0.00    -0.420 S  
HETATM   23  O   UNL     1     -13.230  13.994  65.308  1.00  0.00    -0.782 OA 
HETATM   24  O   UNL     1     -12.376  13.518  62.994  1.00  0.00    -0.661 OA 
BRANCH  22  25
HETATM   25  N   UNL     1     -11.043  14.928  64.632  1.00  0.00    -0.593 N  
HETATM   26  H   UNL     1     -10.941  15.618  63.888  1.00  0.00     0.000 HD 
BRANCH  25  27
HETATM   27  C   UNL     1     -10.266  15.075  65.767  1.00  0.00    -0.338 C  
HETATM   28  O   UNL     1      -9.057  15.209  65.733  1.00  0.00    -0.198 OA 
BRANCH  27  29
HETATM   29  N   UNL     1     -10.993  15.036  66.925  1.00  0.00    -0.320 N  
HETATM   30  H   UNL     1     -11.974  15.315  66.922  1.00  0.00     0.000 HD 
BRANCH  29  31
HETATM   31  C   UNL     1     -10.364  14.594  68.163  1.00  0.00    -0.230 C  
HETATM   32  C   UNL     1      -9.927  15.779  69.029  1.00  0.00    -0.234 C  
HETATM   33  C   UNL     1     -11.101  16.476  69.714  1.00  0.00    -0.248 C  
HETATM   34  C   UNL     1     -11.948  15.488  70.506  1.00  0.00    -0.406 C  
HETATM   35  C   UNL     1     -12.431  14.334  69.635  1.00  0.00    -0.215 C  
HETATM   36  C   UNL     1     -11.271  13.630  68.933  1.00  0.00    -0.309 C  
ENDBRANCH  29  31
ENDBRANCH  27  29
ENDBRANCH  25  27
ENDBRANCH  22  25
ENDBRANCH  19  22
ENDBRANCH  15  16
ENDBRANCH  14  15
ENDBRANCH  13  14
ENDBRANCH   4  10
ENDBRANCH   2   3
TORSDOF 10
ENDMDL
MODEL      177
REMARK 921   NORMALIZED FREE ENERGY PREDICTED BY IDOCK:   -4.89 KCAL/MOL
REMARK 922        TOTAL FREE ENERGY PREDICTED BY IDOCK:   -9.72 KCAL/MOL
REMARK 923 INTER-LIGAND FREE ENERGY PREDICTED BY IDOCK:   -7.21 KCAL/MOL
REMARK 924 INTRA-LIGAND FREE ENERGY PREDICTED BY IDOCK:   -2.51 KCAL/MOL
REMARK 927      BINDING AFFINITY PREDICTED BY RF-SCORE:    0.00 PKD
ROOT
HETATM    1  C   UNL     1      -5.776   9.730  69.064  1.00  0.00    -0.035 C  
HETATM    2  O   UNL     1      -5.446   9.020  67.871  1.00  0.00    -0.035 OA 
ENDROOT
BRANCH   2   3
HETATM    3  C   UNL     1      -6.305   9.194  66.817  1.00  0.00    -0.066 A  
HETATM    4  C   UNL     1      -7.056   8.094  66.350  1.00  0.00    -0.075 A  
HETATM    5  C   UNL     1      -7.929   8.270  65.262  1.00  0.00    -0.128 A  
HETATM    6  C   UNL     1      -6.387  10.420  66.137  1.00  0.00    -0.106 A  
HETATM    7 CL   UNL     1      -9.046   9.687  63.255  1.00  0.00    -0.267 Cl 
HETATM    8  C   UNL     1      -7.227  10.570  65.034  1.00  0.00     0.005 A  
HETATM    9  C   UNL     1      -8.002   9.499  64.609  1.00  0.00    -0.128 A  
BRANCH   4  10
HETATM   10  C   UNL     1      -6.957   6.743  66.995  1.00  0.00    -0.070 C  
HETATM   11  H   UNL     1      -8.232   7.338  68.537  1.00  0.00     0.000 HD 
HETATM   12  O   UNL     1      -6.238   5.862  66.541  1.00  0.00    -0.031 OA 
HETATM   13  N   UNL     1      -7.736   6.547  68.127  1.00  0.00    -0.103 N  
BRANCH  13  14
HETATM   14  C   UNL     1      -7.858   5.236  68.740  1.00  0.00    -0.083 C  
BRANCH  14  15
HETATM   15  C   UNL     1      -8.254   5.291  70.221  1.00  0.00    -0.095 C  
BRANCH  15  16
HETATM   16  C   UNL     1      -9.434   6.187  70.554  1.00  0.00    -0.182 A  
HETATM   17  C   UNL     1      -9.363   7.233  71.488  1.00  0.00    -0.155 A  
HETATM   18  C   UNL     1     -10.497   7.983  71.817  1.00  0.00    -0.287 A  
HETATM   19  C   UNL     1     -11.717   7.701  71.204  1.00  0.00    -0.290 A  
HETATM   20  C   UNL     1     -10.663   5.941  69.921  1.00  0.00    -0.406 A  
HETATM   21  C   UNL     1     -11.803   6.682  70.252  1.00  0.00    -0.378 A  
BRANCH  19  22
HETATM   22  S   UNL     1     -13.185   8.541  71.754  1.00  0.00    -0.371 S  
HETATM   23  O   UNL     1     -12.904   9.072  73.075  1.00  0.00    -0.248 OA 
HETATM   24  O   UNL     1     -14.330   7.687  71.538  1.00  0.00    -0.433 OA 
BRANCH  22  25
HETATM   25  N   UNL     1     -13.298   9.877  70.770  1.00  0.00    -0.605 N  
HETATM   26  H   UNL     1     -13.931   9.831  69.972  1.00  0.00     0.000 HD 
BRANCH  25  27
HETATM   27  C   UNL     1     -12.585  11.046  70.969  1.00  0.00    -0.411 C  
HETATM   28  O   UNL     1     -13.019  11.991  71.602  1.00  0.00    -0.408 OA 
BRANCH  27  29
HETATM   29  N   UNL     1     -11.356  11.035  70.368  1.00  0.00    -0.467 N  
HETATM   30  H   UNL     1     -10.534  11.356  70.879  1.00  0.00     0.000 HD 
BRANCH  29  31
HETATM   31  C   UNL     1     -11.224  10.562  68.996  1.00  0.00    -0.259 C  
HETATM   32  C   UNL     1     -11.735  11.598  67.990  1.00  0.00    -0.351 C  
HETATM   33  C   UNL     1     -10.782  12.779  67.820  1.00  0.00    -0.237 C  
HETATM   34  C   UNL     1      -9.374  12.311  67.473  1.00  0.00    -0.183 C  
HETATM   35  C   UNL     1      -8.839  11.321  68.501  1.00  0.00    -0.159 C  
HETATM   36  C   UNL     1      -9.785  10.137  68.692  1.00  0.00    -0.167 C  
ENDBRANCH  29  31
ENDBRANCH  27  29
ENDBRANCH  25  27
ENDBRANCH  22  25
ENDBRANCH  19  22
ENDBRANCH  15  16
ENDBRANCH  14  15
ENDBRANCH  13  14
ENDBRANCH   4  10
ENDBRANCH   2   3
TORSDOF 10
ENDMDL
MODEL      178
REMARK 921   NORMALIZED FREE ENERGY PREDICTED BY IDOCK:   -4.88 KCAL/MOL
REMARK 922        TOTAL FREE ENERGY PREDICTED BY IDOCK:   -9.71 KCAL/MOL
REMARK 923 INTER-LIGAND FREE ENERGY PREDICTED BY IDOCK:   -7.67 KCAL/MOL
REMARK 924 INTRA-LIGAND FREE ENERGY PREDICTED BY IDOCK:   -2.04 KCAL/MOL
REMARK 927      BINDING AFFINITY PREDICTED BY RF-SCORE:    0.00 PKD
ROOT
HETATM    1  C   UNL     1     -13.381  15.324  71.399  1.00  0.00    -0.491 C  
HETATM    2  O   UNL     1     -12.679  14.089  71.531  1.00  0.00    -0.333 OA 
ENDROOT
BRANCH   2   3
HETATM    3  C   UNL     1     -11.989  13.675  70.421  1.00  0.00    -0.302 A  
HETATM    4  C   UNL     1     -11.859  12.294  70.164  1.00  0.00    -0.352 A  
HETATM    5  C   UNL     1     -11.141  11.869  69.032  1.00  0.00    -0.300 A  
HETATM    6  C   UNL     1     -11.333  14.593  69.585  1.00  0.00    -0.317 A  
HETATM    7 CL   UNL     1      -9.601  12.263  66.851  1.00  0.00    -0.207 Cl 
HETATM    8  C   UNL     1     -10.591  14.158  68.488  1.00  0.00    -0.257 A  
HETATM    9  C   UNL     1     -10.508  12.800  68.210  1.00  0.00    -0.241 A  
BRANCH   4  10
HETATM   10  C   UNL     1     -12.480  11.263  71.061  1.00  0.00    -0.400 C  
HETATM   11  H   UNL     1     -10.938   9.917  70.652  1.00  0.00     0.000 HD 
HETATM   12  O   UNL     1     -13.550  11.457  71.622  1.00  0.00    -0.105 OA 
HETATM   13  N   UNL     1     -11.766  10.084  71.225  1.00  0.00    -0.376 N  
BRANCH  13  14
HETATM   14  C   UNL     1     -12.174   9.084  72.195  1.00  0.00    -0.357 C  
BRANCH  14  15
HETATM   15  C   UNL     1     -12.802   7.839  71.558  1.00  0.00    -0.357 C  
BRANCH  15  16
HETATM   16  C   UNL     1     -11.837   6.719  71.209  1.00  0.00    -0.396 A  
HETATM   17  C   UNL     1     -11.068   6.040  72.169  1.00  0.00    -0.328 A  
HETATM   18  C   UNL     1     -10.139   5.068  71.790  1.00  0.00    -0.262 A  
HETATM   19  C   UNL     1      -9.973   4.753  70.442  1.00  0.00    -0.245 A  
HETATM   20  C   UNL     1     -11.682   6.363  69.859  1.00  0.00    -0.309 A  
HETATM   21  C   UNL     1     -10.746   5.397  69.473  1.00  0.00    -0.249 A  
BRANCH  19  22
HETATM   22  S   UNL     1      -8.668   3.644  69.958  1.00  0.00    -0.077 S  
HETATM   23  O   UNL     1      -9.275   2.348  69.721  1.00  0.00    -0.105 OA 
HETATM   24  O   UNL     1      -7.565   3.777  70.882  1.00  0.00    -0.043 OA 
BRANCH  22  25
HETATM   25  N   UNL     1      -8.199   4.180  68.456  1.00  0.00    -0.082 N  
HETATM   26  H   UNL     1      -8.712   3.838  67.644  1.00  0.00     0.000 HD 
BRANCH  25  27
HETATM   27  C   UNL     1      -7.154   5.063  68.241  1.00  0.00    -0.062 C  
HETATM   28  O   UNL     1      -6.077   4.721  67.791  1.00  0.00    -0.026 OA 
BRANCH  27  29
HETATM   29  N   UNL     1      -7.453   6.347  68.604  1.00  0.00    -0.086 N  
HETATM   30  H   UNL     1      -7.715   6.559  69.567  1.00  0.00     0.000 HD 
BRANCH  29  31
HETATM   31  C   UNL     1      -7.398   7.413  67.611  1.00  0.00    -0.092 C  
HETATM   32  C   UNL     1      -8.168   7.042  66.340  1.00  0.00    -0.117 C  
HETATM   33  C   UNL     1      -9.682   7.106  66.526  1.00  0.00    -0.199 C  
HETATM   34  C   UNL     1     -10.118   8.463  67.066  1.00  0.00    -0.354 C  
HETATM   35  C   UNL     1      -9.393   8.813  68.362  1.00  0.00    -0.141 C  
HETATM   36  C   UNL     1      -7.877   8.743  68.198  1.00  0.00    -0.102 C  
ENDBRANCH  29  31
ENDBRANCH  27  29
ENDBRANCH  25  27
ENDBRANCH  22  25
ENDBRANCH  19  22
ENDBRANCH  15  16
ENDBRANCH  14  15
ENDBRANCH  13  14
ENDBRANCH   4  10
ENDBRANCH   2   3
TORSDOF 10
ENDMDL
MODEL      179
REMARK 921   NORMALIZED FREE ENERGY PREDICTED BY IDOCK:   -4.88 KCAL/MOL
REMARK 922        TOTAL FREE ENERGY PREDICTED BY IDOCK:   -9.70 KCAL/MOL
REMARK 923 INTER-LIGAND FREE ENERGY PREDICTED BY IDOCK:   -8.38 KCAL/MOL
REMARK 924 INTRA-LIGAND FREE ENERGY PREDICTED BY IDOCK:   -1.32 KCAL/MOL
REMARK 927      BINDING AFFINITY PREDICTED BY RF-SCORE:    0.00 PKD
ROOT
HETATM    1  C   UNL     1      -5.984   4.069  69.364  1.00  0.00    -0.023 C  
HETATM    2  O   UNL     1      -6.402   5.173  70.166  1.00  0.00    -0.024 OA 
ENDROOT
BRANCH   2   3
HETATM    3  C   UNL     1      -7.523   4.965  70.927  1.00  0.00    -0.065 A  
HETATM    4  C   UNL     1      -8.634   5.821  70.768  1.00  0.00    -0.129 A  
HETATM    5  C   UNL     1      -9.780   5.615  71.557  1.00  0.00    -0.200 A  
HETATM    6  C   UNL     1      -7.556   3.976  71.923  1.00  0.00    -0.066 A  
HETATM    7 CL   UNL     1     -11.187   4.404  73.516  1.00  0.00    -0.385 Cl 
HETATM    8  C   UNL     1      -8.683   3.807  72.726  1.00  0.00    -0.101 A  
HETATM    9  C   UNL     1      -9.793   4.619  72.532  1.00  0.00    -0.159 A  
BRANCH   4  10
HETATM   10  C   UNL     1      -8.630   6.939  69.767  1.00  0.00    -0.141 C  
HETATM   11  H   UNL     1      -9.368   5.669  68.283  1.00  0.00     0.000 HD 
HETATM   12  O   UNL     1      -8.212   8.055  70.047  1.00  0.00    -0.114 OA 
HETATM   13  N   UNL     1      -9.137   6.637  68.511  1.00  0.00    -0.129 N  
BRANCH  13  14
HETATM   14  C   UNL     1      -9.344   7.671  67.513  1.00  0.00    -0.139 C  
BRANCH  14  15
HETATM   15  C   UNL     1     -10.656   8.443  67.699  1.00  0.00    -0.265 C  
BRANCH  15  16
HETATM   16  C   UNL     1     -10.539   9.957  67.670  1.00  0.00    -0.325 A  
HETATM   17  C   UNL     1     -11.652  10.812  67.603  1.00  0.00    -0.087 A  
HETATM   18  C   UNL     1     -11.491  12.197  67.504  1.00  0.00    -0.410 A  
HETATM   19  C   UNL     1     -10.210  12.747  67.481  1.00  0.00    -0.216 A  
HETATM   20  C   UNL     1      -9.258  10.532  67.683  1.00  0.00    -0.153 A  
HETATM   21  C   UNL     1      -9.090  11.916  67.574  1.00  0.00    -0.178 A  
BRANCH  19  22
HETATM   22  S   UNL     1     -10.012  14.489  67.179  1.00  0.00    -0.256 S  
HETATM   23  O   UNL     1      -9.913  14.665  65.743  1.00  0.00    -0.306 OA 
HETATM   24  O   UNL     1      -8.986  15.009  68.053  1.00  0.00    -0.168 OA 
BRANCH  22  25
HETATM   25  N   UNL     1     -11.479  15.154  67.592  1.00  0.00    -0.331 N  
HETATM   26  H   UNL     1     -12.296  14.892  67.040  1.00  0.00     0.000 HD 
BRANCH  25  27
HETATM   27  C   UNL     1     -11.658  16.042  68.639  1.00  0.00    -0.343 C  
HETATM   28  O   UNL     1     -11.154  17.149  68.666  1.00  0.00    -0.241 OA 
BRANCH  27  29
HETATM   29  N   UNL     1     -12.441  15.539  69.641  1.00  0.00    -0.591 N  
HETATM   30  H   UNL     1     -13.432  15.777  69.684  1.00  0.00     0.000 HD 
BRANCH  29  31
HETATM   31  C   UNL     1     -11.857  14.662  70.648  1.00  0.00    -0.305 C  
HETATM   32  C   UNL     1     -11.193  15.459  71.774  1.00  0.00    -0.380 C  
HETATM   33  C   UNL     1     -12.203  16.101  72.722  1.00  0.00    -0.628 C  
HETATM   34  C   UNL     1     -13.183  15.070  73.270  1.00  0.00    -0.537 C  
HETATM   35  C   UNL     1     -13.888  14.311  72.151  1.00  0.00    -0.589 C  
HETATM   36  C   UNL     1     -12.892  13.670  71.188  1.00  0.00    -0.399 C  
ENDBRANCH  29  31
ENDBRANCH  27  29
ENDBRANCH  25  27
ENDBRANCH  22  25
ENDBRANCH  19  22
ENDBRANCH  15  16
ENDBRANCH  14  15
ENDBRANCH  13  14
ENDBRANCH   4  10
ENDBRANCH   2   3
TORSDOF 10
ENDMDL
MODEL      180
REMARK 921   NORMALIZED FREE ENERGY PREDICTED BY IDOCK:   -4.86 KCAL/MOL
REMARK 922        TOTAL FREE ENERGY PREDICTED BY IDOCK:   -9.68 KCAL/MOL
REMARK 923 INTER-LIGAND FREE ENERGY PREDICTED BY IDOCK:   -8.06 KCAL/MOL
REMARK 924 INTRA-LIGAND FREE ENERGY PREDICTED BY IDOCK:   -1.62 KCAL/MOL
REMARK 927      BINDING AFFINITY PREDICTED BY RF-SCORE:    0.00 PKD
ROOT
HETATM    1  C   UNL     1      -9.789   3.262  63.929  1.00  0.00    -0.158 C  
HETATM    2  O   UNL     1      -8.802   4.162  64.431  1.00  0.00    -0.126 OA 
ENDROOT
BRANCH   2   3
HETATM    3  C   UNL     1      -9.182   4.923  65.507  1.00  0.00    -0.157 A  
HETATM    4  C   UNL     1      -8.721   6.252  65.608  1.00  0.00    -0.122 A  
HETATM    5  C   UNL     1      -9.101   7.029  66.718  1.00  0.00    -0.162 A  
HETATM    6  C   UNL     1      -9.946   4.379  66.552  1.00  0.00    -0.245 A  
HETATM    7 CL   UNL     1     -10.294   7.422  69.106  1.00  0.00    -0.204 Cl 
HETATM    8  C   UNL     1     -10.283   5.148  67.666  1.00  0.00    -0.197 A  
HETATM    9  C   UNL     1      -9.869   6.471  67.738  1.00  0.00    -0.123 A  
BRANCH   4  10
HETATM   10  C   UNL     1      -7.844   6.865  64.556  1.00  0.00    -0.115 C  
HETATM   11  H   UNL     1      -9.462   7.923  63.766  1.00  0.00     0.000 HD 
HETATM   12  O   UNL     1      -6.661   6.571  64.449  1.00  0.00    -0.037 OA 
HETATM   13  N   UNL     1      -8.451   7.791  63.718  1.00  0.00     0.141 N  
BRANCH  13  14
HETATM   14  C   UNL     1      -7.676   8.575  62.774  1.00  0.00    -0.126 C  
BRANCH  14  15
HETATM   15  C   UNL     1      -7.961  10.080  62.853  1.00  0.00    -0.139 C  
BRANCH  15  16
HETATM   16  C   UNL     1      -8.622  10.559  64.133  1.00  0.00    -0.153 A  
HETATM   17  C   UNL     1      -7.913  10.790  65.324  1.00  0.00     0.009 A  
HETATM   18  C   UNL     1      -8.577  11.159  66.497  1.00  0.00    -0.169 A  
HETATM   19  C   UNL     1      -9.962  11.313  66.492  1.00  0.00    -0.212 A  
HETATM   20  C   UNL     1     -10.013  10.755  64.138  1.00  0.00    -0.405 A  
HETATM   21  C   UNL     1     -10.684  11.115  65.312  1.00  0.00    -0.271 A  
BRANCH  19  22
HETATM   22  S   UNL     1     -10.814  11.610  68.025  1.00  0.00    -0.231 S  
HETATM   23  O   UNL     1     -10.092  10.896  69.061  1.00  0.00    -0.200 OA 
HETATM   24  O   UNL     1     -12.229  11.387  67.833  1.00  0.00    -0.592 OA 
BRANCH  22  25
HETATM   25  N   UNL     1     -10.548  13.219  68.347  1.00  0.00    -0.247 N  
HETATM   26  H   UNL     1      -9.583  13.550  68.366  1.00  0.00     0.000 HD 
BRANCH  25  27
HETATM   27  C   UNL     1     -11.555  14.136  68.591  1.00  0.00    -0.317 C  
HETATM   28  O   UNL     1     -11.833  15.039  67.824  1.00  0.00    -0.336 OA 
BRANCH  27  29
HETATM   29  N   UNL     1     -12.189  13.932  69.786  1.00  0.00    -0.341 N  
HETATM   30  H   UNL     1     -12.135  13.023  70.245  1.00  0.00     0.000 HD 
BRANCH  29  31
HETATM   31  C   UNL     1     -12.942  15.017  70.402  1.00  0.00    -0.240 C  
HETATM   32  C   UNL     1     -14.132  14.491  71.211  1.00  0.00    -0.327 C  
HETATM   33  C   UNL     1     -13.713  13.848  72.531  1.00  0.00    -0.665 C  
HETATM   34  C   UNL     1     -12.850  14.792  73.359  1.00  0.00    -0.597 C  
HETATM   35  C   UNL     1     -11.634  15.276  72.577  1.00  0.00    -0.498 C  
HETATM   36  C   UNL     1     -12.033  15.913  71.248  1.00  0.00    -0.493 C  
ENDBRANCH  29  31
ENDBRANCH  27  29
ENDBRANCH  25  27
ENDBRANCH  22  25
ENDBRANCH  19  22
ENDBRANCH  15  16
ENDBRANCH  14  15
ENDBRANCH  13  14
ENDBRANCH   4  10
ENDBRANCH   2   3
TORSDOF 10
ENDMDL
MODEL      181
REMARK 921   NORMALIZED FREE ENERGY PREDICTED BY IDOCK:   -4.84 KCAL/MOL
REMARK 922        TOTAL FREE ENERGY PREDICTED BY IDOCK:   -9.64 KCAL/MOL
REMARK 923 INTER-LIGAND FREE ENERGY PREDICTED BY IDOCK:   -7.53 KCAL/MOL
REMARK 924 INTRA-LIGAND FREE ENERGY PREDICTED BY IDOCK:   -2.12 KCAL/MOL
REMARK 927      BINDING AFFINITY PREDICTED BY RF-SCORE:    0.00 PKD
ROOT
HETATM    1  C   UNL     1     -10.397   5.876  74.157  1.00  0.00    -0.284 C  
HETATM    2  O   UNL     1     -11.018   5.793  72.875  1.00  0.00    -0.241 OA 
ENDROOT
BRANCH   2   3
HETATM    3  C   UNL     1     -11.088   6.967  72.169  1.00  0.00    -0.243 A  
HETATM    4  C   UNL     1     -10.263   7.142  71.038  1.00  0.00    -0.205 A  
HETATM    5  C   UNL     1     -10.326   8.350  70.321  1.00  0.00    -0.212 A  
HETATM    6  C   UNL     1     -11.897   8.030  72.600  1.00  0.00    -0.380 A  
HETATM    7 CL   UNL     1     -11.182  10.874  69.897  1.00  0.00    -0.352 Cl 
HETATM    8  C   UNL     1     -11.921   9.238  71.903  1.00  0.00    -0.433 A  
HETATM    9  C   UNL     1     -11.145   9.388  70.762  1.00  0.00    -0.300 A  
BRANCH   4  10
HETATM   10  C   UNL     1      -9.327   6.065  70.571  1.00  0.00    -0.160 C  
HETATM   11  H   UNL     1     -10.727   5.397  69.174  1.00  0.00     0.000 HD 
HETATM   12  O   UNL     1      -8.235   5.887  71.095  1.00  0.00    -0.119 OA 
HETATM   13  N   UNL     1      -9.768   5.292  69.506  1.00  0.00    -0.161 N  
BRANCH  13  14
HETATM   14  C   UNL     1      -8.891   4.335  68.856  1.00  0.00    -0.100 C  
BRANCH  14  15
HETATM   15  C   UNL     1      -7.916   4.980  67.863  1.00  0.00    -0.094 C  
BRANCH  15  16
HETATM   16  C   UNL     1      -8.260   6.393  67.426  1.00  0.00    -0.116 A  
HETATM   17  C   UNL     1      -7.469   7.509  67.743  1.00  0.00    -0.101 A  
HETATM   18  C   UNL     1      -7.866   8.800  67.381  1.00  0.00    -0.098 A  
HETATM   19  C   UNL     1      -9.058   8.989  66.685  1.00  0.00    -0.160 A  
HETATM   20  C   UNL     1      -9.440   6.600  66.692  1.00  0.00    -0.201 A  
HETATM   21  C   UNL     1      -9.847   7.890  66.335  1.00  0.00    -0.217 A  
BRANCH  19  22
HETATM   22  S   UNL     1      -9.641  10.643  66.384  1.00  0.00    -0.197 S  
HETATM   23  O   UNL     1     -11.058  10.660  66.691  1.00  0.00    -0.143 OA 
HETATM   24  O   UNL     1      -9.166  11.086  65.093  1.00  0.00    -0.208 OA 
BRANCH  22  25
HETATM   25  N   UNL     1      -8.933  11.560  67.577  1.00  0.00    -0.156 N  
HETATM   26  H   UNL     1      -8.409  11.076  68.305  1.00  0.00     0.000 HD 
BRANCH  25  27
HETATM   27  C   UNL     1      -9.013  12.940  67.641  1.00  0.00    -0.192 C  
HETATM   28  O   UNL     1      -8.460  13.599  68.502  1.00  0.00    -0.161 OA 
BRANCH  27  29
HETATM   29  N   UNL     1      -9.788  13.480  66.652  1.00  0.00    -0.272 N  
HETATM   30  H   UNL     1      -9.607  13.246  65.676  1.00  0.00     0.000 HD 
BRANCH  29  31
HETATM   31  C   UNL     1     -10.874  14.389  66.996  1.00  0.00    -0.297 C  
HETATM   32  C   UNL     1     -10.769  15.710  66.226  1.00  0.00    -0.295 C  
HETATM   33  C   UNL     1     -11.165  15.573  64.758  1.00  0.00    -0.399 C  
HETATM   34  C   UNL     1     -12.549  14.950  64.612  1.00  0.00    -0.054 C  
HETATM   35  C   UNL     1     -12.641  13.608  65.331  1.00  0.00    -0.533 C  
HETATM   36  C   UNL     1     -12.238  13.724  66.799  1.00  0.00    -0.440 C  
ENDBRANCH  29  31
ENDBRANCH  27  29
ENDBRANCH  25  27
ENDBRANCH  22  25
ENDBRANCH  19  22
ENDBRANCH  15  16
ENDBRANCH  14  15
ENDBRANCH  13  14
ENDBRANCH   4  10
ENDBRANCH   2   3
TORSDOF 10
ENDMDL
MODEL      182
REMARK 921   NORMALIZED FREE ENERGY PREDICTED BY IDOCK:   -4.83 KCAL/MOL
REMARK 922        TOTAL FREE ENERGY PREDICTED BY IDOCK:   -9.63 KCAL/MOL
REMARK 923 INTER-LIGAND FREE ENERGY PREDICTED BY IDOCK:   -8.25 KCAL/MOL
REMARK 924 INTRA-LIGAND FREE ENERGY PREDICTED BY IDOCK:   -1.38 KCAL/MOL
REMARK 927      BINDING AFFINITY PREDICTED BY RF-SCORE:    0.00 PKD
ROOT
HETATM    1  C   UNL     1     -13.232  12.682  72.024  1.00  0.00    -0.427 C  
HETATM    2  O   UNL     1     -13.021  11.807  70.917  1.00  0.00    -0.190 OA 
ENDROOT
BRANCH   2   3
HETATM    3  C   UNL     1     -12.626  10.533  71.232  1.00  0.00    -0.426 A  
HETATM    4  C   UNL     1     -11.654   9.894  70.433  1.00  0.00    -0.356 A  
HETATM    5  C   UNL     1     -11.257   8.582  70.749  1.00  0.00    -0.289 A  
HETATM    6  C   UNL     1     -13.231   9.818  72.278  1.00  0.00    -0.468 A  
HETATM    7 CL   UNL     1     -11.396   6.279  72.149  1.00  0.00    -0.324 Cl 
HETATM    8  C   UNL     1     -12.858   8.504  72.556  1.00  0.00    -0.310 A  
HETATM    9  C   UNL     1     -11.865   7.897  71.798  1.00  0.00    -0.293 A  
BRANCH   4  10
HETATM   10  C   UNL     1     -11.021  10.584  69.259  1.00  0.00    -0.244 C  
HETATM   11  H   UNL     1     -12.774  10.384  68.143  1.00  0.00     0.000 HD 
HETATM   12  O   UNL     1      -9.851  10.943  69.276  1.00  0.00    -0.185 OA 
HETATM   13  N   UNL     1     -11.842  10.798  68.160  1.00  0.00    -0.103 N  
BRANCH  13  14
HETATM   14  C   UNL     1     -11.399  11.602  67.035  1.00  0.00    -0.305 C  
BRANCH  14  15
HETATM   15  C   UNL     1     -11.502  13.111  67.286  1.00  0.00    -0.375 C  
BRANCH  15  16
HETATM   16  C   UNL     1     -10.218  13.795  67.722  1.00  0.00    -0.241 A  
HETATM   17  C   UNL     1     -10.064  14.413  68.974  1.00  0.00    -0.161 A  
HETATM   18  C   UNL     1      -8.888  15.095  69.301  1.00  0.00    -0.207 A  
HETATM   19  C   UNL     1      -7.843  15.157  68.380  1.00  0.00    -0.127 A  
HETATM   20  C   UNL     1      -9.141  13.837  66.822  1.00  0.00    -0.235 A  
HETATM   21  C   UNL     1      -7.965  14.525  67.139  1.00  0.00    -0.167 A  
BRANCH  19  22
HETATM   22  S   UNL     1      -6.425  16.171  68.735  1.00  0.00    -0.128 S  
HETATM   23  O   UNL     1      -5.335  15.277  69.078  1.00  0.00    -0.097 OA 
HETATM   24  O   UNL     1      -6.813  17.231  69.636  1.00  0.00    -0.163 OA 
BRANCH  22  25
HETATM   25  N   UNL     1      -5.998  16.823  67.266  1.00  0.00    -0.152 N  
HETATM   26  H   UNL     1      -5.081  16.588  66.886  1.00  0.00     0.000 HD 
BRANCH  25  27
HETATM   27  C   UNL     1      -6.812  17.665  66.528  1.00  0.00    -0.242 C  
HETATM   28  O   UNL     1      -6.724  17.785  65.320  1.00  0.00    -0.240 OA 
BRANCH  27  29
HETATM   29  N   UNL     1      -7.707  18.356  67.297  1.00  0.00    -0.221 N  
HETATM   30  H   UNL     1      -7.379  18.918  68.083  1.00  0.00     0.000 HD 
BRANCH  29  31
HETATM   31  C   UNL     1      -9.130  18.289  66.991  1.00  0.00    -0.271 C  
HETATM   32  C   UNL     1      -9.977  18.192  68.264  1.00  0.00    -0.380 C  
HETATM   33  C   UNL     1     -10.062  19.515  69.021  1.00  0.00    -0.444 C  
HETATM   34  C   UNL     1     -10.542  20.643  68.116  1.00  0.00     0.221 C  
HETATM   35  C   UNL     1      -9.669  20.780  66.874  1.00  0.00    -0.318 C  
HETATM   36  C   UNL     1      -9.564  19.463  66.108  1.00  0.00    -0.384 C  
ENDBRANCH  29  31
ENDBRANCH  27  29
ENDBRANCH  25  27
ENDBRANCH  22  25
ENDBRANCH  19  22
ENDBRANCH  15  16
ENDBRANCH  14  15
ENDBRANCH  13  14
ENDBRANCH   4  10
ENDBRANCH   2   3
TORSDOF 10
ENDMDL
MODEL      183
REMARK 921   NORMALIZED FREE ENERGY PREDICTED BY IDOCK:   -4.83 KCAL/MOL
REMARK 922        TOTAL FREE ENERGY PREDICTED BY IDOCK:   -9.63 KCAL/MOL
REMARK 923 INTER-LIGAND FREE ENERGY PREDICTED BY IDOCK:   -9.12 KCAL/MOL
REMARK 924 INTRA-LIGAND FREE ENERGY PREDICTED BY IDOCK:   -0.51 KCAL/MOL
REMARK 927      BINDING AFFINITY PREDICTED BY RF-SCORE:    0.00 PKD
ROOT
HETATM    1  C   UNL     1     -11.651  15.746  69.401  1.00  0.00    -0.365 C  
HETATM    2  O   UNL     1     -10.997  15.231  68.242  1.00  0.00    -0.255 OA 
ENDROOT
BRANCH   2   3
HETATM    3  C   UNL     1      -9.752  15.743  67.983  1.00  0.00    -0.212 A  
HETATM    4  C   UNL     1      -9.425  16.129  66.666  1.00  0.00    -0.269 A  
HETATM    5  C   UNL     1      -8.144  16.644  66.398  1.00  0.00    -0.359 A  
HETATM    6  C   UNL     1      -8.768  15.809  68.982  1.00  0.00    -0.237 A  
HETATM    7 CL   UNL     1      -5.613  17.307  67.056  1.00  0.00    -0.177 Cl 
HETATM    8  C   UNL     1      -7.488  16.284  68.695  1.00  0.00    -0.185 A  
HETATM    9  C   UNL     1      -7.187  16.710  67.408  1.00  0.00    -0.155 A  
BRANCH   4  10
HETATM   10  C   UNL     1     -10.415  16.017  65.543  1.00  0.00    -0.405 C  
HETATM   11  H   UNL     1     -10.652  13.974  65.900  1.00  0.00     0.000 HD 
HETATM   12  O   UNL     1     -10.698  16.974  64.834  1.00  0.00    -0.728 OA 
HETATM   13  N   UNL     1     -10.997  14.770  65.363  1.00  0.00    -0.338 N  
BRANCH  13  14
HETATM   14  C   UNL     1     -12.089  14.576  64.426  1.00  0.00    -0.472 C  
BRANCH  14  15
HETATM   15  C   UNL     1     -11.989  13.264  63.638  1.00  0.00    -0.547 C  
BRANCH  15  16
HETATM   16  C   UNL     1     -11.168  12.165  64.290  1.00  0.00    -0.409 A  
HETATM   17  C   UNL     1     -10.243  11.377  63.586  1.00  0.00    -0.448 A  
HETATM   18  C   UNL     1      -9.565  10.328  64.213  1.00  0.00    -0.375 A  
HETATM   19  C   UNL     1      -9.798  10.060  65.561  1.00  0.00    -0.303 A  
HETATM   20  C   UNL     1     -11.362  11.902  65.656  1.00  0.00    -0.339 A  
HETATM   21  C   UNL     1     -10.694  10.848  66.288  1.00  0.00    -0.241 A  
BRANCH  19  22
HETATM   22  S   UNL     1      -9.066   8.618  66.304  1.00  0.00    -0.200 S  
HETATM   23  O   UNL     1      -7.651   8.646  65.986  1.00  0.00    -0.090 OA 
HETATM   24  O   UNL     1      -9.866   7.459  65.980  1.00  0.00     0.062 OA 
BRANCH  22  25
HETATM   25  N   UNL     1      -9.144   8.904  67.940  1.00  0.00    -0.139 N  
HETATM   26  H   UNL     1      -9.447   9.827  68.250  1.00  0.00     0.000 HD 
BRANCH  25  27
HETATM   27  C   UNL     1      -8.823   7.965  68.905  1.00  0.00    -0.142 C  
HETATM   28  O   UNL     1      -7.758   7.378  68.934  1.00  0.00    -0.110 OA 
BRANCH  27  29
HETATM   29  N   UNL     1      -9.831   7.755  69.806  1.00  0.00    -0.177 N  
HETATM   30  H   UNL     1     -10.334   6.868  69.812  1.00  0.00     0.000 HD 
BRANCH  29  31
HETATM   31  C   UNL     1     -10.183   8.801  70.757  1.00  0.00    -0.211 C  
HETATM   32  C   UNL     1     -11.397   8.409  71.604  1.00  0.00    -0.349 C  
HETATM   33  C   UNL     1     -11.065   7.364  72.667  1.00  0.00    -0.378 C  
HETATM   34  C   UNL     1      -9.897   7.811  73.538  1.00  0.00    -0.298 C  
HETATM   35  C   UNL     1      -8.668   8.151  72.703  1.00  0.00    -0.277 C  
HETATM   36  C   UNL     1      -8.984   9.187  71.627  1.00  0.00     0.004 C  
ENDBRANCH  29  31
ENDBRANCH  27  29
ENDBRANCH  25  27
ENDBRANCH  22  25
ENDBRANCH  19  22
ENDBRANCH  15  16
ENDBRANCH  14  15
ENDBRANCH  13  14
ENDBRANCH   4  10
ENDBRANCH   2   3
TORSDOF 10
ENDMDL
MODEL      184
REMARK 921   NORMALIZED FREE ENERGY PREDICTED BY IDOCK:   -4.83 KCAL/MOL
REMARK 922        TOTAL FREE ENERGY PREDICTED BY IDOCK:   -9.62 KCAL/MOL
REMARK 923 INTER-LIGAND FREE ENERGY PREDICTED BY IDOCK:   -8.10 KCAL/MOL
REMARK 924 INTRA-LIGAND FREE ENERGY PREDICTED BY IDOCK:   -1.52 KCAL/MOL
REMARK 927      BINDING AFFINITY PREDICTED BY RF-SCORE:    0.00 PKD
ROOT
HETATM    1  C   UNL     1      -7.053   8.376  72.364  1.00  0.00    -0.087 C  
HETATM    2  O   UNL     1      -7.757   7.167  72.085  1.00  0.00    -0.089 OA 
ENDROOT
BRANCH   2   3
HETATM    3  C   UNL     1      -9.119   7.284  71.972  1.00  0.00    -0.129 A  
HETATM    4  C   UNL     1      -9.728   7.069  70.717  1.00  0.00    -0.170 A  
HETATM    5  C   UNL     1     -11.123   7.200  70.598  1.00  0.00    -0.294 A  
HETATM    6  C   UNL     1      -9.908   7.698  73.056  1.00  0.00    -0.319 A  
HETATM    7 CL   UNL     1     -13.588   7.795  71.521  1.00  0.00    -0.399 Cl 
HETATM    8  C   UNL     1     -11.286   7.863  72.916  1.00  0.00    -0.399 A  
HETATM    9  C   UNL     1     -11.888   7.602  71.692  1.00  0.00    -0.291 A  
BRANCH   4  10
HETATM   10  C   UNL     1      -8.926   6.691  69.506  1.00  0.00    -0.138 C  
HETATM   11  H   UNL     1      -8.407   8.686  69.175  1.00  0.00     0.000 HD 
HETATM   12  O   UNL     1      -8.871   5.536  69.103  1.00  0.00    -0.102 OA 
HETATM   13  N   UNL     1      -8.244   7.724  68.877  1.00  0.00    -0.126 N  
BRANCH  13  14
HETATM   14  C   UNL     1      -7.303   7.461  67.803  1.00  0.00    -0.092 C  
BRANCH  14  15
HETATM   15  C   UNL     1      -7.690   8.129  66.478  1.00  0.00    -0.093 C  
BRANCH  15  16
HETATM   16  C   UNL     1      -8.528   9.390  66.596  1.00  0.00    -0.130 A  
HETATM   17  C   UNL     1      -7.974  10.664  66.802  1.00  0.00    -0.132 A  
HETATM   18  C   UNL     1      -8.791  11.785  66.979  1.00  0.00    -0.182 A  
HETATM   19  C   UNL     1     -10.178  11.646  66.939  1.00  0.00    -0.214 A  
HETATM   20  C   UNL     1      -9.926   9.276  66.523  1.00  0.00    -0.344 A  
HETATM   21  C   UNL     1     -10.749  10.392  66.708  1.00  0.00    -0.235 A  
BRANCH  19  22
HETATM   22  S   UNL     1     -11.207  13.041  67.338  1.00  0.00    -0.304 S  
HETATM   23  O   UNL     1     -12.268  12.557  68.200  1.00  0.00    -0.270 OA 
HETATM   24  O   UNL     1     -11.520  13.762  66.125  1.00  0.00    -0.322 OA 
BRANCH  22  25
HETATM   25  N   UNL     1     -10.260  13.994  68.318  1.00  0.00    -0.242 N  
HETATM   26  H   UNL     1      -9.302  13.693  68.496  1.00  0.00     0.000 HD 
BRANCH  25  27
HETATM   27  C   UNL     1     -10.693  15.169  68.906  1.00  0.00    -0.240 C  
HETATM   28  O   UNL     1     -10.916  15.274  70.098  1.00  0.00    -0.261 OA 
BRANCH  27  29
HETATM   29  N   UNL     1     -10.861  16.188  68.009  1.00  0.00    -0.324 N  
HETATM   30  H   UNL     1     -11.800  16.488  67.746  1.00  0.00     0.000 HD 
BRANCH  29  31
HETATM   31  C   UNL     1      -9.696  16.845  67.430  1.00  0.00    -0.247 C  
HETATM   32  C   UNL     1     -10.093  17.822  66.319  1.00  0.00    -0.345 C  
HETATM   33  C   UNL     1     -10.720  19.106  66.857  1.00  0.00    -0.515 C  
HETATM   34  C   UNL     1      -9.822  19.772  67.892  1.00  0.00    -0.522 C  
HETATM   35  C   UNL     1      -9.469  18.819  69.029  1.00  0.00    -0.260 C  
HETATM   36  C   UNL     1      -8.849  17.524  68.510  1.00  0.00    -0.282 C  
ENDBRANCH  29  31
ENDBRANCH  27  29
ENDBRANCH  25  27
ENDBRANCH  22  25
ENDBRANCH  19  22
ENDBRANCH  15  16
ENDBRANCH  14  15
ENDBRANCH  13  14
ENDBRANCH   4  10
ENDBRANCH   2   3
TORSDOF 10
ENDMDL
MODEL      185
REMARK 921   NORMALIZED FREE ENERGY PREDICTED BY IDOCK:   -4.83 KCAL/MOL
REMARK 922        TOTAL FREE ENERGY PREDICTED BY IDOCK:   -9.62 KCAL/MOL
REMARK 923 INTER-LIGAND FREE ENERGY PREDICTED BY IDOCK:   -8.44 KCAL/MOL
REMARK 924 INTRA-LIGAND FREE ENERGY PREDICTED BY IDOCK:   -1.18 KCAL/MOL
REMARK 927      BINDING AFFINITY PREDICTED BY RF-SCORE:    0.00 PKD
ROOT
HETATM    1  C   UNL     1      -8.989   2.635  68.306  1.00  0.00    -0.149 C  
HETATM    2  O   UNL     1      -9.875   3.537  67.645  1.00  0.00    -0.101 OA 
ENDROOT
BRANCH   2   3
HETATM    3  C   UNL     1      -9.425   4.050  66.456  1.00  0.00    -0.194 A  
HETATM    4  C   UNL     1      -9.053   5.409  66.387  1.00  0.00    -0.141 A  
HETATM    5  C   UNL     1      -8.602   5.938  65.164  1.00  0.00    -0.094 A  
HETATM    6  C   UNL     1      -9.410   3.274  65.286  1.00  0.00    -0.146 A  
HETATM    7 CL   UNL     1      -8.069   5.817  62.522  1.00  0.00    -0.100 Cl 
HETATM    8  C   UNL     1      -8.999   3.821  64.071  1.00  0.00    -0.116 A  
HETATM    9  C   UNL     1      -8.586   5.146  64.018  1.00  0.00    -0.090 A  
BRANCH   4  10
HETATM   10  C   UNL     1      -9.113   6.305  67.590  1.00  0.00    -0.117 C  
HETATM   11  H   UNL     1     -10.705   7.375  66.766  1.00  0.00     0.000 HD 
HETATM   12  O   UNL     1      -8.314   6.203  68.512  1.00  0.00    -0.113 OA 
HETATM   13  N   UNL     1     -10.133   7.247  67.601  1.00  0.00    -0.168 N  
BRANCH  13  14
HETATM   14  C   UNL     1     -10.400   8.055  68.777  1.00  0.00    -0.206 C  
BRANCH  14  15
HETATM   15  C   UNL     1      -9.690   9.414  68.757  1.00  0.00    -0.161 C  
BRANCH  15  16
HETATM   16  C   UNL     1     -10.346  10.488  67.907  1.00  0.00    -0.226 A  
HETATM   17  C   UNL     1     -10.022  10.702  66.557  1.00  0.00    -0.265 A  
HETATM   18  C   UNL     1     -10.600  11.752  65.836  1.00  0.00    -0.314 A  
HETATM   19  C   UNL     1     -11.519  12.596  66.457  1.00  0.00    -0.353 A  
HETATM   20  C   UNL     1     -11.301  11.326  68.504  1.00  0.00    -0.341 A  
HETATM   21  C   UNL     1     -11.875  12.384  67.791  1.00  0.00    -0.362 A  
BRANCH  19  22
HETATM   22  S   UNL     1     -12.114  14.030  65.587  1.00  0.00    -0.439 S  
HETATM   23  O   UNL     1     -12.884  14.815  66.533  1.00  0.00     0.333 OA 
HETATM   24  O   UNL     1     -12.699  13.615  64.333  1.00  0.00    -0.642 OA 
BRANCH  22  25
HETATM   25  N   UNL     1     -10.751  14.934  65.288  1.00  0.00    -0.363 N  
HETATM   26  H   UNL     1      -9.845  14.468  65.344  1.00  0.00     0.000 HD 
BRANCH  25  27
HETATM   27  C   UNL     1     -10.770  16.280  64.969  1.00  0.00    -0.298 C  
HETATM   28  O   UNL     1     -11.459  16.743  64.078  1.00  0.00    -1.198 OA 
BRANCH  27  29
HETATM   29  N   UNL     1      -9.925  17.028  65.742  1.00  0.00    -0.210 N  
HETATM   30  H   UNL     1      -9.187  17.580  65.305  1.00  0.00     0.000 HD 
BRANCH  29  31
HETATM   31  C   UNL     1     -10.083  17.036  67.190  1.00  0.00    -0.292 C  
HETATM   32  C   UNL     1      -8.728  17.072  67.905  1.00  0.00    -0.216 C  
HETATM   33  C   UNL     1      -8.058  18.442  67.833  1.00  0.00    -0.271 C  
HETATM   34  C   UNL     1      -8.985  19.541  68.338  1.00  0.00    -0.397 C  
HETATM   35  C   UNL     1     -10.314  19.544  67.591  1.00  0.00    -0.574 C  
HETATM   36  C   UNL     1     -10.995  18.178  67.644  1.00  0.00    -0.118 C  
ENDBRANCH  29  31
ENDBRANCH  27  29
ENDBRANCH  25  27
ENDBRANCH  22  25
ENDBRANCH  19  22
ENDBRANCH  15  16
ENDBRANCH  14  15
ENDBRANCH  13  14
ENDBRANCH   4  10
ENDBRANCH   2   3
TORSDOF 10
ENDMDL
MODEL      186
REMARK 921   NORMALIZED FREE ENERGY PREDICTED BY IDOCK:   -4.82 KCAL/MOL
REMARK 922        TOTAL FREE ENERGY PREDICTED BY IDOCK:   -9.61 KCAL/MOL
REMARK 923 INTER-LIGAND FREE ENERGY PREDICTED BY IDOCK:   -7.17 KCAL/MOL
REMARK 924 INTRA-LIGAND FREE ENERGY PREDICTED BY IDOCK:   -2.44 KCAL/MOL
REMARK 927      BINDING AFFINITY PREDICTED BY RF-SCORE:    0.00 PKD
ROOT
HETATM    1  C   UNL     1      -9.199   9.231  66.291  1.00  0.00    -0.186 C  
HETATM    2  O   UNL     1      -8.541  10.494  66.374  1.00  0.00    -0.136 OA 
ENDROOT
BRANCH   2   3
HETATM    3  C   UNL     1      -9.321  11.546  66.782  1.00  0.00    -0.181 A  
HETATM    4  C   UNL     1      -8.784  12.495  67.677  1.00  0.00    -0.177 A  
HETATM    5  C   UNL     1      -9.588  13.568  68.105  1.00  0.00    -0.215 A  
HETATM    6  C   UNL     1     -10.667  11.648  66.399  1.00  0.00    -0.316 A  
HETATM    7 CL   UNL     1     -11.900  14.950  68.264  1.00  0.00    -0.336 Cl 
HETATM    8  C   UNL     1     -11.465  12.694  66.861  1.00  0.00    -0.402 A  
HETATM    9  C   UNL     1     -10.919  13.654  67.702  1.00  0.00    -0.267 A  
BRANCH   4  10
HETATM   10  C   UNL     1      -7.372  12.399  68.175  1.00  0.00    -0.111 C  
HETATM   11  H   UNL     1      -7.962  11.134  69.728  1.00  0.00     0.000 HD 
HETATM   12  O   UNL     1      -6.460  13.028  67.655  1.00  0.00    -0.136 OA 
HETATM   13  N   UNL     1      -7.160  11.550  69.253  1.00  0.00    -0.105 N  
BRANCH  13  14
HETATM   14  C   UNL     1      -5.819  11.241  69.717  1.00  0.00    -0.091 C  
BRANCH  14  15
HETATM   15  C   UNL     1      -5.463   9.754  69.604  1.00  0.00    -0.033 C  
BRANCH  15  16
HETATM   16  C   UNL     1      -6.539   8.782  70.054  1.00  0.00    -0.038 A  
HETATM   17  C   UNL     1      -6.830   8.529  71.404  1.00  0.00    -0.076 A  
HETATM   18  C   UNL     1      -7.779   7.570  71.770  1.00  0.00    -0.085 A  
HETATM   19  C   UNL     1      -8.460   6.858  70.784  1.00  0.00    -0.136 A  
HETATM   20  C   UNL     1      -7.262   8.080  69.075  1.00  0.00    -0.078 A  
HETATM   21  C   UNL     1      -8.206   7.113  69.434  1.00  0.00    -0.132 A  
BRANCH  19  22
HETATM   22  S   UNL     1      -9.535   5.521  71.257  1.00  0.00    -0.151 S  
HETATM   23  O   UNL     1      -9.911   5.745  72.640  1.00  0.00    -0.174 OA 
HETATM   24  O   UNL     1      -8.939   4.268  70.855  1.00  0.00    -0.100 OA 
BRANCH  22  25
HETATM   25  N   UNL     1     -10.928   5.775  70.387  1.00  0.00    -0.291 N  
HETATM   26  H   UNL     1     -11.061   5.241  69.529  1.00  0.00     0.000 HD 
BRANCH  25  27
HETATM   27  C   UNL     1     -11.919   6.668  70.757  1.00  0.00    -0.353 C  
HETATM   28  O   UNL     1     -12.847   6.368  71.484  1.00  0.00    -0.100 OA 
BRANCH  27  29
HETATM   29  N   UNL     1     -11.755   7.911  70.208  1.00  0.00    -0.474 N  
HETATM   30  H   UNL     1     -12.123   8.111  69.278  1.00  0.00     0.000 HD 
BRANCH  29  31
HETATM   31  C   UNL     1     -11.053   8.947  70.954  1.00  0.00    -0.271 C  
HETATM   32  C   UNL     1     -10.710  10.147  70.067  1.00  0.00    -0.356 C  
HETATM   33  C   UNL     1     -11.926  11.011  69.744  1.00  0.00    -0.428 C  
HETATM   34  C   UNL     1     -12.653  11.444  71.012  1.00  0.00    -0.487 C  
HETATM   35  C   UNL     1     -13.046  10.248  71.872  1.00  0.00    -0.568 C  
HETATM   36  C   UNL     1     -11.843   9.366  72.198  1.00  0.00    -0.180 C  
ENDBRANCH  29  31
ENDBRANCH  27  29
ENDBRANCH  25  27
ENDBRANCH  22  25
ENDBRANCH  19  22
ENDBRANCH  15  16
ENDBRANCH  14  15
ENDBRANCH  13  14
ENDBRANCH   4  10
ENDBRANCH   2   3
TORSDOF 10
ENDMDL
MODEL      187
REMARK 921   NORMALIZED FREE ENERGY PREDICTED BY IDOCK:   -4.81 KCAL/MOL
REMARK 922        TOTAL FREE ENERGY PREDICTED BY IDOCK:   -9.60 KCAL/MOL
REMARK 923 INTER-LIGAND FREE ENERGY PREDICTED BY IDOCK:   -9.04 KCAL/MOL
REMARK 924 INTRA-LIGAND FREE ENERGY PREDICTED BY IDOCK:   -0.55 KCAL/MOL
REMARK 927      BINDING AFFINITY PREDICTED BY RF-SCORE:    0.00 PKD
ROOT
HETATM    1  C   UNL     1      -9.875  19.498  68.046  1.00  0.00    -0.398 C  
HETATM    2  O   UNL     1     -10.364  18.220  67.640  1.00  0.00    -0.359 OA 
ENDROOT
BRANCH   2   3
HETATM    3  C   UNL     1      -9.431  17.218  67.578  1.00  0.00    -0.245 A  
HETATM    4  C   UNL     1      -9.631  16.042  68.332  1.00  0.00    -0.206 A  
HETATM    5  C   UNL     1      -8.668  15.018  68.277  1.00  0.00    -0.166 A  
HETATM    6  C   UNL     1      -8.240  17.373  66.852  1.00  0.00    -0.258 A  
HETATM    7 CL   UNL     1      -6.313  13.945  67.514  1.00  0.00    -0.129 Cl 
HETATM    8  C   UNL     1      -7.275  16.367  66.837  1.00  0.00    -0.266 A  
HETATM    9  C   UNL     1      -7.498  15.191  67.540  1.00  0.00    -0.198 A  
BRANCH   4  10
HETATM   10  C   UNL     1     -10.853  15.848  69.182  1.00  0.00    -0.268 C  
HETATM   11  H   UNL     1      -9.711  14.986  70.702  1.00  0.00     0.000 HD 
HETATM   12  O   UNL     1     -11.971  16.144  68.781  1.00  0.00    -0.286 OA 
HETATM   13  N   UNL     1     -10.640  15.325  70.450  1.00  0.00    -0.248 N  
BRANCH  13  14
HETATM   14  C   UNL     1     -11.713  15.249  71.424  1.00  0.00    -0.389 C  
BRANCH  14  15
HETATM   15  C   UNL     1     -12.916  14.429  70.942  1.00  0.00    -0.413 C  
BRANCH  15  16
HETATM   16  C   UNL     1     -12.748  12.920  70.992  1.00  0.00    -0.338 A  
HETATM   17  C   UNL     1     -13.344  12.113  71.975  1.00  0.00    -0.470 A  
HETATM   18  C   UNL     1     -13.099  10.738  72.024  1.00  0.00    -0.476 A  
HETATM   19  C   UNL     1     -12.261  10.149  71.078  1.00  0.00    -0.374 A  
HETATM   20  C   UNL     1     -11.936  12.303  70.026  1.00  0.00    -0.379 A  
HETATM   21  C   UNL     1     -11.679  10.929  70.075  1.00  0.00    -0.427 A  
BRANCH  19  22
HETATM   22  S   UNL     1     -11.817   8.435  71.252  1.00  0.00    -0.289 S  
HETATM   23  O   UNL     1     -10.692   8.192  70.369  1.00  0.00    -0.224 OA 
HETATM   24  O   UNL     1     -13.009   7.624  71.157  1.00  0.00    -0.267 OA 
BRANCH  22  25
HETATM   25  N   UNL     1     -11.190   8.318  72.787  1.00  0.00    -0.338 N  
HETATM   26  H   UNL     1     -11.618   8.880  73.523  1.00  0.00     0.000 HD 
BRANCH  25  27
HETATM   27  C   UNL     1     -10.122   7.505  73.127  1.00  0.00    -0.308 C  
HETATM   28  O   UNL     1      -9.200   7.877  73.828  1.00  0.00    -0.281 OA 
BRANCH  27  29
HETATM   29  N   UNL     1     -10.204   6.254  72.579  1.00  0.00    -0.182 N  
HETATM   30  H   UNL     1     -11.079   5.935  72.163  1.00  0.00     0.000 HD 
BRANCH  29  31
HETATM   31  C   UNL     1      -9.039   5.380  72.590  1.00  0.00    -0.135 C  
HETATM   32  C   UNL     1      -9.399   3.953  72.164  1.00  0.00    -0.180 C  
HETATM   33  C   UNL     1      -9.650   3.828  70.663  1.00  0.00    -0.259 C  
HETATM   34  C   UNL     1      -8.476   4.372  69.857  1.00  0.00    -0.083 C  
HETATM   35  C   UNL     1      -8.148   5.811  70.239  1.00  0.00    -0.105 C  
HETATM   36  C   UNL     1      -7.904   5.957  71.739  1.00  0.00    -0.103 C  
ENDBRANCH  29  31
ENDBRANCH  27  29
ENDBRANCH  25  27
ENDBRANCH  22  25
ENDBRANCH  19  22
ENDBRANCH  15  16
ENDBRANCH  14  15
ENDBRANCH  13  14
ENDBRANCH   4  10
ENDBRANCH   2   3
TORSDOF 10
ENDMDL
MODEL      188
REMARK 921   NORMALIZED FREE ENERGY PREDICTED BY IDOCK:   -4.79 KCAL/MOL
REMARK 922        TOTAL FREE ENERGY PREDICTED BY IDOCK:   -9.56 KCAL/MOL
REMARK 923 INTER-LIGAND FREE ENERGY PREDICTED BY IDOCK:   -7.73 KCAL/MOL
REMARK 924 INTRA-LIGAND FREE ENERGY PREDICTED BY IDOCK:   -1.83 KCAL/MOL
REMARK 927      BINDING AFFINITY PREDICTED BY RF-SCORE:    0.00 PKD
ROOT
HETATM    1  C   UNL     1      -9.681   7.120  66.362  1.00  0.00    -0.072 C  
HETATM    2  O   UNL     1     -10.392   6.625  67.496  1.00  0.00    -0.161 OA 
ENDROOT
BRANCH   2   3
HETATM    3  C   UNL     1      -9.972   5.413  67.979  1.00  0.00    -0.154 A  
HETATM    4  C   UNL     1     -10.193   5.098  69.337  1.00  0.00    -0.293 A  
HETATM    5  C   UNL     1      -9.752   3.859  69.836  1.00  0.00    -0.235 A  
HETATM    6  C   UNL     1      -9.250   4.517  67.175  1.00  0.00    -0.148 A  
HETATM    7 CL   UNL     1      -8.479   1.487  69.651  1.00  0.00    -0.069 Cl 
HETATM    8  C   UNL     1      -8.782   3.309  67.693  1.00  0.00    -0.138 A  
HETATM    9  C   UNL     1      -9.045   2.981  69.016  1.00  0.00    -0.144 A  
BRANCH   4  10
HETATM   10  C   UNL     1     -10.899   6.046  70.261  1.00  0.00    -0.329 C  
HETATM   11  H   UNL     1      -9.318   5.963  71.623  1.00  0.00     0.000 HD 
HETATM   12  O   UNL     1     -12.022   6.468  70.019  1.00  0.00    -0.358 OA 
HETATM   13  N   UNL     1     -10.201   6.423  71.401  1.00  0.00    -0.197 N  
BRANCH  13  14
HETATM   14  C   UNL     1     -10.704   7.461  72.283  1.00  0.00    -0.235 C  
BRANCH  14  15
HETATM   15  C   UNL     1      -9.907   8.769  72.201  1.00  0.00    -0.347 C  
BRANCH  15  16
HETATM   16  C   UNL     1      -9.618   9.277  70.799  1.00  0.00    -0.341 A  
HETATM   17  C   UNL     1      -8.325   9.331  70.253  1.00  0.00    -0.204 A  
HETATM   18  C   UNL     1      -8.100   9.877  68.986  1.00  0.00    -0.111 A  
HETATM   19  C   UNL     1      -9.173  10.367  68.242  1.00  0.00    -0.149 A  
HETATM   20  C   UNL     1     -10.690   9.742  70.019  1.00  0.00    -0.326 A  
HETATM   21  C   UNL     1     -10.471  10.298  68.754  1.00  0.00    -0.222 A  
BRANCH  19  22
HETATM   22  S   UNL     1      -8.857  11.216  66.710  1.00  0.00    -0.166 S  
HETATM   23  O   UNL     1      -9.952  10.899  65.812  1.00  0.00    -0.225 OA 
HETATM   24  O   UNL     1      -7.490  10.977  66.308  1.00  0.00    -0.144 OA 
BRANCH  22  25
HETATM   25  N   UNL     1      -9.053  12.825  67.075  1.00  0.00    -0.214 N  
HETATM   26  H   UNL     1      -9.651  13.385  66.467  1.00  0.00     0.000 HD 
BRANCH  25  27
HETATM   27  C   UNL     1      -8.455  13.452  68.155  1.00  0.00    -0.172 C  
HETATM   28  O   UNL     1      -7.250  13.582  68.265  1.00  0.00    -0.089 OA 
BRANCH  27  29
HETATM   29  N   UNL     1      -9.355  13.889  69.088  1.00  0.00    -0.375 N  
HETATM   30  H   UNL     1      -9.148  13.792  70.082  1.00  0.00     0.000 HD 
BRANCH  29  31
HETATM   31  C   UNL     1     -10.608  14.495  68.659  1.00  0.00    -0.255 C  
HETATM   32  C   UNL     1     -11.784  13.524  68.804  1.00  0.00    -0.373 C  
HETATM   33  C   UNL     1     -12.216  13.329  70.256  1.00  0.00    -0.391 C  
HETATM   34  C   UNL     1     -12.508  14.664  70.931  1.00  0.00    -0.406 C  
HETATM   35  C   UNL     1     -11.320  15.616  70.837  1.00  0.00    -0.417 C  
HETATM   36  C   UNL     1     -10.867  15.814  69.393  1.00  0.00    -0.269 C  
ENDBRANCH  29  31
ENDBRANCH  27  29
ENDBRANCH  25  27
ENDBRANCH  22  25
ENDBRANCH  19  22
ENDBRANCH  15  16
ENDBRANCH  14  15
ENDBRANCH  13  14
ENDBRANCH   4  10
ENDBRANCH   2   3
TORSDOF 10
ENDMDL
MODEL      189
REMARK 921   NORMALIZED FREE ENERGY PREDICTED BY IDOCK:   -4.79 KCAL/MOL
REMARK 922        TOTAL FREE ENERGY PREDICTED BY IDOCK:   -9.56 KCAL/MOL
REMARK 923 INTER-LIGAND FREE ENERGY PREDICTED BY IDOCK:   -8.98 KCAL/MOL
REMARK 924 INTRA-LIGAND FREE ENERGY PREDICTED BY IDOCK:   -0.57 KCAL/MOL
REMARK 927      BINDING AFFINITY PREDICTED BY RF-SCORE:    0.00 PKD
ROOT
HETATM    1  C   UNL     1     -10.667   5.062  66.833  1.00  0.00     0.004 C  
HETATM    2  O   UNL     1     -11.189   6.337  67.207  1.00  0.00    -0.332 OA 
ENDROOT
BRANCH   2   3
HETATM    3  C   UNL     1     -10.626   6.907  68.320  1.00  0.00    -0.215 A  
HETATM    4  C   UNL     1      -9.319   7.432  68.240  1.00  0.00    -0.140 A  
HETATM    5  C   UNL     1      -8.737   8.007  69.384  1.00  0.00    -0.137 A  
HETATM    6  C   UNL     1     -11.289   6.901  69.557  1.00  0.00    -0.218 A  
HETATM    7 CL   UNL     1      -8.679   8.671  71.999  1.00  0.00    -0.260 Cl 
HETATM    8  C   UNL     1     -10.686   7.438  70.694  1.00  0.00    -0.242 A  
HETATM    9  C   UNL     1      -9.419   7.998  70.599  1.00  0.00    -0.162 A  
BRANCH   4  10
HETATM   10  C   UNL     1      -8.536   7.404  66.960  1.00  0.00    -0.118 C  
HETATM   11  H   UNL     1     -10.059   8.420  65.957  1.00  0.00     0.000 HD 
HETATM   12  O   UNL     1      -7.452   6.840  66.878  1.00  0.00    -0.080 OA 
HETATM   13  N   UNL     1      -9.106   8.063  65.879  1.00  0.00    -0.146 N  
BRANCH  13  14
HETATM   14  C   UNL     1      -8.374   8.252  64.640  1.00  0.00    -0.105 C  
BRANCH  14  15
HETATM   15  C   UNL     1      -7.676   9.614  64.547  1.00  0.00    -0.131 C  
BRANCH  15  16
HETATM   16  C   UNL     1      -8.593  10.825  64.542  1.00  0.00    -0.050 A  
HETATM   17  C   UNL     1      -8.667  11.737  65.607  1.00  0.00     0.202 A  
HETATM   18  C   UNL     1      -9.581  12.795  65.588  1.00  0.00    -0.054 A  
HETATM   19  C   UNL     1     -10.428  12.960  64.493  1.00  0.00    -0.377 A  
HETATM   20  C   UNL     1      -9.430  11.029  63.432  1.00  0.00    -0.331 A  
HETATM   21  C   UNL     1     -10.353  12.080  63.410  1.00  0.00    -0.468 A  
BRANCH  19  22
HETATM   22  S   UNL     1     -11.703  14.199  64.555  1.00  0.00    -0.405 S  
HETATM   23  O   UNL     1     -12.495  14.059  63.347  1.00  0.00    -0.826 OA 
HETATM   24  O   UNL     1     -11.112  15.472  64.898  1.00  0.00    -0.409 OA 
BRANCH  22  25
HETATM   25  N   UNL     1     -12.707  13.706  65.785  1.00  0.00    -0.456 N  
HETATM   26  H   UNL     1     -13.714  13.739  65.623  1.00  0.00     0.000 HD 
BRANCH  25  27
HETATM   27  C   UNL     1     -12.260  13.254  67.014  1.00  0.00    -0.253 C  
HETATM   28  O   UNL     1     -12.156  12.074  67.291  1.00  0.00    -0.572 OA 
BRANCH  27  29
HETATM   29  N   UNL     1     -11.966  14.268  67.885  1.00  0.00    -0.501 N  
HETATM   30  H   UNL     1     -12.284  15.217  67.689  1.00  0.00     0.000 HD 
BRANCH  29  31
HETATM   31  C   UNL     1     -11.199  13.989  69.091  1.00  0.00    -0.269 C  
HETATM   32  C   UNL     1     -10.250  15.140  69.437  1.00  0.00    -0.244 C  
HETATM   33  C   UNL     1     -10.976  16.353  70.013  1.00  0.00    -0.322 C  
HETATM   34  C   UNL     1     -11.841  15.967  71.207  1.00  0.00    -0.502 C  
HETATM   35  C   UNL     1     -12.827  14.858  70.853  1.00  0.00    -0.432 C  
HETATM   36  C   UNL     1     -12.119  13.639  70.265  1.00  0.00    -0.427 C  
ENDBRANCH  29  31
ENDBRANCH  27  29
ENDBRANCH  25  27
ENDBRANCH  22  25
ENDBRANCH  19  22
ENDBRANCH  15  16
ENDBRANCH  14  15
ENDBRANCH  13  14
ENDBRANCH   4  10
ENDBRANCH   2   3
TORSDOF 10
ENDMDL
MODEL      190
REMARK 921   NORMALIZED FREE ENERGY PREDICTED BY IDOCK:   -4.79 KCAL/MOL
REMARK 922        TOTAL FREE ENERGY PREDICTED BY IDOCK:   -9.56 KCAL/MOL
REMARK 923 INTER-LIGAND FREE ENERGY PREDICTED BY IDOCK:   -7.89 KCAL/MOL
REMARK 924 INTRA-LIGAND FREE ENERGY PREDICTED BY IDOCK:   -1.67 KCAL/MOL
REMARK 927      BINDING AFFINITY PREDICTED BY RF-SCORE:    0.00 PKD
ROOT
HETATM    1  C   UNL     1     -12.960  13.614  71.796  1.00  0.00    -0.353 C  
HETATM    2  O   UNL     1     -12.437  12.760  70.780  1.00  0.00    -0.344 OA 
ENDROOT
BRANCH   2   3
HETATM    3  C   UNL     1     -12.526  11.415  71.029  1.00  0.00    -0.383 A  
HETATM    4  C   UNL     1     -11.926  10.506  70.131  1.00  0.00    -0.398 A  
HETATM    5  C   UNL     1     -12.027   9.125  70.380  1.00  0.00     0.018 A  
HETATM    6  C   UNL     1     -13.275  10.920  72.108  1.00  0.00    -0.333 A  
HETATM    7 CL   UNL     1     -12.914   6.966  71.733  1.00  0.00    -0.380 Cl 
HETATM    8  C   UNL     1     -13.401   9.547  72.321  1.00  0.00    -0.526 A  
HETATM    9  C   UNL     1     -12.767   8.658  71.464  1.00  0.00    -0.316 A  
BRANCH   4  10
HETATM   10  C   UNL     1     -11.170  10.975  68.922  1.00  0.00    -0.265 C  
HETATM   11  H   UNL     1      -9.372  10.281  69.725  1.00  0.00     0.000 HD 
HETATM   12  O   UNL     1     -11.722  11.576  68.009  1.00  0.00    -0.465 OA 
HETATM   13  N   UNL     1      -9.814  10.680  68.896  1.00  0.00    -0.194 N  
BRANCH  13  14
HETATM   14  C   UNL     1      -9.012  10.929  67.712  1.00  0.00    -0.139 C  
BRANCH  14  15
HETATM   15  C   UNL     1      -9.596  10.307  66.438  1.00  0.00    -0.233 C  
BRANCH  15  16
HETATM   16  C   UNL     1      -9.443   8.802  66.310  1.00  0.00    -0.300 A  
HETATM   17  C   UNL     1      -8.384   8.194  65.616  1.00  0.00    -0.148 A  
HETATM   18  C   UNL     1      -8.326   6.805  65.462  1.00  0.00    -0.143 A  
HETATM   19  C   UNL     1      -9.326   6.004  66.012  1.00  0.00    -0.076 A  
HETATM   20  C   UNL     1     -10.421   7.975  66.888  1.00  0.00    -0.387 A  
HETATM   21  C   UNL     1     -10.374   6.586  66.729  1.00  0.00    -0.279 A  
BRANCH  19  22
HETATM   22  S   UNL     1      -9.338   4.260  65.662  1.00  0.00    -0.175 S  
HETATM   23  O   UNL     1      -7.955   3.831  65.577  1.00  0.00    -0.092 OA 
HETATM   24  O   UNL     1     -10.252   4.000  64.573  1.00  0.00    -0.213 OA 
BRANCH  22  25
HETATM   25  N   UNL     1      -9.920   3.558  67.052  1.00  0.00    -0.254 N  
HETATM   26  H   UNL     1     -10.931   3.531  67.188  1.00  0.00     0.000 HD 
BRANCH  25  27
HETATM   27  C   UNL     1      -9.117   3.008  68.036  1.00  0.00    -0.179 C  
HETATM   28  O   UNL     1      -8.769   1.842  68.036  1.00  0.00    -0.072 OA 
BRANCH  27  29
HETATM   29  N   UNL     1      -8.772   3.904  69.010  1.00  0.00    -0.087 N  
HETATM   30  H   UNL     1      -7.882   4.400  68.957  1.00  0.00     0.000 HD 
BRANCH  29  31
HETATM   31  C   UNL     1      -9.678   4.148  70.125  1.00  0.00    -0.208 C  
HETATM   32  C   UNL     1      -8.939   4.133  71.467  1.00  0.00    -0.163 C  
HETATM   33  C   UNL     1      -8.101   5.388  71.695  1.00  0.00    -0.117 C  
HETATM   34  C   UNL     1      -8.937   6.652  71.532  1.00  0.00    -0.139 C  
HETATM   35  C   UNL     1      -9.631   6.698  70.175  1.00  0.00    -0.168 C  
HETATM   36  C   UNL     1     -10.467   5.445  69.925  1.00  0.00    -0.378 C  
ENDBRANCH  29  31
ENDBRANCH  27  29
ENDBRANCH  25  27
ENDBRANCH  22  25
ENDBRANCH  19  22
ENDBRANCH  15  16
ENDBRANCH  14  15
ENDBRANCH  13  14
ENDBRANCH   4  10
ENDBRANCH   2   3
TORSDOF 10
ENDMDL
MODEL      191
REMARK 921   NORMALIZED FREE ENERGY PREDICTED BY IDOCK:   -4.78 KCAL/MOL
REMARK 922        TOTAL FREE ENERGY PREDICTED BY IDOCK:   -9.54 KCAL/MOL
REMARK 923 INTER-LIGAND FREE ENERGY PREDICTED BY IDOCK:   -8.42 KCAL/MOL
REMARK 924 INTRA-LIGAND FREE ENERGY PREDICTED BY IDOCK:   -1.12 KCAL/MOL
REMARK 927      BINDING AFFINITY PREDICTED BY RF-SCORE:    0.00 PKD
ROOT
HETATM    1  C   UNL     1     -11.757  15.098  69.668  1.00  0.00    -0.327 C  
HETATM    2  O   UNL     1     -12.242  13.813  69.282  1.00  0.00    -0.337 OA 
ENDROOT
BRANCH   2   3
HETATM    3  C   UNL     1     -11.999  13.451  67.982  1.00  0.00    -0.322 A  
HETATM    4  C   UNL     1     -11.714  12.102  67.684  1.00  0.00    -0.386 A  
HETATM    5  C   UNL     1     -11.454  11.732  66.352  1.00  0.00    -0.309 A  
HETATM    6  C   UNL     1     -11.941  14.408  66.957  1.00  0.00    -0.424 A  
HETATM    7 CL   UNL     1     -11.054  12.236  63.731  1.00  0.00    -0.459 Cl 
HETATM    8  C   UNL     1     -11.642  14.035  65.647  1.00  0.00    -0.332 A  
HETATM    9  C   UNL     1     -11.412  12.698  65.349  1.00  0.00    -0.338 A  
BRANCH   4  10
HETATM   10  C   UNL     1     -11.695  11.046  68.750  1.00  0.00    -0.314 C  
HETATM   11  H   UNL     1     -13.244  11.995  69.778  1.00  0.00     0.000 HD 
HETATM   12  O   UNL     1     -10.880  10.132  68.739  1.00  0.00    -0.208 OA 
HETATM   13  N   UNL     1     -12.659  11.160  69.742  1.00  0.00    -0.152 N  
BRANCH  13  14
HETATM   14  C   UNL     1     -12.852  10.113  70.729  1.00  0.00    -0.308 C  
BRANCH  14  15
HETATM   15  C   UNL     1     -11.721  10.035  71.762  1.00  0.00    -0.079 C  
BRANCH  15  16
HETATM   16  C   UNL     1     -11.281   8.635  72.152  1.00  0.00    -0.438 A  
HETATM   17  C   UNL     1      -9.995   8.340  72.632  1.00  0.00    -0.357 A  
HETATM   18  C   UNL     1      -9.613   7.023  72.908  1.00  0.00    -0.174 A  
HETATM   19  C   UNL     1     -10.521   5.983  72.716  1.00  0.00    -0.216 A  
HETATM   20  C   UNL     1     -12.194   7.578  72.000  1.00  0.00    -0.314 A  
HETATM   21  C   UNL     1     -11.815   6.257  72.265  1.00  0.00    -0.326 A  
BRANCH  19  22
HETATM   22  S   UNL     1      -9.973   4.300  72.901  1.00  0.00    -0.154 S  
HETATM   23  O   UNL     1     -10.975   3.609  73.690  1.00  0.00    -0.218 OA 
HETATM   24  O   UNL     1      -8.588   4.295  73.310  1.00  0.00    -0.093 OA 
BRANCH  22  25
HETATM   25  N   UNL     1     -10.102   3.648  71.377  1.00  0.00    -0.083 N  
HETATM   26  H   UNL     1     -10.817   2.938  71.219  1.00  0.00     0.000 HD 
BRANCH  25  27
HETATM   27  C   UNL     1      -9.298   4.011  70.310  1.00  0.00    -0.163 C  
HETATM   28  O   UNL     1      -8.116   3.731  70.243  1.00  0.00    -0.050 OA 
BRANCH  27  29
HETATM   29  N   UNL     1      -9.964   4.729  69.355  1.00  0.00    -0.212 N  
HETATM   30  H   UNL     1     -10.488   4.245  68.625  1.00  0.00     0.000 HD 
BRANCH  29  31
HETATM   31  C   UNL     1      -9.924   6.185  69.382  1.00  0.00    -0.166 C  
HETATM   32  C   UNL     1      -8.557   6.721  68.945  1.00  0.00    -0.130 C  
HETATM   33  C   UNL     1      -8.330   6.606  67.440  1.00  0.00    -0.121 C  
HETATM   34  C   UNL     1      -9.463   7.259  66.656  1.00  0.00    -0.228 C  
HETATM   35  C   UNL     1     -10.822   6.689  67.048  1.00  0.00    -0.467 C  
HETATM   36  C   UNL     1     -11.062   6.787  68.553  1.00  0.00    -0.217 C  
ENDBRANCH  29  31
ENDBRANCH  27  29
ENDBRANCH  25  27
ENDBRANCH  22  25
ENDBRANCH  19  22
ENDBRANCH  15  16
ENDBRANCH  14  15
ENDBRANCH  13  14
ENDBRANCH   4  10
ENDBRANCH   2   3
TORSDOF 10
ENDMDL
MODEL      192
REMARK 921   NORMALIZED FREE ENERGY PREDICTED BY IDOCK:   -4.77 KCAL/MOL
REMARK 922        TOTAL FREE ENERGY PREDICTED BY IDOCK:   -9.53 KCAL/MOL
REMARK 923 INTER-LIGAND FREE ENERGY PREDICTED BY IDOCK:   -8.21 KCAL/MOL
REMARK 924 INTRA-LIGAND FREE ENERGY PREDICTED BY IDOCK:   -1.32 KCAL/MOL
REMARK 927      BINDING AFFINITY PREDICTED BY RF-SCORE:    0.00 PKD
ROOT
HETATM    1  C   UNL     1     -13.601  15.630  72.335  1.00  0.00    -0.524 C  
HETATM    2  O   UNL     1     -12.936  15.109  71.185  1.00  0.00    -0.354 OA 
ENDROOT
BRANCH   2   3
HETATM    3  C   UNL     1     -12.783  13.747  71.153  1.00  0.00    -0.362 A  
HETATM    4  C   UNL     1     -12.101  13.155  70.068  1.00  0.00    -0.375 A  
HETATM    5  C   UNL     1     -11.954  11.757  70.029  1.00  0.00    -0.421 A  
HETATM    6  C   UNL     1     -13.367  12.923  72.128  1.00  0.00    -0.615 A  
HETATM    7 CL   UNL     1     -12.377   9.249  70.932  1.00  0.00    -0.274 Cl 
HETATM    8  C   UNL     1     -13.248  11.535  72.057  1.00  0.00    -0.443 A  
HETATM    9  C   UNL     1     -12.533  10.960  71.015  1.00  0.00    -0.411 A  
BRANCH   4  10
HETATM   10  C   UNL     1     -11.515  13.981  68.961  1.00  0.00    -0.296 C  
HETATM   11  H   UNL     1      -9.720  12.920  69.062  1.00  0.00     0.000 HD 
HETATM   12  O   UNL     1     -12.130  14.910  68.453  1.00  0.00    -0.249 OA 
HETATM   13  N   UNL     1     -10.242  13.624  68.539  1.00  0.00    -0.240 N  
BRANCH  13  14
HETATM   14  C   UNL     1      -9.637  14.233  67.368  1.00  0.00    -0.214 C  
BRANCH  14  15
HETATM   15  C   UNL     1      -9.761  13.375  66.103  1.00  0.00    -0.260 C  
BRANCH  15  16
HETATM   16  C   UNL     1      -9.614  11.877  66.305  1.00  0.00    -0.243 A  
HETATM   17  C   UNL     1     -10.706  11.020  66.516  1.00  0.00    -0.298 A  
HETATM   18  C   UNL     1     -10.515   9.659  66.772  1.00  0.00    -0.257 A  
HETATM   19  C   UNL     1      -9.224   9.135  66.809  1.00  0.00    -0.155 A  
HETATM   20  C   UNL     1      -8.323  11.324  66.310  1.00  0.00    -0.142 A  
HETATM   21  C   UNL     1      -8.124   9.965  66.575  1.00  0.00    -0.117 A  
BRANCH  19  22
HETATM   22  S   UNL     1      -8.981   7.444  67.307  1.00  0.00    -0.126 S  
HETATM   23  O   UNL     1      -7.550   7.229  67.407  1.00  0.00    -0.100 OA 
HETATM   24  O   UNL     1      -9.794   6.584  66.477  1.00  0.00    -0.167 OA 
BRANCH  22  25
HETATM   25  N   UNL     1      -9.534   7.385  68.873  1.00  0.00    -0.145 N  
HETATM   26  H   UNL     1      -9.506   8.243  69.424  1.00  0.00     0.000 HD 
BRANCH  25  27
HETATM   27  C   UNL     1     -10.032   6.243  69.475  1.00  0.00    -0.164 C  
HETATM   28  O   UNL     1     -11.220   6.044  69.645  1.00  0.00    -0.394 OA 
BRANCH  27  29
HETATM   29  N   UNL     1      -9.052   5.375  69.873  1.00  0.00    -0.133 N  
HETATM   30  H   UNL     1      -8.549   4.820  69.181  1.00  0.00     0.000 HD 
BRANCH  29  31
HETATM   31  C   UNL     1      -8.729   5.245  71.287  1.00  0.00    -0.129 C  
HETATM   32  C   UNL     1      -9.751   4.374  72.023  1.00  0.00    -0.227 C  
HETATM   33  C   UNL     1      -9.596   2.887  71.711  1.00  0.00    -0.217 C  
HETATM   34  C   UNL     1      -8.171   2.412  71.966  1.00  0.00    -0.054 C  
HETATM   35  C   UNL     1      -7.152   3.242  71.192  1.00  0.00    -0.033 C  
HETATM   36  C   UNL     1      -7.299   4.733  71.485  1.00  0.00    -0.069 C  
ENDBRANCH  29  31
ENDBRANCH  27  29
ENDBRANCH  25  27
ENDBRANCH  22  25
ENDBRANCH  19  22
ENDBRANCH  15  16
ENDBRANCH  14  15
ENDBRANCH  13  14
ENDBRANCH   4  10
ENDBRANCH   2   3
TORSDOF 10
ENDMDL
MODEL      193
REMARK 921   NORMALIZED FREE ENERGY PREDICTED BY IDOCK:   -4.76 KCAL/MOL
REMARK 922        TOTAL FREE ENERGY PREDICTED BY IDOCK:   -9.52 KCAL/MOL
REMARK 923 INTER-LIGAND FREE ENERGY PREDICTED BY IDOCK:   -8.13 KCAL/MOL
REMARK 924 INTRA-LIGAND FREE ENERGY PREDICTED BY IDOCK:   -1.39 KCAL/MOL
REMARK 927      BINDING AFFINITY PREDICTED BY RF-SCORE:    0.00 PKD
ROOT
HETATM    1  C   UNL     1     -10.801   6.239  68.915  1.00  0.00    -0.333 C  
HETATM    2  O   UNL     1     -10.485   5.136  69.763  1.00  0.00    -0.285 OA 
ENDROOT
BRANCH   2   3
HETATM    3  C   UNL     1      -9.532   4.273  69.287  1.00  0.00    -0.184 A  
HETATM    4  C   UNL     1      -8.492   3.854  70.144  1.00  0.00    -0.091 A  
HETATM    5  C   UNL     1      -7.507   2.978  69.653  1.00  0.00    -0.044 A  
HETATM    6  C   UNL     1      -9.518   3.869  67.943  1.00  0.00    -0.227 A  
HETATM    7 CL   UNL     1      -6.288   1.541  67.721  1.00  0.00    -0.024 Cl 
HETATM    8  C   UNL     1      -8.514   3.032  67.458  1.00  0.00    -0.101 A  
HETATM    9  C   UNL     1      -7.521   2.582  68.317  1.00  0.00    -0.048 A  
BRANCH   4  10
HETATM   10  C   UNL     1      -8.415   4.309  71.572  1.00  0.00    -0.095 C  
HETATM   11  H   UNL     1      -7.749   6.197  70.980  1.00  0.00     0.000 HD 
HETATM   12  O   UNL     1      -8.663   3.554  72.504  1.00  0.00    -0.084 OA 
HETATM   13  N   UNL     1      -8.058   5.635  71.774  1.00  0.00    -0.117 N  
BRANCH  13  14
HETATM   14  C   UNL     1      -8.113   6.238  73.093  1.00  0.00    -0.110 C  
BRANCH  14  15
HETATM   15  C   UNL     1      -9.529   6.651  73.515  1.00  0.00    -0.175 C  
BRANCH  15  16
HETATM   16  C   UNL     1     -10.182   7.726  72.665  1.00  0.00    -0.340 A  
HETATM   17  C   UNL     1     -11.568   7.951  72.642  1.00  0.00    -0.435 A  
HETATM   18  C   UNL     1     -12.130   8.903  71.786  1.00  0.00    -0.432 A  
HETATM   19  C   UNL     1     -11.307   9.654  70.948  1.00  0.00    -0.360 A  
HETATM   20  C   UNL     1      -9.366   8.518  71.839  1.00  0.00    -0.337 A  
HETATM   21  C   UNL     1      -9.922   9.466  70.974  1.00  0.00    -0.334 A  
BRANCH  19  22
HETATM   22  S   UNL     1     -12.042  10.735  69.742  1.00  0.00    -0.285 S  
HETATM   23  O   UNL     1     -11.343  12.003  69.821  1.00  0.00    -0.225 OA 
HETATM   24  O   UNL     1     -13.480  10.684  69.872  1.00  0.00     0.158 OA 
BRANCH  22  25
HETATM   25  N   UNL     1     -11.597  10.091  68.275  1.00  0.00    -0.483 N  
HETATM   26  H   UNL     1     -12.026   9.212  67.988  1.00  0.00     0.000 HD 
BRANCH  25  27
HETATM   27  C   UNL     1     -10.679  10.677  67.420  1.00  0.00    -0.276 C  
HETATM   28  O   UNL     1      -9.499  10.379  67.406  1.00  0.00    -0.148 OA 
BRANCH  27  29
HETATM   29  N   UNL     1     -11.231  11.632  66.612  1.00  0.00    -0.310 N  
HETATM   30  H   UNL     1     -12.183  11.957  66.781  1.00  0.00     0.000 HD 
BRANCH  29  31
HETATM   31  C   UNL     1     -10.457  12.186  65.510  1.00  0.00    -0.265 C  
HETATM   32  C   UNL     1     -10.740  11.451  64.195  1.00  0.00    -0.434 C  
HETATM   33  C   UNL     1     -12.100  11.807  63.599  1.00  0.00    -0.486 C  
HETATM   34  C   UNL     1     -12.259  13.315  63.442  1.00  0.00    -0.476 C  
HETATM   35  C   UNL     1     -12.032  14.047  64.760  1.00  0.00    -0.432 C  
HETATM   36  C   UNL     1     -10.680  13.695  65.377  1.00  0.00    -0.311 C  
ENDBRANCH  29  31
ENDBRANCH  27  29
ENDBRANCH  25  27
ENDBRANCH  22  25
ENDBRANCH  19  22
ENDBRANCH  15  16
ENDBRANCH  14  15
ENDBRANCH  13  14
ENDBRANCH   4  10
ENDBRANCH   2   3
TORSDOF 10
ENDMDL
MODEL      194
REMARK 921   NORMALIZED FREE ENERGY PREDICTED BY IDOCK:   -4.76 KCAL/MOL
REMARK 922        TOTAL FREE ENERGY PREDICTED BY IDOCK:   -9.51 KCAL/MOL
REMARK 923 INTER-LIGAND FREE ENERGY PREDICTED BY IDOCK:   -8.34 KCAL/MOL
REMARK 924 INTRA-LIGAND FREE ENERGY PREDICTED BY IDOCK:   -1.17 KCAL/MOL
REMARK 927      BINDING AFFINITY PREDICTED BY RF-SCORE:    0.00 PKD
ROOT
HETATM    1  C   UNL     1     -12.133  13.325  66.226  1.00  0.00    -0.414 C  
HETATM    2  O   UNL     1     -11.265  13.120  67.340  1.00  0.00    -0.266 OA 
ENDROOT
BRANCH   2   3
HETATM    3  C   UNL     1     -11.614  13.772  68.494  1.00  0.00    -0.338 A  
HETATM    4  C   UNL     1     -11.982  13.018  69.628  1.00  0.00    -0.367 A  
HETATM    5  C   UNL     1     -12.351  13.687  70.809  1.00  0.00    -0.446 A  
HETATM    6  C   UNL     1     -11.699  15.173  68.544  1.00  0.00    -0.347 A  
HETATM    7 CL   UNL     1     -12.908  15.881  72.278  1.00  0.00    -0.508 Cl 
HETATM    8  C   UNL     1     -12.105  15.824  69.709  1.00  0.00    -0.298 A  
HETATM    9  C   UNL     1     -12.418  15.079  70.838  1.00  0.00    -0.345 A  
BRANCH   4  10
HETATM   10  C   UNL     1     -11.977  11.517  69.612  1.00  0.00    -0.339 C  
HETATM   11  H   UNL     1     -11.421  11.456  71.624  1.00  0.00     0.000 HD 
HETATM   12  O   UNL     1     -12.201  10.882  68.591  1.00  0.00    -0.533 OA 
HETATM   13  N   UNL     1     -11.714  10.894  70.825  1.00  0.00    -0.312 N  
BRANCH  13  14
HETATM   14  C   UNL     1     -11.847   9.456  70.976  1.00  0.00    -0.322 C  
BRANCH  14  15
HETATM   15  C   UNL     1     -11.815   8.992  72.438  1.00  0.00    -0.212 C  
BRANCH  15  16
HETATM   16  C   UNL     1     -11.364   7.560  72.665  1.00  0.00    -0.395 A  
HETATM   17  C   UNL     1     -10.116   7.226  73.215  1.00  0.00    -0.341 A  
HETATM   18  C   UNL     1      -9.716   5.892  73.335  1.00  0.00    -0.158 A  
HETATM   19  C   UNL     1     -10.568   4.871  72.916  1.00  0.00    -0.219 A  
HETATM   20  C   UNL     1     -12.224   6.517  72.282  1.00  0.00    -0.201 A  
HETATM   21  C   UNL     1     -11.826   5.180  72.391  1.00  0.00     0.154 A  
BRANCH  19  22
HETATM   22  S   UNL     1      -9.982   3.191  72.911  1.00  0.00    -0.146 S  
HETATM   23  O   UNL     1     -11.107   2.345  73.263  1.00  0.00    -0.171 OA 
HETATM   24  O   UNL     1      -8.748   3.116  73.658  1.00  0.00    -0.074 OA 
BRANCH  22  25
HETATM   25  N   UNL     1      -9.681   2.858  71.310  1.00  0.00    -0.158 N  
HETATM   26  H   UNL     1     -10.271   2.169  70.845  1.00  0.00     0.000 HD 
BRANCH  25  27
HETATM   27  C   UNL     1      -8.677   3.459  70.571  1.00  0.00    -0.075 C  
HETATM   28  O   UNL     1      -7.495   3.353  70.843  1.00  0.00    -0.037 OA 
BRANCH  27  29
HETATM   29  N   UNL     1      -9.151   4.196  69.520  1.00  0.00    -0.107 N  
HETATM   30  H   UNL     1      -9.328   3.748  68.621  1.00  0.00     0.000 HD 
BRANCH  29  31
HETATM   31  C   UNL     1      -9.404   5.621  69.688  1.00  0.00    -0.138 C  
HETATM   32  C   UNL     1      -8.282   6.469  69.081  1.00  0.00    -0.116 C  
HETATM   33  C   UNL     1      -8.324   6.501  67.555  1.00  0.00    -0.121 C  
HETATM   34  C   UNL     1      -9.692   6.940  67.047  1.00  0.00    -0.210 C  
HETATM   35  C   UNL     1     -10.808   6.063  67.605  1.00  0.00    -0.386 C  
HETATM   36  C   UNL     1     -10.776   6.011  69.131  1.00  0.00    -0.399 C  
ENDBRANCH  29  31
ENDBRANCH  27  29
ENDBRANCH  25  27
ENDBRANCH  22  25
ENDBRANCH  19  22
ENDBRANCH  15  16
ENDBRANCH  14  15
ENDBRANCH  13  14
ENDBRANCH   4  10
ENDBRANCH   2   3
TORSDOF 10
ENDMDL
MODEL      195
REMARK 921   NORMALIZED FREE ENERGY PREDICTED BY IDOCK:   -4.75 KCAL/MOL
REMARK 922        TOTAL FREE ENERGY PREDICTED BY IDOCK:   -9.50 KCAL/MOL
REMARK 923 INTER-LIGAND FREE ENERGY PREDICTED BY IDOCK:   -7.46 KCAL/MOL
REMARK 924 INTRA-LIGAND FREE ENERGY PREDICTED BY IDOCK:   -2.04 KCAL/MOL
REMARK 927      BINDING AFFINITY PREDICTED BY RF-SCORE:    0.00 PKD
ROOT
HETATM    1  C   UNL     1      -8.122   9.292  70.151  1.00  0.00    -0.145 C  
HETATM    2  O   UNL     1      -8.545   7.999  70.581  1.00  0.00    -0.125 OA 
ENDROOT
BRANCH   2   3
HETATM    3  C   UNL     1      -9.880   7.873  70.863  1.00  0.00    -0.178 A  
HETATM    4  C   UNL     1     -10.489   6.604  70.766  1.00  0.00    -0.251 A  
HETATM    5  C   UNL     1     -11.862   6.476  71.045  1.00  0.00    -0.390 A  
HETATM    6  C   UNL     1     -10.673   8.994  71.160  1.00  0.00    -0.358 A  
HETATM    7 CL   UNL     1     -14.311   7.435  71.649  1.00  0.00    -0.598 Cl 
HETATM    8  C   UNL     1     -12.041   8.860  71.395  1.00  0.00    -0.381 A  
HETATM    9  C   UNL     1     -12.626   7.602  71.348  1.00  0.00    -0.333 A  
BRANCH   4  10
HETATM   10  C   UNL     1      -9.707   5.381  70.385  1.00  0.00    -0.192 C  
HETATM   11  H   UNL     1     -10.042   5.747  68.357  1.00  0.00     0.000 HD 
HETATM   12  O   UNL     1      -9.236   4.628  71.228  1.00  0.00    -0.129 OA 
HETATM   13  N   UNL     1      -9.540   5.161  69.025  1.00  0.00    -0.134 N  
BRANCH  13  14
HETATM   14  C   UNL     1      -8.664   4.113  68.534  1.00  0.00    -0.098 C  
BRANCH  14  15
HETATM   15  C   UNL     1      -7.367   4.644  67.911  1.00  0.00    -0.066 C  
BRANCH  15  16
HETATM   16  C   UNL     1      -7.525   5.819  66.961  1.00  0.00    -0.081 A  
HETATM   17  C   UNL     1      -7.194   7.138  67.309  1.00  0.00    -0.086 A  
HETATM   18  C   UNL     1      -7.427   8.197  66.426  1.00  0.00    -0.087 A  
HETATM   19  C   UNL     1      -7.987   7.945  65.175  1.00  0.00    -0.132 A  
HETATM   20  C   UNL     1      -8.055   5.581  65.682  1.00  0.00    -0.118 A  
HETATM   21  C   UNL     1      -8.299   6.636  64.797  1.00  0.00    -0.010 A  
BRANCH  19  22
HETATM   22  S   UNL     1      -8.441   9.312  64.131  1.00  0.00    -0.186 S  
HETATM   23  O   UNL     1      -8.695   8.774  62.808  1.00  0.00    -0.173 OA 
HETATM   24  O   UNL     1      -7.491  10.385  64.314  1.00  0.00    -0.108 OA 
BRANCH  22  25
HETATM   25  N   UNL     1      -9.931   9.791  64.692  1.00  0.00    -0.365 N  
HETATM   26  H   UNL     1     -10.478   9.120  65.230  1.00  0.00     0.000 HD 
BRANCH  25  27
HETATM   27  C   UNL     1     -10.473  11.046  64.473  1.00  0.00    -0.342 C  
HETATM   28  O   UNL     1     -10.479  11.587  63.383  1.00  0.00    -0.373 OA 
BRANCH  27  29
HETATM   29  N   UNL     1     -10.982  11.616  65.608  1.00  0.00    -0.286 N  
HETATM   30  H   UNL     1     -11.982  11.805  65.681  1.00  0.00     0.000 HD 
BRANCH  29  31
HETATM   31  C   UNL     1     -10.093  11.955  66.711  1.00  0.00    -0.202 C  
HETATM   32  C   UNL     1      -9.976  13.471  66.899  1.00  0.00    -0.256 C  
HETATM   33  C   UNL     1     -11.222  14.085  67.533  1.00  0.00    -0.328 C  
HETATM   34  C   UNL     1     -11.582  13.387  68.839  1.00  0.00    -0.356 C  
HETATM   35  C   UNL     1     -11.753  11.884  68.646  1.00  0.00    -0.380 C  
HETATM   36  C   UNL     1     -10.520  11.253  68.003  1.00  0.00    -0.215 C  
ENDBRANCH  29  31
ENDBRANCH  27  29
ENDBRANCH  25  27
ENDBRANCH  22  25
ENDBRANCH  19  22
ENDBRANCH  15  16
ENDBRANCH  14  15
ENDBRANCH  13  14
ENDBRANCH   4  10
ENDBRANCH   2   3
TORSDOF 10
ENDMDL
MODEL      196
REMARK 921   NORMALIZED FREE ENERGY PREDICTED BY IDOCK:   -4.74 KCAL/MOL
REMARK 922        TOTAL FREE ENERGY PREDICTED BY IDOCK:   -9.49 KCAL/MOL
REMARK 923 INTER-LIGAND FREE ENERGY PREDICTED BY IDOCK:   -7.86 KCAL/MOL
REMARK 924 INTRA-LIGAND FREE ENERGY PREDICTED BY IDOCK:   -1.62 KCAL/MOL
REMARK 927      BINDING AFFINITY PREDICTED BY RF-SCORE:    0.00 PKD
ROOT
HETATM    1  C   UNL     1      -9.486  17.370  67.812  1.00  0.00    -0.261 C  
HETATM    2  O   UNL     1     -10.318  16.250  68.113  1.00  0.00    -0.258 OA 
ENDROOT
BRANCH   2   3
HETATM    3  C   UNL     1     -10.785  15.548  67.032  1.00  0.00    -0.321 A  
HETATM    4  C   UNL     1     -11.600  14.416  67.244  1.00  0.00    -0.401 A  
HETATM    5  C   UNL     1     -12.070  13.689  66.135  1.00  0.00    -0.477 A  
HETATM    6  C   UNL     1     -10.397  15.879  65.724  1.00  0.00    -0.396 A  
HETATM    7 CL   UNL     1     -12.232  13.122  63.502  1.00  0.00    -0.587 Cl 
HETATM    8  C   UNL     1     -10.837  15.126  64.635  1.00  0.00    -0.285 A  
HETATM    9  C   UNL     1     -11.680  14.043  64.845  1.00  0.00    -0.380 A  
BRANCH   4  10
HETATM   10  C   UNL     1     -11.992  13.974  68.624  1.00  0.00    -0.354 C  
HETATM   11  H   UNL     1     -11.734  11.970  68.100  1.00  0.00     0.000 HD 
HETATM   12  O   UNL     1     -12.344  14.773  69.482  1.00  0.00    -0.265 OA 
HETATM   13  N   UNL     1     -11.921  12.610  68.872  1.00  0.00    -0.286 N  
BRANCH  13  14
HETATM   14  C   UNL     1     -12.110  12.077  70.209  1.00  0.00    -0.312 C  
BRANCH  14  15
HETATM   15  C   UNL     1     -12.008  10.549  70.276  1.00  0.00    -0.411 C  
BRANCH  15  16
HETATM   16  C   UNL     1     -10.781   9.941  69.618  1.00  0.00    -0.277 A  
HETATM   17  C   UNL     1     -10.810   9.328  68.355  1.00  0.00    -0.125 A  
HETATM   18  C   UNL     1      -9.670   8.717  67.824  1.00  0.00    -0.202 A  
HETATM   19  C   UNL     1      -8.479   8.721  68.549  1.00  0.00    -0.130 A  
HETATM   20  C   UNL     1      -9.563   9.967  70.318  1.00  0.00    -0.184 A  
HETATM   21  C   UNL     1      -8.421   9.349  69.796  1.00  0.00    -0.170 A  
BRANCH  19  22
HETATM   22  S   UNL     1      -7.087   7.793  67.946  1.00  0.00    -0.088 S  
HETATM   23  O   UNL     1      -6.002   7.988  68.889  1.00  0.00    -0.037 OA 
HETATM   24  O   UNL     1      -6.897   8.079  66.543  1.00  0.00    -0.064 OA 
BRANCH  22  25
HETATM   25  N   UNL     1      -7.533   6.202  68.131  1.00  0.00    -0.088 N  
HETATM   26  H   UNL     1      -8.046   5.757  67.370  1.00  0.00     0.000 HD 
BRANCH  25  27
HETATM   27  C   UNL     1      -7.250   5.445  69.255  1.00  0.00    -0.065 C  
HETATM   28  O   UNL     1      -6.450   4.528  69.255  1.00  0.00    -0.034 OA 
BRANCH  27  29
HETATM   29  N   UNL     1      -7.975   5.822  70.352  1.00  0.00    -0.103 N  
HETATM   30  H   UNL     1      -7.498   6.171  71.184  1.00  0.00     0.000 HD 
BRANCH  29  31
HETATM   31  C   UNL     1      -9.428   5.724  70.331  1.00  0.00    -0.166 C  
HETATM   32  C   UNL     1      -9.895   4.272  70.194  1.00  0.00    -0.271 C  
HETATM   33  C   UNL     1      -9.723   3.470  71.482  1.00  0.00    -0.237 C  
HETATM   34  C   UNL     1     -10.395   4.164  72.661  1.00  0.00    -0.233 C  
HETATM   35  C   UNL     1      -9.893   5.593  72.836  1.00  0.00    -0.183 C  
HETATM   36  C   UNL     1     -10.048   6.407  71.553  1.00  0.00    -0.215 C  
ENDBRANCH  29  31
ENDBRANCH  27  29
ENDBRANCH  25  27
ENDBRANCH  22  25
ENDBRANCH  19  22
ENDBRANCH  15  16
ENDBRANCH  14  15
ENDBRANCH  13  14
ENDBRANCH   4  10
ENDBRANCH   2   3
TORSDOF 10
ENDMDL
MODEL      197
REMARK 921   NORMALIZED FREE ENERGY PREDICTED BY IDOCK:   -4.74 KCAL/MOL
REMARK 922        TOTAL FREE ENERGY PREDICTED BY IDOCK:   -9.48 KCAL/MOL
REMARK 923 INTER-LIGAND FREE ENERGY PREDICTED BY IDOCK:   -8.42 KCAL/MOL
REMARK 924 INTRA-LIGAND FREE ENERGY PREDICTED BY IDOCK:   -1.05 KCAL/MOL
REMARK 927      BINDING AFFINITY PREDICTED BY RF-SCORE:    0.00 PKD
ROOT
HETATM    1  C   UNL     1     -11.792  15.700  69.981  1.00  0.00    -0.367 C  
HETATM    2  O   UNL     1     -11.475  15.388  68.626  1.00  0.00    -0.309 OA 
ENDROOT
BRANCH   2   3
HETATM    3  C   UNL     1     -10.602  16.245  68.006  1.00  0.00    -0.308 A  
HETATM    4  C   UNL     1     -10.316  16.066  66.636  1.00  0.00    -0.299 A  
HETATM    5  C   UNL     1      -9.412  16.939  66.003  1.00  0.00    -0.227 A  
HETATM    6  C   UNL     1      -9.921  17.240  68.725  1.00  0.00    -0.325 A  
HETATM    7 CL   UNL     1      -7.624  18.960  65.955  1.00  0.00    -0.285 Cl 
HETATM    8  C   UNL     1      -8.997  18.073  68.095  1.00  0.00    -0.287 A  
HETATM    9  C   UNL     1      -8.756  17.926  66.736  1.00  0.00    -0.254 A  
BRANCH   4  10
HETATM   10  C   UNL     1     -10.962  14.977  65.831  1.00  0.00    -0.343 C  
HETATM   11  H   UNL     1      -9.633  13.563  66.601  1.00  0.00     0.000 HD 
HETATM   12  O   UNL     1     -11.877  15.206  65.051  1.00  0.00    -0.290 OA 
HETATM   13  N   UNL     1     -10.468  13.695  66.030  1.00  0.00    -0.294 N  
BRANCH  13  14
HETATM   14  C   UNL     1     -11.117  12.537  65.442  1.00  0.00    -0.302 C  
BRANCH  14  15
HETATM   15  C   UNL     1     -10.341  11.232  65.649  1.00  0.00    -0.310 C  
BRANCH  15  16
HETATM   16  C   UNL     1     -10.303  10.707  67.074  1.00  0.00    -0.280 A  
HETATM   17  C   UNL     1      -9.289   9.862  67.555  1.00  0.00    -0.159 A  
HETATM   18  C   UNL     1      -9.338   9.345  68.853  1.00  0.00    -0.154 A  
HETATM   19  C   UNL     1     -10.401   9.677  69.693  1.00  0.00    -0.227 A  
HETATM   20  C   UNL     1     -11.346  11.059  67.947  1.00  0.00    -0.381 A  
HETATM   21  C   UNL     1     -11.406  10.537  69.243  1.00  0.00    -0.325 A  
BRANCH  19  22
HETATM   22  S   UNL     1     -10.545   8.878  71.276  1.00  0.00    -0.310 S  
HETATM   23  O   UNL     1     -11.761   9.370  71.894  1.00  0.00    -0.374 OA 
HETATM   24  O   UNL     1      -9.282   8.970  71.971  1.00  0.00    -0.373 OA 
BRANCH  22  25
HETATM   25  N   UNL     1     -10.862   7.286  70.914  1.00  0.00    -0.239 N  
HETATM   26  H   UNL     1     -11.158   7.061  69.964  1.00  0.00     0.000 HD 
BRANCH  25  27
HETATM   27  C   UNL     1     -10.749   6.249  71.824  1.00  0.00    -0.236 C  
HETATM   28  O   UNL     1     -11.566   6.043  72.702  1.00  0.00    -0.279 OA 
BRANCH  27  29
HETATM   29  N   UNL     1      -9.621   5.497  71.643  1.00  0.00    -0.150 N  
HETATM   30  H   UNL     1      -9.136   5.102  72.449  1.00  0.00     0.000 HD 
BRANCH  29  31
HETATM   31  C   UNL     1      -9.113   5.261  70.298  1.00  0.00    -0.134 C  
HETATM   32  C   UNL     1      -7.586   5.141  70.284  1.00  0.00    -0.071 C  
HETATM   33  C   UNL     1      -7.092   3.812  70.851  1.00  0.00    -0.033 C  
HETATM   34  C   UNL     1      -7.752   2.630  70.152  1.00  0.00    -0.045 C  
HETATM   35  C   UNL     1      -9.274   2.717  70.211  1.00  0.00    -0.207 C  
HETATM   36  C   UNL     1      -9.786   4.044  69.657  1.00  0.00    -0.245 C  
ENDBRANCH  29  31
ENDBRANCH  27  29
ENDBRANCH  25  27
ENDBRANCH  22  25
ENDBRANCH  19  22
ENDBRANCH  15  16
ENDBRANCH  14  15
ENDBRANCH  13  14
ENDBRANCH   4  10
ENDBRANCH   2   3
TORSDOF 10
ENDMDL
MODEL      198
REMARK 921   NORMALIZED FREE ENERGY PREDICTED BY IDOCK:   -4.73 KCAL/MOL
REMARK 922        TOTAL FREE ENERGY PREDICTED BY IDOCK:   -9.46 KCAL/MOL
REMARK 923 INTER-LIGAND FREE ENERGY PREDICTED BY IDOCK:   -8.34 KCAL/MOL
REMARK 924 INTRA-LIGAND FREE ENERGY PREDICTED BY IDOCK:   -1.12 KCAL/MOL
REMARK 927      BINDING AFFINITY PREDICTED BY RF-SCORE:    0.00 PKD
ROOT
HETATM    1  C   UNL     1      -5.849  18.121  70.039  1.00  0.00    -0.212 C  
HETATM    2  O   UNL     1      -6.239  17.383  68.881  1.00  0.00    -0.180 OA 
ENDROOT
BRANCH   2   3
HETATM    3  C   UNL     1      -7.288  17.903  68.169  1.00  0.00    -0.241 A  
HETATM    4  C   UNL     1      -8.041  17.055  67.330  1.00  0.00    -0.203 A  
HETATM    5  C   UNL     1      -9.110  17.591  66.590  1.00  0.00    -0.287 A  
HETATM    6  C   UNL     1      -7.573  19.278  68.189  1.00  0.00    -0.325 A  
HETATM    7 CL   UNL     1     -10.668  19.604  65.694  1.00  0.00    -0.540 Cl 
HETATM    8  C   UNL     1      -8.611  19.804  67.420  1.00  0.00    -0.374 A  
HETATM    9  C   UNL     1      -9.381  18.957  66.634  1.00  0.00    -0.330 A  
BRANCH   4  10
HETATM   10  C   UNL     1      -7.738  15.589  67.216  1.00  0.00    -0.212 C  
HETATM   11  H   UNL     1      -9.726  15.104  67.632  1.00  0.00     0.000 HD 
HETATM   12  O   UNL     1      -6.604  15.178  67.009  1.00  0.00    -0.233 OA 
HETATM   13  N   UNL     1      -8.820  14.729  67.348  1.00  0.00    -0.182 N  
BRANCH  13  14
HETATM   14  C   UNL     1      -8.688  13.307  67.091  1.00  0.00    -0.212 C  
BRANCH  14  15
HETATM   15  C   UNL     1      -8.276  12.499  68.328  1.00  0.00    -0.168 C  
BRANCH  15  16
HETATM   16  C   UNL     1      -8.854  11.098  68.422  1.00  0.00    -0.157 A  
HETATM   17  C   UNL     1      -8.174  10.026  69.023  1.00  0.00    -0.124 A  
HETATM   18  C   UNL     1      -8.715   8.737  69.019  1.00  0.00    -0.133 A  
HETATM   19  C   UNL     1      -9.953   8.506  68.421  1.00  0.00    -0.187 A  
HETATM   20  C   UNL     1     -10.116  10.853  67.856  1.00  0.00    -0.199 A  
HETATM   21  C   UNL     1     -10.658   9.563  67.841  1.00  0.00    -0.299 A  
BRANCH  19  22
HETATM   22  S   UNL     1     -10.550   6.837  68.266  1.00  0.00    -0.237 S  
HETATM   23  O   UNL     1      -9.458   5.956  68.634  1.00  0.00    -0.120 OA 
HETATM   24  O   UNL     1     -11.214   6.686  66.992  1.00  0.00    -0.404 OA 
BRANCH  22  25
HETATM   25  N   UNL     1     -11.662   6.675  69.491  1.00  0.00    -0.657 N  
HETATM   26  H   UNL     1     -12.501   6.124  69.307  1.00  0.00     0.000 HD 
BRANCH  25  27
HETATM   27  C   UNL     1     -11.519   7.243  70.745  1.00  0.00    -0.299 C  
HETATM   28  O   UNL     1     -12.188   8.183  71.130  1.00  0.00    -0.300 OA 
BRANCH  27  29
HETATM   29  N   UNL     1     -10.540   6.650  71.494  1.00  0.00    -0.220 N  
HETATM   30  H   UNL     1      -9.733   7.194  71.802  1.00  0.00     0.000 HD 
BRANCH  29  31
HETATM   31  C   UNL     1     -10.651   5.242  71.852  1.00  0.00    -0.209 C  
HETATM   32  C   UNL     1      -9.296   4.531  71.776  1.00  0.00    -0.194 C  
HETATM   33  C   UNL     1      -8.372   4.894  72.935  1.00  0.00    -0.104 C  
HETATM   34  C   UNL     1      -9.050   4.661  74.280  1.00  0.00    -0.112 C  
HETATM   35  C   UNL     1     -10.373   5.411  74.382  1.00  0.00    -0.293 C  
HETATM   36  C   UNL     1     -11.308   5.068  73.224  1.00  0.00    -0.393 C  
ENDBRANCH  29  31
ENDBRANCH  27  29
ENDBRANCH  25  27
ENDBRANCH  22  25
ENDBRANCH  19  22
ENDBRANCH  15  16
ENDBRANCH  14  15
ENDBRANCH  13  14
ENDBRANCH   4  10
ENDBRANCH   2   3
TORSDOF 10
ENDMDL
MODEL      199
REMARK 921   NORMALIZED FREE ENERGY PREDICTED BY IDOCK:   -4.72 KCAL/MOL
REMARK 922        TOTAL FREE ENERGY PREDICTED BY IDOCK:   -9.45 KCAL/MOL
REMARK 923 INTER-LIGAND FREE ENERGY PREDICTED BY IDOCK:   -8.02 KCAL/MOL
REMARK 924 INTRA-LIGAND FREE ENERGY PREDICTED BY IDOCK:   -1.43 KCAL/MOL
REMARK 927      BINDING AFFINITY PREDICTED BY RF-SCORE:    0.00 PKD
ROOT
HETATM    1  C   UNL     1      -5.979   8.339  73.284  1.00  0.00    -0.073 C  
HETATM    2  O   UNL     1      -6.601   8.782  72.079  1.00  0.00    -0.085 OA 
ENDROOT
BRANCH   2   3
HETATM    3  C   UNL     1      -7.965   8.654  72.030  1.00  0.00    -0.054 A  
HETATM    4  C   UNL     1      -8.660   9.103  70.887  1.00  0.00    -0.259 A  
HETATM    5  C   UNL     1     -10.060   8.982  70.842  1.00  0.00    -0.329 A  
HETATM    6  C   UNL     1      -8.692   8.169  73.128  1.00  0.00    -0.307 A  
HETATM    7 CL   UNL     1     -12.475   8.381  71.885  1.00  0.00    -0.364 Cl 
HETATM    8  C   UNL     1     -10.084   8.091  73.087  1.00  0.00    -0.302 A  
HETATM    9  C   UNL     1     -10.760   8.487  71.941  1.00  0.00    -0.324 A  
BRANCH   4  10
HETATM   10  C   UNL     1      -7.941   9.695  69.710  1.00  0.00    -0.151 C  
HETATM   11  H   UNL     1      -7.613   7.797  68.903  1.00  0.00     0.000 HD 
HETATM   12  O   UNL     1      -7.740  10.899  69.614  1.00  0.00    -0.083 OA 
HETATM   13  N   UNL     1      -7.528   8.800  68.732  1.00  0.00    -0.083 N  
BRANCH  13  14
HETATM   14  C   UNL     1      -6.976   9.263  67.472  1.00  0.00    -0.078 C  
BRANCH  14  15
HETATM   15  C   UNL     1      -7.894   9.001  66.272  1.00  0.00    -0.099 C  
BRANCH  15  16
HETATM   16  C   UNL     1      -8.714  10.189  65.798  1.00  0.00    -0.166 A  
HETATM   17  C   UNL     1      -8.518  11.496  66.274  1.00  0.00    -0.108 A  
HETATM   18  C   UNL     1      -9.347  12.544  65.863  1.00  0.00    -0.039 A  
HETATM   19  C   UNL     1     -10.379  12.298  64.958  1.00  0.00    -0.291 A  
HETATM   20  C   UNL     1      -9.735   9.968  64.860  1.00  0.00    -0.377 A  
HETATM   21  C   UNL     1     -10.574  11.010  64.451  1.00  0.00    -0.395 A  
BRANCH  19  22
HETATM   22  S   UNL     1     -11.534  13.597  64.577  1.00  0.00    -0.385 S  
HETATM   23  O   UNL     1     -12.302  13.162  63.426  1.00  0.00    -0.705 OA 
HETATM   24  O   UNL     1     -10.836  14.861  64.556  1.00  0.00    -0.316 OA 
BRANCH  22  25
HETATM   25  N   UNL     1     -12.613  13.582  65.842  1.00  0.00    -0.431 N  
HETATM   26  H   UNL     1     -13.575  13.863  65.654  1.00  0.00     0.000 HD 
BRANCH  25  27
HETATM   27  C   UNL     1     -12.284  13.212  67.135  1.00  0.00    -0.191 C  
HETATM   28  O   UNL     1     -12.228  12.053  67.501  1.00  0.00    -0.490 OA 
BRANCH  27  29
HETATM   29  N   UNL     1     -12.048  14.281  67.956  1.00  0.00    -0.565 N  
HETATM   30  H   UNL     1     -12.818  14.884  68.244  1.00  0.00     0.000 HD 
BRANCH  29  31
HETATM   31  C   UNL     1     -10.694  14.556  68.417  1.00  0.00    -0.243 C  
HETATM   32  C   UNL     1     -10.154  15.867  67.836  1.00  0.00    -0.235 C  
HETATM   33  C   UNL     1     -10.774  17.102  68.486  1.00  0.00    -0.326 C  
HETATM   34  C   UNL     1     -10.630  17.063  70.002  1.00  0.00     0.176 C  
HETATM   35  C   UNL     1     -11.215  15.784  70.592  1.00  0.00    -0.395 C  
HETATM   36  C   UNL     1     -10.614  14.537  69.946  1.00  0.00     0.057 C  
ENDBRANCH  29  31
ENDBRANCH  27  29
ENDBRANCH  25  27
ENDBRANCH  22  25
ENDBRANCH  19  22
ENDBRANCH  15  16
ENDBRANCH  14  15
ENDBRANCH  13  14
ENDBRANCH   4  10
ENDBRANCH   2   3
TORSDOF 10
ENDMDL
MODEL      200
REMARK 921   NORMALIZED FREE ENERGY PREDICTED BY IDOCK:   -4.71 KCAL/MOL
REMARK 922        TOTAL FREE ENERGY PREDICTED BY IDOCK:   -9.44 KCAL/MOL
REMARK 923 INTER-LIGAND FREE ENERGY PREDICTED BY IDOCK:   -8.01 KCAL/MOL
REMARK 924 INTRA-LIGAND FREE ENERGY PREDICTED BY IDOCK:   -1.43 KCAL/MOL
REMARK 927      BINDING AFFINITY PREDICTED BY RF-SCORE:    0.00 PKD
ROOT
HETATM    1  C   UNL     1     -12.742  10.210  71.619  1.00  0.00    -0.447 C  
HETATM    2  O   UNL     1     -11.700   9.659  70.815  1.00  0.00    -0.281 OA 
ENDROOT
BRANCH   2   3
HETATM    3  C   UNL     1     -11.368   8.356  71.082  1.00  0.00    -0.268 A  
HETATM    4  C   UNL     1     -10.463   7.686  70.230  1.00  0.00    -0.224 A  
HETATM    5  C   UNL     1     -10.131   6.346  70.497  1.00  0.00    -0.221 A  
HETATM    6  C   UNL     1     -11.976   7.648  72.130  1.00  0.00    -0.344 A  
HETATM    7 CL   UNL     1     -10.352   4.017  71.842  1.00  0.00    -0.154 Cl 
HETATM    8  C   UNL     1     -11.668   6.307  72.361  1.00  0.00    -0.301 A  
HETATM    9  C   UNL     1     -10.740   5.667  71.551  1.00  0.00    -0.242 A  
BRANCH   4  10
HETATM   10  C   UNL     1      -9.835   8.372  69.053  1.00  0.00    -0.183 C  
HETATM   11  H   UNL     1     -11.622   8.260  67.980  1.00  0.00     0.000 HD 
HETATM   12  O   UNL     1      -8.651   8.686  69.044  1.00  0.00    -0.127 OA 
HETATM   13  N   UNL     1     -10.674   8.638  67.980  1.00  0.00    -0.136 N  
BRANCH  13  14
HETATM   14  C   UNL     1     -10.230   9.443  66.857  1.00  0.00    -0.248 C  
BRANCH  14  15
HETATM   15  C   UNL     1     -10.874  10.834  66.811  1.00  0.00    -0.256 C  
BRANCH  15  16
HETATM   16  C   UNL     1      -9.941  12.002  67.075  1.00  0.00    -0.218 A  
HETATM   17  C   UNL     1      -8.734  11.877  67.784  1.00  0.00    -0.158 A  
HETATM   18  C   UNL     1      -7.945  12.995  68.066  1.00  0.00    -0.155 A  
HETATM   19  C   UNL     1      -8.349  14.257  67.631  1.00  0.00    -0.181 A  
HETATM   20  C   UNL     1     -10.312  13.276  66.614  1.00  0.00    -0.274 A  
HETATM   21  C   UNL     1      -9.532  14.401  66.901  1.00  0.00    -0.268 A  
BRANCH  19  22
HETATM   22  S   UNL     1      -7.431  15.692  68.144  1.00  0.00    -0.130 S  
HETATM   23  O   UNL     1      -6.312  15.833  67.232  1.00  0.00    -0.250 OA 
HETATM   24  O   UNL     1      -7.209  15.629  69.571  1.00  0.00    -0.200 OA 
BRANCH  22  25
HETATM   25  N   UNL     1      -8.431  16.974  67.797  1.00  0.00    -0.196 N  
HETATM   26  H   UNL     1      -8.312  17.444  66.900  1.00  0.00     0.000 HD 
BRANCH  25  27
HETATM   27  C   UNL     1      -9.413  17.443  68.652  1.00  0.00    -0.280 C  
HETATM   28  O   UNL     1      -9.722  18.617  68.731  1.00  0.00    -0.360 OA 
BRANCH  27  29
HETATM   29  N   UNL     1      -9.982  16.455  69.409  1.00  0.00    -0.242 N  
HETATM   30  H   UNL     1      -9.414  15.678  69.746  1.00  0.00     0.000 HD 
BRANCH  29  31
HETATM   31  C   UNL     1     -11.402  16.515  69.731  1.00  0.00    -0.052 C  
HETATM   32  C   UNL     1     -12.216  15.535  68.881  1.00  0.00    -0.097 C  
HETATM   33  C   UNL     1     -12.038  14.083  69.318  1.00  0.00    -0.380 C  
HETATM   34  C   UNL     1     -12.331  13.910  70.803  1.00  0.00    -0.449 C  
HETATM   35  C   UNL     1     -11.482  14.846  71.658  1.00  0.00    -0.288 C  
HETATM   36  C   UNL     1     -11.640  16.303  71.228  1.00  0.00    -0.402 C  
ENDBRANCH  29  31
ENDBRANCH  27  29
ENDBRANCH  25  27
ENDBRANCH  22  25
ENDBRANCH  19  22
ENDBRANCH  15  16
ENDBRANCH  14  15
ENDBRANCH  13  14
ENDBRANCH   4  10
ENDBRANCH   2   3
TORSDOF 10
ENDMDL
MODEL      201
REMARK 921   NORMALIZED FREE ENERGY PREDICTED BY IDOCK:   -4.70 KCAL/MOL
REMARK 922        TOTAL FREE ENERGY PREDICTED BY IDOCK:   -9.41 KCAL/MOL
REMARK 923 INTER-LIGAND FREE ENERGY PREDICTED BY IDOCK:   -7.68 KCAL/MOL
REMARK 924 INTRA-LIGAND FREE ENERGY PREDICTED BY IDOCK:   -1.74 KCAL/MOL
REMARK 927      BINDING AFFINITY PREDICTED BY RF-SCORE:    0.00 PKD
ROOT
HETATM    1  C   UNL     1     -12.219   8.555  71.395  1.00  0.00    -0.304 C  
HETATM    2  O   UNL     1     -10.846   8.228  71.189  1.00  0.00    -0.224 OA 
ENDROOT
BRANCH   2   3
HETATM    3  C   UNL     1     -10.548   7.633  69.990  1.00  0.00    -0.238 A  
HETATM    4  C   UNL     1      -9.635   8.262  69.117  1.00  0.00    -0.160 A  
HETATM    5  C   UNL     1      -9.338   7.658  67.881  1.00  0.00    -0.146 A  
HETATM    6  C   UNL     1     -11.198   6.460  69.576  1.00  0.00    -0.477 A  
HETATM    7 CL   UNL     1      -9.643   5.782  65.966  1.00  0.00    -0.124 Cl 
HETATM    8  C   UNL     1     -10.925   5.892  68.332  1.00  0.00    -0.264 A  
HETATM    9  C   UNL     1      -9.989   6.487  67.496  1.00  0.00    -0.137 A  
BRANCH   4  10
HETATM   10  C   UNL     1      -8.961   9.554  69.477  1.00  0.00    -0.181 C  
HETATM   11  H   UNL     1      -7.206   8.544  69.987  1.00  0.00     0.000 HD 
HETATM   12  O   UNL     1      -9.553  10.625  69.432  1.00  0.00    -0.187 OA 
HETATM   13  N   UNL     1      -7.628   9.464  69.853  1.00  0.00    -0.093 N  
BRANCH  13  14
HETATM   14  C   UNL     1      -6.822  10.653  70.061  1.00  0.00    -0.148 C  
BRANCH  14  15
HETATM   15  C   UNL     1      -6.313  11.278  68.756  1.00  0.00    -0.051 C  
BRANCH  15  16
HETATM   16  C   UNL     1      -6.810  12.683  68.461  1.00  0.00    -0.090 A  
HETATM   17  C   UNL     1      -7.700  12.978  67.415  1.00  0.00    -0.159 A  
HETATM   18  C   UNL     1      -8.071  14.297  67.136  1.00  0.00    -0.154 A  
HETATM   19  C   UNL     1      -7.563  15.339  67.909  1.00  0.00    -0.139 A  
HETATM   20  C   UNL     1      -6.337  13.743  69.252  1.00  0.00    -0.110 A  
HETATM   21  C   UNL     1      -6.697  15.065  68.972  1.00  0.00    -0.116 A  
BRANCH  19  22
HETATM   22  S   UNL     1      -7.900  17.021  67.438  1.00  0.00    -0.176 S  
HETATM   23  O   UNL     1      -7.303  17.228  66.133  1.00  0.00    -0.295 OA 
HETATM   24  O   UNL     1      -7.573  17.897  68.539  1.00  0.00    -0.270 OA 
BRANCH  22  25
HETATM   25  N   UNL     1      -9.541  17.060  67.170  1.00  0.00    -0.248 N  
HETATM   26  H   UNL     1      -9.891  16.675  66.293  1.00  0.00     0.000 HD 
BRANCH  25  27
HETATM   27  C   UNL     1     -10.459  17.582  68.065  1.00  0.00    -0.387 C  
HETATM   28  O   UNL     1     -10.546  18.770  68.310  1.00  0.00    -0.311 OA 
BRANCH  27  29
HETATM   29  N   UNL     1     -11.239  16.625  68.653  1.00  0.00    -0.297 N  
HETATM   30  H   UNL     1     -12.181  16.448  68.306  1.00  0.00     0.000 HD 
BRANCH  29  31
HETATM   31  C   UNL     1     -10.720  15.857  69.778  1.00  0.00    -0.324 C  
HETATM   32  C   UNL     1     -11.526  16.113  71.056  1.00  0.00    -0.424 C  
HETATM   33  C   UNL     1     -12.891  15.430  71.042  1.00  0.00    -0.525 C  
HETATM   34  C   UNL     1     -12.763  13.939  70.752  1.00  0.00    -0.383 C  
HETATM   35  C   UNL     1     -12.009  13.680  69.452  1.00  0.00    -0.394 C  
HETATM   36  C   UNL     1     -10.644  14.365  69.444  1.00  0.00    -0.140 C  
ENDBRANCH  29  31
ENDBRANCH  27  29
ENDBRANCH  25  27
ENDBRANCH  22  25
ENDBRANCH  19  22
ENDBRANCH  15  16
ENDBRANCH  14  15
ENDBRANCH  13  14
ENDBRANCH   4  10
ENDBRANCH   2   3
TORSDOF 10
ENDMDL
MODEL      202
REMARK 921   NORMALIZED FREE ENERGY PREDICTED BY IDOCK:   -4.68 KCAL/MOL
REMARK 922        TOTAL FREE ENERGY PREDICTED BY IDOCK:   -9.39 KCAL/MOL
REMARK 923 INTER-LIGAND FREE ENERGY PREDICTED BY IDOCK:   -8.68 KCAL/MOL
REMARK 924 INTRA-LIGAND FREE ENERGY PREDICTED BY IDOCK:   -0.70 KCAL/MOL
REMARK 927      BINDING AFFINITY PREDICTED BY RF-SCORE:    0.00 PKD
ROOT
HETATM    1  C   UNL     1     -12.210  14.197  66.278  1.00  0.00    -0.449 C  
HETATM    2  O   UNL     1     -10.861  14.563  66.563  1.00  0.00    -0.303 OA 
ENDROOT
BRANCH   2   3
HETATM    3  C   UNL     1     -10.631  15.904  66.731  1.00  0.00    -0.309 A  
HETATM    4  C   UNL     1     -10.532  16.429  68.037  1.00  0.00    -0.303 A  
HETATM    5  C   UNL     1     -10.308  17.807  68.210  1.00  0.00    -0.387 A  
HETATM    6  C   UNL     1     -10.579  16.779  65.635  1.00  0.00    -0.258 A  
HETATM    7 CL   UNL     1     -10.013  20.342  67.334  1.00  0.00    -0.575 Cl 
HETATM    8  C   UNL     1     -10.396  18.149  65.820  1.00  0.00    -0.178 A  
HETATM    9  C   UNL     1     -10.250  18.654  67.105  1.00  0.00    -0.379 A  
BRANCH   4  10
HETATM   10  C   UNL     1     -10.648  15.553  69.250  1.00  0.00    -0.236 C  
HETATM   11  H   UNL     1     -12.667  16.040  69.461  1.00  0.00     0.000 HD 
HETATM   12  O   UNL     1      -9.682  14.962  69.714  1.00  0.00    -0.056 OA 
HETATM   13  N   UNL     1     -11.915  15.444  69.808  1.00  0.00    -0.343 N  
BRANCH  13  14
HETATM   14  C   UNL     1     -12.190  14.498  70.874  1.00  0.00    -0.339 C  
BRANCH  14  15
HETATM   15  C   UNL     1     -13.118  13.354  70.450  1.00  0.00     0.242 C  
BRANCH  15  16
HETATM   16  C   UNL     1     -12.632  11.954  70.781  1.00  0.00    -0.325 A  
HETATM   17  C   UNL     1     -13.221  11.151  71.772  1.00  0.00    -0.486 A  
HETATM   18  C   UNL     1     -12.691   9.897  72.092  1.00  0.00    -0.387 A  
HETATM   19  C   UNL     1     -11.568   9.425  71.414  1.00  0.00    -0.381 A  
HETATM   20  C   UNL     1     -11.523  11.446  70.084  1.00  0.00    -0.302 A  
HETATM   21  C   UNL     1     -10.983  10.196  70.406  1.00  0.00    -0.386 A  
BRANCH  19  22
HETATM   22  S   UNL     1     -10.798   7.912  71.947  1.00  0.00    -0.258 S  
HETATM   23  O   UNL     1     -11.862   6.963  72.213  1.00  0.00    -0.279 OA 
HETATM   24  O   UNL     1      -9.814   8.212  72.961  1.00  0.00    -0.280 OA 
BRANCH  22  25
HETATM   25  N   UNL     1     -10.034   7.331  70.590  1.00  0.00    -0.186 N  
HETATM   26  H   UNL     1      -9.055   7.579  70.448  1.00  0.00     0.000 HD 
BRANCH  25  27
HETATM   27  C   UNL     1     -10.646   6.530  69.641  1.00  0.00    -0.243 C  
HETATM   28  O   UNL     1     -11.852   6.491  69.481  1.00  0.00    -0.266 OA 
BRANCH  27  29
HETATM   29  N   UNL     1      -9.760   5.778  68.920  1.00  0.00    -0.130 N  
HETATM   30  H   UNL     1      -8.758   5.954  68.999  1.00  0.00     0.000 HD 
BRANCH  29  31
HETATM   31  C   UNL     1     -10.249   4.724  68.041  1.00  0.00     0.011 C  
HETATM   32  C   UNL     1     -10.374   5.210  66.593  1.00  0.00    -0.325 C  
HETATM   33  C   UNL     1      -9.022   5.353  65.898  1.00  0.00    -0.151 C  
HETATM   34  C   UNL     1      -8.214   4.063  65.986  1.00  0.00    -0.105 C  
HETATM   35  C   UNL     1      -8.039   3.605  67.430  1.00  0.00    -0.090 C  
HETATM   36  C   UNL     1      -9.382   3.467  68.145  1.00  0.00    -0.240 C  
ENDBRANCH  29  31
ENDBRANCH  27  29
ENDBRANCH  25  27
ENDBRANCH  22  25
ENDBRANCH  19  22
ENDBRANCH  15  16
ENDBRANCH  14  15
ENDBRANCH  13  14
ENDBRANCH   4  10
ENDBRANCH   2   3
TORSDOF 10
ENDMDL
MODEL      203
REMARK 921   NORMALIZED FREE ENERGY PREDICTED BY IDOCK:   -4.66 KCAL/MOL
REMARK 922        TOTAL FREE ENERGY PREDICTED BY IDOCK:   -9.35 KCAL/MOL
REMARK 923 INTER-LIGAND FREE ENERGY PREDICTED BY IDOCK:   -8.37 KCAL/MOL
REMARK 924 INTRA-LIGAND FREE ENERGY PREDICTED BY IDOCK:   -0.98 KCAL/MOL
REMARK 927      BINDING AFFINITY PREDICTED BY RF-SCORE:    0.00 PKD
ROOT
HETATM    1  C   UNL     1     -12.051  11.811  68.349  1.00  0.00    -0.029 C  
HETATM    2  O   UNL     1     -11.272  12.395  69.392  1.00  0.00    -0.229 OA 
ENDROOT
BRANCH   2   3
HETATM    3  C   UNL     1     -11.945  13.242  70.234  1.00  0.00    -0.300 A  
HETATM    4  C   UNL     1     -11.796  14.636  70.074  1.00  0.00    -0.363 A  
HETATM    5  C   UNL     1     -12.477  15.506  70.945  1.00  0.00    -0.494 A  
HETATM    6  C   UNL     1     -12.708  12.753  71.306  1.00  0.00    -0.364 A  
HETATM    7 CL   UNL     1     -14.034  16.072  73.075  1.00  0.00    -0.505 Cl 
HETATM    8  C   UNL     1     -13.347  13.625  72.187  1.00  0.00    -0.587 A  
HETATM    9  C   UNL     1     -13.237  14.996  71.995  1.00  0.00    -0.364 A  
BRANCH   4  10
HETATM   10  C   UNL     1     -10.938  15.217  68.988  1.00  0.00    -0.254 C  
HETATM   11  H   UNL     1     -12.406  14.821  67.558  1.00  0.00     0.000 HD 
HETATM   12  O   UNL     1      -9.805  15.625  69.210  1.00  0.00    -0.231 OA 
HETATM   13  N   UNL     1     -11.507  15.274  67.723  1.00  0.00    -0.329 N  
BRANCH  13  14
HETATM   14  C   UNL     1     -10.846  15.965  66.631  1.00  0.00    -0.213 C  
BRANCH  14  15
HETATM   15  C   UNL     1     -10.634  15.085  65.393  1.00  0.00    -0.398 C  
BRANCH  15  16
HETATM   16  C   UNL     1     -10.245  13.643  65.668  1.00  0.00    -0.316 A  
HETATM   17  C   UNL     1      -9.207  13.281  66.543  1.00  0.00    -0.182 A  
HETATM   18  C   UNL     1      -8.837  11.943  66.707  1.00  0.00    -0.193 A  
HETATM   19  C   UNL     1      -9.511  10.945  66.003  1.00  0.00    -0.203 A  
HETATM   20  C   UNL     1     -10.936  12.621  64.996  1.00  0.00    -0.323 A  
HETATM   21  C   UNL     1     -10.564  11.281  65.148  1.00  0.00    -0.343 A  
BRANCH  19  22
HETATM   22  S   UNL     1      -8.920   9.269  66.083  1.00  0.00    -0.178 S  
HETATM   23  O   UNL     1      -7.938   9.213  67.150  1.00  0.00    -0.104 OA 
HETATM   24  O   UNL     1      -8.582   8.821  64.752  1.00  0.00    -0.174 OA 
BRANCH  22  25
HETATM   25  N   UNL     1     -10.217   8.395  66.648  1.00  0.00    -0.336 N  
HETATM   26  H   UNL     1     -11.126   8.856  66.684  1.00  0.00     0.000 HD 
BRANCH  25  27
HETATM   27  C   UNL     1     -10.137   7.080  67.073  1.00  0.00    -0.229 C  
HETATM   28  O   UNL     1     -10.648   6.154  66.470  1.00  0.00    -0.215 OA 
BRANCH  27  29
HETATM   29  N   UNL     1      -9.444   6.935  68.243  1.00  0.00    -0.127 N  
HETATM   30  H   UNL     1      -9.737   7.443  69.077  1.00  0.00     0.000 HD 
BRANCH  29  31
HETATM   31  C   UNL     1      -8.286   6.052  68.296  1.00  0.00    -0.110 C  
HETATM   32  C   UNL     1      -7.639   6.051  69.685  1.00  0.00    -0.089 C  
HETATM   33  C   UNL     1      -8.453   5.271  70.715  1.00  0.00    -0.123 C  
HETATM   34  C   UNL     1      -8.746   3.855  70.234  1.00  0.00    -0.123 C  
HETATM   35  C   UNL     1      -9.439   3.852  68.876  1.00  0.00    -0.234 C  
HETATM   36  C   UNL     1      -8.645   4.637  67.834  1.00  0.00    -0.106 C  
ENDBRANCH  29  31
ENDBRANCH  27  29
ENDBRANCH  25  27
ENDBRANCH  22  25
ENDBRANCH  19  22
ENDBRANCH  15  16
ENDBRANCH  14  15
ENDBRANCH  13  14
ENDBRANCH   4  10
ENDBRANCH   2   3
TORSDOF 10
ENDMDL
MODEL      204
REMARK 921   NORMALIZED FREE ENERGY PREDICTED BY IDOCK:   -4.65 KCAL/MOL
REMARK 922        TOTAL FREE ENERGY PREDICTED BY IDOCK:   -9.34 KCAL/MOL
REMARK 923 INTER-LIGAND FREE ENERGY PREDICTED BY IDOCK:   -7.68 KCAL/MOL
REMARK 924 INTRA-LIGAND FREE ENERGY PREDICTED BY IDOCK:   -1.67 KCAL/MOL
REMARK 927      BINDING AFFINITY PREDICTED BY RF-SCORE:    0.00 PKD
ROOT
HETATM    1  C   UNL     1      -7.901   8.653  71.191  1.00  0.00    -0.117 C  
HETATM    2  O   UNL     1      -8.477   7.405  71.575  1.00  0.00    -0.111 OA 
ENDROOT
BRANCH   2   3
HETATM    3  C   UNL     1      -9.847   7.368  71.611  1.00  0.00    -0.165 A  
HETATM    4  C   UNL     1     -10.524   6.282  71.017  1.00  0.00    -0.274 A  
HETATM    5  C   UNL     1     -11.930   6.250  71.044  1.00  0.00    -0.138 A  
HETATM    6  C   UNL     1     -10.592   8.431  72.146  1.00  0.00    -0.400 A  
HETATM    7 CL   UNL     1     -14.367   7.275  71.582  1.00  0.00    -0.588 Cl 
HETATM    8  C   UNL     1     -11.987   8.406  72.131  1.00  0.00    -0.438 A  
HETATM    9  C   UNL     1     -12.648   7.311  71.591  1.00  0.00    -0.368 A  
BRANCH   4  10
HETATM   10  C   UNL     1      -9.782   5.150  70.369  1.00  0.00    -0.202 C  
HETATM   11  H   UNL     1     -10.947   5.319  68.644  1.00  0.00     0.000 HD 
HETATM   12  O   UNL     1      -8.907   4.530  70.959  1.00  0.00    -0.109 OA 
HETATM   13  N   UNL     1     -10.138   4.856  69.059  1.00  0.00    -0.173 N  
BRANCH  13  14
HETATM   14  C   UNL     1      -9.382   3.901  68.270  1.00  0.00    -0.164 C  
BRANCH  14  15
HETATM   15  C   UNL     1      -8.609   4.544  67.112  1.00  0.00    -0.104 C  
BRANCH  15  16
HETATM   16  C   UNL     1      -8.592   6.063  67.095  1.00  0.00    -0.106 A  
HETATM   17  C   UNL     1      -9.590   6.835  66.478  1.00  0.00    -0.191 A  
HETATM   18  C   UNL     1      -9.492   8.229  66.424  1.00  0.00    -0.287 A  
HETATM   19  C   UNL     1      -8.395   8.870  66.998  1.00  0.00    -0.106 A  
HETATM   20  C   UNL     1      -7.513   6.729  67.699  1.00  0.00    -0.098 A  
HETATM   21  C   UNL     1      -7.404   8.122  67.639  1.00  0.00    -0.093 A  
BRANCH  19  22
HETATM   22  S   UNL     1      -8.191  10.623  66.771  1.00  0.00    -0.135 S  
HETATM   23  O   UNL     1      -9.292  11.078  65.944  1.00  0.00    -0.190 OA 
HETATM   24  O   UNL     1      -6.826  10.896  66.386  1.00  0.00    -0.125 OA 
BRANCH  22  25
HETATM   25  N   UNL     1      -8.484  11.276  68.272  1.00  0.00    -0.145 N  
HETATM   26  H   UNL     1      -7.682  11.557  68.836  1.00  0.00     0.000 HD 
BRANCH  25  27
HETATM   27  C   UNL     1      -9.749  11.460  68.801  1.00  0.00    -0.145 C  
HETATM   28  O   UNL     1     -10.449  10.543  69.188  1.00  0.00    -0.202 OA 
BRANCH  27  29
HETATM   29  N   UNL     1     -10.134  12.772  68.826  1.00  0.00    -0.421 N  
HETATM   30  H   UNL     1      -9.431  13.512  68.835  1.00  0.00     0.000 HD 
BRANCH  29  31
HETATM   31  C   UNL     1     -11.551  13.112  68.840  1.00  0.00    -0.311 C  
HETATM   32  C   UNL     1     -12.025  13.502  70.244  1.00  0.00    -0.386 C  
HETATM   33  C   UNL     1     -11.547  14.889  70.666  1.00  0.00    -0.341 C  
HETATM   34  C   UNL     1     -11.928  15.945  69.635  1.00  0.00    -0.272 C  
HETATM   35  C   UNL     1     -11.411  15.589  68.246  1.00  0.00    -0.359 C  
HETATM   36  C   UNL     1     -11.871  14.199  67.810  1.00  0.00    -0.414 C  
ENDBRANCH  29  31
ENDBRANCH  27  29
ENDBRANCH  25  27
ENDBRANCH  22  25
ENDBRANCH  19  22
ENDBRANCH  15  16
ENDBRANCH  14  15
ENDBRANCH  13  14
ENDBRANCH   4  10
ENDBRANCH   2   3
TORSDOF 10
ENDMDL
MODEL      205
REMARK 921   NORMALIZED FREE ENERGY PREDICTED BY IDOCK:   -4.64 KCAL/MOL
REMARK 922        TOTAL FREE ENERGY PREDICTED BY IDOCK:   -9.32 KCAL/MOL
REMARK 923 INTER-LIGAND FREE ENERGY PREDICTED BY IDOCK:   -7.06 KCAL/MOL
REMARK 924 INTRA-LIGAND FREE ENERGY PREDICTED BY IDOCK:   -2.27 KCAL/MOL
REMARK 927      BINDING AFFINITY PREDICTED BY RF-SCORE:    0.00 PKD
ROOT
HETATM    1  C   UNL     1     -10.575   6.991  68.316  1.00  0.00    -0.196 C  
HETATM    2  O   UNL     1      -9.387   7.629  67.851  1.00  0.00    -0.139 OA 
ENDROOT
BRANCH   2   3
HETATM    3  C   UNL     1      -9.564   8.580  66.880  1.00  0.00    -0.197 A  
HETATM    4  C   UNL     1      -8.809   8.501  65.690  1.00  0.00    -0.214 A  
HETATM    5  C   UNL     1      -8.981   9.483  64.699  1.00  0.00    -0.266 A  
HETATM    6  C   UNL     1     -10.414   9.680  67.080  1.00  0.00    -0.317 A  
HETATM    7 CL   UNL     1     -10.011  11.773  63.710  1.00  0.00    -0.360 Cl 
HETATM    8  C   UNL     1     -10.547  10.669  66.106  1.00  0.00    -0.211 A  
HETATM    9  C   UNL     1      -9.839  10.559  64.916  1.00  0.00    -0.315 A  
BRANCH   4  10
HETATM   10  C   UNL     1      -7.833   7.386  65.450  1.00  0.00    -0.118 C  
HETATM   11  H   UNL     1      -9.392   6.041  65.102  1.00  0.00     0.000 HD 
HETATM   12  O   UNL     1      -6.626   7.548  65.567  1.00  0.00    -0.044 OA 
HETATM   13  N   UNL     1      -8.380   6.165  65.077  1.00  0.00    -0.136 N  
BRANCH  13  14
HETATM   14  C   UNL     1      -7.538   5.061  64.654  1.00  0.00    -0.078 C  
BRANCH  14  15
HETATM   15  C   UNL     1      -7.850   3.745  65.376  1.00  0.00    -0.089 C  
BRANCH  15  16
HETATM   16  C   UNL     1      -8.062   3.851  66.876  1.00  0.00    -0.096 A  
HETATM   17  C   UNL     1      -9.237   3.425  67.518  1.00  0.00    -0.231 A  
HETATM   18  C   UNL     1      -9.415   3.612  68.892  1.00  0.00    -0.218 A  
HETATM   19  C   UNL     1      -8.412   4.219  69.645  1.00  0.00    -0.068 A  
HETATM   20  C   UNL     1      -7.048   4.427  67.658  1.00  0.00    -0.064 A  
HETATM   21  C   UNL     1      -7.224   4.625  69.032  1.00  0.00    -0.053 A  
BRANCH  19  22
HETATM   22  S   UNL     1      -8.718   4.610  71.354  1.00  0.00    -0.121 S  
HETATM   23  O   UNL     1      -8.309   5.987  71.558  1.00  0.00    -0.124 OA 
HETATM   24  O   UNL     1      -8.182   3.557  72.185  1.00  0.00    -0.070 OA 
BRANCH  22  25
HETATM   25  N   UNL     1     -10.375   4.631  71.488  1.00  0.00    -0.151 N  
HETATM   26  H   UNL     1     -10.911   3.988  70.905  1.00  0.00     0.000 HD 
BRANCH  25  27
HETATM   27  C   UNL     1     -11.071   5.468  72.343  1.00  0.00    -0.256 C  
HETATM   28  O   UNL     1     -11.408   5.141  73.466  1.00  0.00    -0.296 OA 
BRANCH  27  29
HETATM   29  N   UNL     1     -11.354   6.686  71.789  1.00  0.00    -0.265 N  
HETATM   30  H   UNL     1     -11.671   6.746  70.821  1.00  0.00     0.000 HD 
BRANCH  29  31
HETATM   31  C   UNL     1     -11.204   7.897  72.584  1.00  0.00    -0.398 C  
HETATM   32  C   UNL     1      -9.972   8.703  72.158  1.00  0.00    -0.386 C  
HETATM   33  C   UNL     1     -10.171   9.433  70.832  1.00  0.00    -0.373 C  
HETATM   34  C   UNL     1     -11.423  10.301  70.859  1.00  0.00    -0.425 C  
HETATM   35  C   UNL     1     -12.662   9.493  71.229  1.00  0.00    -0.416 C  
HETATM   36  C   UNL     1     -12.478   8.747  72.548  1.00  0.00    -0.368 C  
ENDBRANCH  29  31
ENDBRANCH  27  29
ENDBRANCH  25  27
ENDBRANCH  22  25
ENDBRANCH  19  22
ENDBRANCH  15  16
ENDBRANCH  14  15
ENDBRANCH  13  14
ENDBRANCH   4  10
ENDBRANCH   2   3
TORSDOF 10
ENDMDL
MODEL      206
REMARK 921   NORMALIZED FREE ENERGY PREDICTED BY IDOCK:   -4.62 KCAL/MOL
REMARK 922        TOTAL FREE ENERGY PREDICTED BY IDOCK:   -9.29 KCAL/MOL
REMARK 923 INTER-LIGAND FREE ENERGY PREDICTED BY IDOCK:   -8.19 KCAL/MOL
REMARK 924 INTRA-LIGAND FREE ENERGY PREDICTED BY IDOCK:   -1.10 KCAL/MOL
REMARK 927      BINDING AFFINITY PREDICTED BY RF-SCORE:    0.00 PKD
ROOT
HETATM    1  C   UNL     1     -12.767  12.922  65.045  1.00  0.00    -0.404 C  
HETATM    2  O   UNL     1     -11.374  12.990  64.745  1.00  0.00    -0.300 OA 
ENDROOT
BRANCH   2   3
HETATM    3  C   UNL     1     -10.549  12.285  65.583  1.00  0.00    -0.260 A  
HETATM    4  C   UNL     1      -9.478  12.950  66.217  1.00  0.00    -0.205 A  
HETATM    5  C   UNL     1      -8.624  12.224  67.067  1.00  0.00    -0.191 A  
HETATM    6  C   UNL     1     -10.694  10.899  65.754  1.00  0.00    -0.179 A  
HETATM    7 CL   UNL     1      -7.720   9.970  68.243  1.00  0.00    -0.084 Cl 
HETATM    8  C   UNL     1      -9.817  10.183  66.569  1.00  0.00    -0.268 A  
HETATM    9  C   UNL     1      -8.795  10.851  67.230  1.00  0.00    -0.134 A  
BRANCH   4  10
HETATM   10  C   UNL     1      -9.232  14.417  66.017  1.00  0.00    -0.035 C  
HETATM   11  H   UNL     1      -7.704  14.397  67.440  1.00  0.00     0.000 HD 
HETATM   12  O   UNL     1      -9.918  15.089  65.258  1.00  0.00    -0.341 OA 
HETATM   13  N   UNL     1      -8.177  14.963  66.735  1.00  0.00    -0.138 N  
BRANCH  13  14
HETATM   14  C   UNL     1      -7.733  16.326  66.502  1.00  0.00    -0.225 C  
BRANCH  14  15
HETATM   15  C   UNL     1      -8.561  17.374  67.255  1.00  0.00    -0.223 C  
BRANCH  15  16
HETATM   16  C   UNL     1      -9.489  16.832  68.329  1.00  0.00    -0.240 A  
HETATM   17  C   UNL     1      -9.031  16.148  69.467  1.00  0.00    -0.004 A  
HETATM   18  C   UNL     1      -9.928  15.604  70.390  1.00  0.00     0.246 A  
HETATM   19  C   UNL     1     -11.301  15.747  70.191  1.00  0.00    -0.355 A  
HETATM   20  C   UNL     1     -10.874  16.998  68.164  1.00  0.00    -0.338 A  
HETATM   21  C   UNL     1     -11.778  16.447  69.080  1.00  0.00    -0.054 A  
BRANCH  19  22
HETATM   22  S   UNL     1     -12.433  14.903  71.273  1.00  0.00    -0.362 S  
HETATM   23  O   UNL     1     -13.765  15.096  70.733  1.00  0.00    -0.324 OA 
HETATM   24  O   UNL     1     -12.139  15.262  72.641  1.00  0.00    -0.366 OA 
BRANCH  22  25
HETATM   25  N   UNL     1     -12.107  13.289  71.043  1.00  0.00    -0.444 N  
HETATM   26  H   UNL     1     -12.119  12.677  71.859  1.00  0.00     0.000 HD 
BRANCH  25  27
HETATM   27  C   UNL     1     -11.822  12.725  69.811  1.00  0.00    -0.310 C  
HETATM   28  O   UNL     1     -12.208  13.197  68.758  1.00  0.00    -0.255 OA 
BRANCH  27  29
HETATM   29  N   UNL     1     -11.080  11.580  69.904  1.00  0.00    -0.478 N  
HETATM   30  H   UNL     1     -10.082  11.632  70.107  1.00  0.00     0.000 HD 
BRANCH  29  31
HETATM   31  C   UNL     1     -11.719  10.285  69.713  1.00  0.00    -0.191 C  
HETATM   32  C   UNL     1     -10.734   9.131  69.928  1.00  0.00    -0.246 C  
HETATM   33  C   UNL     1     -10.401   8.903  71.400  1.00  0.00    -0.377 C  
HETATM   34  C   UNL     1     -11.665   8.721  72.233  1.00  0.00    -0.398 C  
HETATM   35  C   UNL     1     -12.625   9.893  72.065  1.00  0.00    -0.410 C  
HETATM   36  C   UNL     1     -12.962  10.143  70.596  1.00  0.00    -0.296 C  
ENDBRANCH  29  31
ENDBRANCH  27  29
ENDBRANCH  25  27
ENDBRANCH  22  25
ENDBRANCH  19  22
ENDBRANCH  15  16
ENDBRANCH  14  15
ENDBRANCH  13  14
ENDBRANCH   4  10
ENDBRANCH   2   3
TORSDOF 10
ENDMDL
MODEL      207
REMARK 921   NORMALIZED FREE ENERGY PREDICTED BY IDOCK:   -4.61 KCAL/MOL
REMARK 922        TOTAL FREE ENERGY PREDICTED BY IDOCK:   -9.28 KCAL/MOL
REMARK 923 INTER-LIGAND FREE ENERGY PREDICTED BY IDOCK:   -8.00 KCAL/MOL
REMARK 924 INTRA-LIGAND FREE ENERGY PREDICTED BY IDOCK:   -1.28 KCAL/MOL
REMARK 927      BINDING AFFINITY PREDICTED BY RF-SCORE:    0.00 PKD
ROOT
HETATM    1  C   UNL     1      -9.601   8.047  66.578  1.00  0.00    -0.226 C  
HETATM    2  O   UNL     1     -10.000   8.818  67.710  1.00  0.00    -0.172 OA 
ENDROOT
BRANCH   2   3
HETATM    3  C   UNL     1     -10.523  10.055  67.434  1.00  0.00    -0.260 A  
HETATM    4  C   UNL     1     -11.076  10.820  68.482  1.00  0.00    -0.317 A  
HETATM    5  C   UNL     1     -11.623  12.084  68.197  1.00  0.00    -0.403 A  
HETATM    6  C   UNL     1     -10.601  10.537  66.118  1.00  0.00    -0.182 A  
HETATM    7 CL   UNL     1     -12.386  14.077  66.546  1.00  0.00    -0.480 Cl 
HETATM    8  C   UNL     1     -11.182  11.774  65.842  1.00  0.00    -0.345 A  
HETATM    9  C   UNL     1     -11.680  12.546  66.884  1.00  0.00    -0.377 A  
BRANCH   4  10
HETATM   10  C   UNL     1     -11.084  10.326  69.900  1.00  0.00    -0.304 C  
HETATM   11  H   UNL     1     -13.111  10.788  70.094  1.00  0.00     0.000 HD 
HETATM   12  O   UNL     1     -10.066   9.925  70.449  1.00  0.00    -0.267 OA 
HETATM   13  N   UNL     1     -12.312  10.342  70.546  1.00  0.00    -0.293 N  
BRANCH  13  14
HETATM   14  C   UNL     1     -12.483   9.735  71.854  1.00  0.00    -0.366 C  
BRANCH  14  15
HETATM   15  C   UNL     1     -13.122   8.342  71.800  1.00  0.00    -0.366 C  
BRANCH  15  16
HETATM   16  C   UNL     1     -12.202   7.211  71.373  1.00  0.00    -0.399 A  
HETATM   17  C   UNL     1     -11.464   6.435  72.282  1.00  0.00    -0.339 A  
HETATM   18  C   UNL     1     -10.574   5.454  71.836  1.00  0.00    -0.288 A  
HETATM   19  C   UNL     1     -10.419   5.229  70.469  1.00  0.00    -0.242 A  
HETATM   20  C   UNL     1     -12.059   6.944  70.001  1.00  0.00    -0.023 A  
HETATM   21  C   UNL     1     -11.163   5.970  69.548  1.00  0.00    -0.416 A  
BRANCH  19  22
HETATM   22  S   UNL     1      -9.160   4.104  69.907  1.00  0.00    -0.128 S  
HETATM   23  O   UNL     1      -9.571   2.770  70.301  1.00  0.00    -0.143 OA 
HETATM   24  O   UNL     1      -7.863   4.613  70.291  1.00  0.00    -0.056 OA 
BRANCH  22  25
HETATM   25  N   UNL     1      -9.292   4.122  68.250  1.00  0.00    -0.148 N  
HETATM   26  H   UNL     1      -9.689   4.952  67.810  1.00  0.00     0.000 HD 
BRANCH  25  27
HETATM   27  C   UNL     1      -8.894   3.079  67.431  1.00  0.00    -0.139 C  
HETATM   28  O   UNL     1      -7.933   2.373  67.673  1.00  0.00    -0.063 OA 
BRANCH  27  29
HETATM   29  N   UNL     1      -9.680   2.939  66.320  1.00  0.00    -0.379 N  
HETATM   30  H   UNL     1     -10.332   2.158  66.250  1.00  0.00     0.000 HD 
BRANCH  29  31
HETATM   31  C   UNL     1      -9.583   3.909  65.237  1.00  0.00    -0.185 C  
HETATM   32  C   UNL     1      -8.214   3.856  64.552  1.00  0.00    -0.094 C  
HETATM   33  C   UNL     1      -8.047   2.632  63.655  1.00  0.00    -0.081 C  
HETATM   34  C   UNL     1      -9.182   2.526  62.643  1.00  0.00    -0.090 C  
HETATM   35  C   UNL     1     -10.547   2.523  63.324  1.00  0.00    -0.209 C  
HETATM   36  C   UNL     1     -10.727   3.736  64.234  1.00  0.00    -0.216 C  
ENDBRANCH  29  31
ENDBRANCH  27  29
ENDBRANCH  25  27
ENDBRANCH  22  25
ENDBRANCH  19  22
ENDBRANCH  15  16
ENDBRANCH  14  15
ENDBRANCH  13  14
ENDBRANCH   4  10
ENDBRANCH   2   3
TORSDOF 10
ENDMDL
MODEL      208
REMARK 921   NORMALIZED FREE ENERGY PREDICTED BY IDOCK:   -4.61 KCAL/MOL
REMARK 922        TOTAL FREE ENERGY PREDICTED BY IDOCK:   -9.27 KCAL/MOL
REMARK 923 INTER-LIGAND FREE ENERGY PREDICTED BY IDOCK:   -7.94 KCAL/MOL
REMARK 924 INTRA-LIGAND FREE ENERGY PREDICTED BY IDOCK:   -1.33 KCAL/MOL
REMARK 927      BINDING AFFINITY PREDICTED BY RF-SCORE:    0.00 PKD
ROOT
HETATM    1  C   UNL     1     -10.604   7.558  67.068  1.00  0.00    -0.339 C  
HETATM    2  O   UNL     1     -11.058   6.793  68.183  1.00  0.00    -0.218 OA 
ENDROOT
BRANCH   2   3
HETATM    3  C   UNL     1     -10.486   5.556  68.329  1.00  0.00    -0.157 A  
HETATM    4  C   UNL     1     -10.055   5.142  69.608  1.00  0.00    -0.332 A  
HETATM    5  C   UNL     1      -9.457   3.878  69.756  1.00  0.00    -0.264 A  
HETATM    6  C   UNL     1     -10.238   4.731  67.221  1.00  0.00    -0.157 A  
HETATM    7 CL   UNL     1      -8.464   1.544  68.835  1.00  0.00    -0.074 Cl 
HETATM    8  C   UNL     1      -9.608   3.496  67.375  1.00  0.00    -0.172 A  
HETATM    9  C   UNL     1      -9.231   3.071  68.642  1.00  0.00    -0.170 A  
BRANCH   4  10
HETATM   10  C   UNL     1     -10.231   6.012  70.818  1.00  0.00    -0.204 C  
HETATM   11  H   UNL     1      -8.615   7.205  70.248  1.00  0.00     0.000 HD 
HETATM   12  O   UNL     1     -11.080   5.773  71.667  1.00  0.00    -0.265 OA 
HETATM   13  N   UNL     1      -9.381   7.106  70.914  1.00  0.00    -0.160 N  
BRANCH  13  14
HETATM   14  C   UNL     1      -9.563   8.112  71.945  1.00  0.00    -0.201 C  
BRANCH  14  15
HETATM   15  C   UNL     1     -10.823   8.963  71.750  1.00  0.00    -0.436 C  
BRANCH  15  16
HETATM   16  C   UNL     1     -10.859   9.809  70.489  1.00  0.00    -0.387 A  
HETATM   17  C   UNL     1     -12.035  10.387  69.985  1.00  0.00    -0.324 A  
HETATM   18  C   UNL     1     -12.030  11.096  68.780  1.00  0.00    -0.337 A  
HETATM   19  C   UNL     1     -10.840  11.246  68.068  1.00  0.00    -0.218 A  
HETATM   20  C   UNL     1      -9.663  10.002  69.777  1.00  0.00    -0.259 A  
HETATM   21  C   UNL     1      -9.653  10.702  68.566  1.00  0.00    -0.175 A  
BRANCH  19  22
HETATM   22  S   UNL     1     -10.877  11.996  66.455  1.00  0.00    -0.291 S  
HETATM   23  O   UNL     1      -9.956  13.116  66.484  1.00  0.00    -0.255 OA 
HETATM   24  O   UNL     1     -12.251  12.188  66.052  1.00  0.00    -0.609 OA 
BRANCH  22  25
HETATM   25  N   UNL     1     -10.159  10.877  65.457  1.00  0.00    -0.254 N  
HETATM   26  H   UNL     1     -10.101   9.912  65.782  1.00  0.00     0.000 HD 
BRANCH  25  27
HETATM   27  C   UNL     1      -9.635  11.175  64.211  1.00  0.00    -0.252 C  
HETATM   28  O   UNL     1     -10.306  11.611  63.294  1.00  0.00    -0.390 OA 
BRANCH  27  29
HETATM   29  N   UNL     1      -8.296  10.913  64.114  1.00  0.00    -0.370 N  
HETATM   30  H   UNL     1      -7.651  11.284  64.813  1.00  0.00     0.000 HD 
BRANCH  29  31
HETATM   31  C   UNL     1      -7.793  10.103  63.013  1.00  0.00    -0.149 C  
HETATM   32  C   UNL     1      -6.283  10.282  62.824  1.00  0.00    -0.139 C  
HETATM   33  C   UNL     1      -5.464   9.574  63.901  1.00  0.00    -0.067 C  
HETATM   34  C   UNL     1      -5.842   8.101  64.008  1.00  0.00    -0.061 C  
HETATM   35  C   UNL     1      -7.337   7.920  64.250  1.00  0.00    -0.088 C  
HETATM   36  C   UNL     1      -8.173   8.631  63.188  1.00  0.00    -0.170 C  
ENDBRANCH  29  31
ENDBRANCH  27  29
ENDBRANCH  25  27
ENDBRANCH  22  25
ENDBRANCH  19  22
ENDBRANCH  15  16
ENDBRANCH  14  15
ENDBRANCH  13  14
ENDBRANCH   4  10
ENDBRANCH   2   3
TORSDOF 10
ENDMDL
MODEL      209
REMARK 921   NORMALIZED FREE ENERGY PREDICTED BY IDOCK:   -4.61 KCAL/MOL
REMARK 922        TOTAL FREE ENERGY PREDICTED BY IDOCK:   -9.27 KCAL/MOL
REMARK 923 INTER-LIGAND FREE ENERGY PREDICTED BY IDOCK:   -8.23 KCAL/MOL
REMARK 924 INTRA-LIGAND FREE ENERGY PREDICTED BY IDOCK:   -1.03 KCAL/MOL
REMARK 927      BINDING AFFINITY PREDICTED BY RF-SCORE:    0.00 PKD
ROOT
HETATM    1  C   UNL     1      -9.616   6.435  68.622  1.00  0.00    -0.120 C  
HETATM    2  O   UNL     1      -9.756   6.799  69.995  1.00  0.00    -0.163 OA 
ENDROOT
BRANCH   2   3
HETATM    3  C   UNL     1     -10.058   5.775  70.855  1.00  0.00    -0.199 A  
HETATM    4  C   UNL     1     -10.881   6.032  71.972  1.00  0.00    -0.300 A  
HETATM    5  C   UNL     1     -11.181   4.984  72.861  1.00  0.00    -0.344 A  
HETATM    6  C   UNL     1      -9.494   4.499  70.696  1.00  0.00    -0.240 A  
HETATM    7 CL   UNL     1     -10.964   2.461  73.794  1.00  0.00    -0.273 Cl 
HETATM    8  C   UNL     1      -9.768   3.478  71.607  1.00  0.00    -0.234 A  
HETATM    9  C   UNL     1     -10.618   3.722  72.677  1.00  0.00    -0.072 A  
BRANCH   4  10
HETATM   10  C   UNL     1     -11.456   7.393  72.230  1.00  0.00    -0.288 C  
HETATM   11  H   UNL     1     -12.633   7.269  70.510  1.00  0.00     0.000 HD 
HETATM   12  O   UNL     1     -11.087   8.082  73.173  1.00  0.00    -0.334 OA 
HETATM   13  N   UNL     1     -12.436   7.822  71.345  1.00  0.00    -0.323 N  
BRANCH  13  14
HETATM   14  C   UNL     1     -13.186   9.041  71.584  1.00  0.00    -0.371 C  
BRANCH  14  15
HETATM   15  C   UNL     1     -12.304  10.293  71.668  1.00  0.00    -0.445 C  
BRANCH  15  16
HETATM   16  C   UNL     1     -12.134  11.066  70.372  1.00  0.00    -0.463 A  
HETATM   17  C   UNL     1     -11.885  10.448  69.135  1.00  0.00    -0.135 A  
HETATM   18  C   UNL     1     -11.661  11.207  67.983  1.00  0.00    -0.288 A  
HETATM   19  C   UNL     1     -11.695  12.600  68.052  1.00  0.00    -0.350 A  
HETATM   20  C   UNL     1     -12.200  12.469  70.414  1.00  0.00    -0.368 A  
HETATM   21  C   UNL     1     -11.967  13.234  69.266  1.00  0.00    -0.354 A  
BRANCH  19  22
HETATM   22  S   UNL     1     -11.237  13.556  66.623  1.00  0.00    -0.321 S  
HETATM   23  O   UNL     1     -11.944  14.819  66.709  1.00  0.00    -0.327 OA 
HETATM   24  O   UNL     1     -11.354  12.731  65.442  1.00  0.00    -0.288 OA 
BRANCH  22  25
HETATM   25  N   UNL     1      -9.639  13.941  66.871  1.00  0.00    -0.259 N  
HETATM   26  H   UNL     1      -9.337  14.892  66.658  1.00  0.00     0.000 HD 
BRANCH  25  27
HETATM   27  C   UNL     1      -8.694  13.050  67.350  1.00  0.00    -0.205 C  
HETATM   28  O   UNL     1      -8.326  13.030  68.510  1.00  0.00    -0.139 OA 
BRANCH  27  29
HETATM   29  N   UNL     1      -8.207  12.213  66.384  1.00  0.00    -0.395 N  
HETATM   30  H   UNL     1      -7.798  12.599  65.532  1.00  0.00     0.000 HD 
BRANCH  29  31
HETATM   31  C   UNL     1      -8.274  10.770  66.573  1.00  0.00    -0.148 C  
HETATM   32  C   UNL     1      -8.324  10.027  65.235  1.00  0.00    -0.157 C  
HETATM   33  C   UNL     1      -6.977  10.009  64.516  1.00  0.00    -0.136 C  
HETATM   34  C   UNL     1      -5.875   9.463  65.417  1.00  0.00    -0.058 C  
HETATM   35  C   UNL     1      -5.784  10.236  66.728  1.00  0.00    -0.051 C  
HETATM   36  C   UNL     1      -7.126  10.273  67.456  1.00  0.00    -0.086 C  
ENDBRANCH  29  31
ENDBRANCH  27  29
ENDBRANCH  25  27
ENDBRANCH  22  25
ENDBRANCH  19  22
ENDBRANCH  15  16
ENDBRANCH  14  15
ENDBRANCH  13  14
ENDBRANCH   4  10
ENDBRANCH   2   3
TORSDOF 10
ENDMDL
MODEL      210
REMARK 921   NORMALIZED FREE ENERGY PREDICTED BY IDOCK:   -4.59 KCAL/MOL
REMARK 922        TOTAL FREE ENERGY PREDICTED BY IDOCK:   -9.25 KCAL/MOL
REMARK 923 INTER-LIGAND FREE ENERGY PREDICTED BY IDOCK:   -7.61 KCAL/MOL
REMARK 924 INTRA-LIGAND FREE ENERGY PREDICTED BY IDOCK:   -1.63 KCAL/MOL
REMARK 927      BINDING AFFINITY PREDICTED BY RF-SCORE:    0.00 PKD
ROOT
HETATM    1  C   UNL     1     -12.760  16.290  72.987  1.00  0.00    -0.343 C  
HETATM    2  O   UNL     1     -12.163  15.901  71.751  1.00  0.00    -0.411 OA 
ENDROOT
BRANCH   2   3
HETATM    3  C   UNL     1     -12.310  14.582  71.408  1.00  0.00    -0.356 A  
HETATM    4  C   UNL     1     -11.740  14.114  70.205  1.00  0.00    -0.328 A  
HETATM    5  C   UNL     1     -11.901  12.763  69.847  1.00  0.00    -0.371 A  
HETATM    6  C   UNL     1     -13.092  13.709  72.182  1.00  0.00    -0.489 A  
HETATM    7 CL   UNL     1     -12.892  10.274  70.166  1.00  0.00    -0.150 Cl 
HETATM    8  C   UNL     1     -13.278  12.382  71.795  1.00  0.00    -0.435 A  
HETATM    9  C   UNL     1     -12.672  11.913  70.637  1.00  0.00    -0.091 A  
BRANCH   4  10
HETATM   10  C   UNL     1     -10.952  15.018  69.303  1.00  0.00    -0.264 C  
HETATM   11  H   UNL     1      -9.159  14.393  70.172  1.00  0.00     0.000 HD 
HETATM   12  O   UNL     1     -11.497  15.769  68.505  1.00  0.00    -0.356 OA 
HETATM   13  N   UNL     1      -9.570  14.945  69.419  1.00  0.00    -0.127 N  
BRANCH  13  14
HETATM   14  C   UNL     1      -8.698  15.640  68.490  1.00  0.00    -0.182 C  
BRANCH  14  15
HETATM   15  C   UNL     1      -8.203  14.754  67.340  1.00  0.00    -0.216 C  
BRANCH  15  16
HETATM   16  C   UNL     1      -8.191  13.261  67.618  1.00  0.00    -0.179 A  
HETATM   17  C   UNL     1      -9.007  12.346  66.933  1.00  0.00    -0.212 A  
HETATM   18  C   UNL     1      -9.015  10.991  67.275  1.00  0.00    -0.138 A  
HETATM   19  C   UNL     1      -8.194  10.530  68.304  1.00  0.00    -0.117 A  
HETATM   20  C   UNL     1      -7.344  12.772  68.626  1.00  0.00    -0.099 A  
HETATM   21  C   UNL     1      -7.354  11.419  68.980  1.00  0.00    -0.108 A  
BRANCH  19  22
HETATM   22  S   UNL     1      -8.339   8.843  68.848  1.00  0.00    -0.123 S  
HETATM   23  O   UNL     1      -6.996   8.297  68.910  1.00  0.00    -0.063 OA 
HETATM   24  O   UNL     1      -9.362   8.180  68.072  1.00  0.00    -0.136 OA 
BRANCH  22  25
HETATM   25  N   UNL     1      -8.831   8.954  70.432  1.00  0.00    -0.164 N  
HETATM   26  H   UNL     1      -9.754   9.343  70.620  1.00  0.00     0.000 HD 
BRANCH  25  27
HETATM   27  C   UNL     1      -8.063   8.550  71.510  1.00  0.00    -0.151 C  
HETATM   28  O   UNL     1      -7.094   9.170  71.906  1.00  0.00    -0.314 OA 
BRANCH  27  29
HETATM   29  N   UNL     1      -8.495   7.377  72.068  1.00  0.00    -0.105 N  
HETATM   30  H   UNL     1      -8.308   6.490  71.601  1.00  0.00     0.000 HD 
BRANCH  29  31
HETATM   31  C   UNL     1      -9.223   7.399  73.329  1.00  0.00    -0.186 C  
HETATM   32  C   UNL     1     -10.736   7.496  73.107  1.00  0.00    -0.452 C  
HETATM   33  C   UNL     1     -11.347   6.185  72.619  1.00  0.00    -0.298 C  
HETATM   34  C   UNL     1     -10.992   5.027  73.545  1.00  0.00    -0.393 C  
HETATM   35  C   UNL     1      -9.484   4.893  73.726  1.00  0.00    -0.130 C  
HETATM   36  C   UNL     1      -8.853   6.198  74.204  1.00  0.00    -0.128 C  
ENDBRANCH  29  31
ENDBRANCH  27  29
ENDBRANCH  25  27
ENDBRANCH  22  25
ENDBRANCH  19  22
ENDBRANCH  15  16
ENDBRANCH  14  15
ENDBRANCH  13  14
ENDBRANCH   4  10
ENDBRANCH   2   3
TORSDOF 10
ENDMDL
MODEL      211
REMARK 921   NORMALIZED FREE ENERGY PREDICTED BY IDOCK:   -4.59 KCAL/MOL
REMARK 922        TOTAL FREE ENERGY PREDICTED BY IDOCK:   -9.24 KCAL/MOL
REMARK 923 INTER-LIGAND FREE ENERGY PREDICTED BY IDOCK:   -7.61 KCAL/MOL
REMARK 924 INTRA-LIGAND FREE ENERGY PREDICTED BY IDOCK:   -1.63 KCAL/MOL
REMARK 927      BINDING AFFINITY PREDICTED BY RF-SCORE:    0.00 PKD
ROOT
HETATM    1  C   UNL     1     -13.538  13.597  72.400  1.00  0.00    -0.602 C  
HETATM    2  O   UNL     1     -13.133  13.197  71.092  1.00  0.00    -0.239 OA 
ENDROOT
BRANCH   2   3
HETATM    3  C   UNL     1     -12.652  11.918  70.982  1.00  0.00    -0.283 A  
HETATM    4  C   UNL     1     -11.899  11.560  69.844  1.00  0.00    -0.430 A  
HETATM    5  C   UNL     1     -11.415  10.244  69.725  1.00  0.00    -0.320 A  
HETATM    6  C   UNL     1     -12.969  10.935  71.933  1.00  0.00    -0.502 A  
HETATM    7 CL   UNL     1     -11.168   7.674  70.509  1.00  0.00    -0.277 Cl 
HETATM    8  C   UNL     1     -12.517   9.624  71.784  1.00  0.00    -0.487 A  
HETATM    9  C   UNL     1     -11.734   9.288  70.688  1.00  0.00    -0.222 A  
BRANCH   4  10
HETATM   10  C   UNL     1     -11.587  12.551  68.761  1.00  0.00    -0.322 C  
HETATM   11  H   UNL     1      -9.669  12.849  69.528  1.00  0.00     0.000 HD 
HETATM   12  O   UNL     1     -12.422  12.881  67.928  1.00  0.00    -0.026 OA 
HETATM   13  N   UNL     1     -10.297  13.062  68.752  1.00  0.00    -0.182 N  
BRANCH  13  14
HETATM   14  C   UNL     1      -9.823  13.895  67.661  1.00  0.00    -0.236 C  
BRANCH  14  15
HETATM   15  C   UNL     1      -9.921  13.216  66.290  1.00  0.00    -0.285 C  
BRANCH  15  16
HETATM   16  C   UNL     1      -9.388  11.795  66.219  1.00  0.00    -0.235 A  
HETATM   17  C   UNL     1      -8.090  11.441  66.619  1.00  0.00    -0.155 A  
HETATM   18  C   UNL     1      -7.620  10.134  66.465  1.00  0.00    -0.109 A  
HETATM   19  C   UNL     1      -8.451   9.158  65.915  1.00  0.00    -0.141 A  
HETATM   20  C   UNL     1     -10.223  10.791  65.701  1.00  0.00    -0.320 A  
HETATM   21  C   UNL     1      -9.755   9.483  65.535  1.00  0.00    -0.344 A  
BRANCH  19  22
HETATM   22  S   UNL     1      -7.788   7.545  65.562  1.00  0.00    -0.121 S  
HETATM   23  O   UNL     1      -7.070   7.109  66.744  1.00  0.00    -0.074 OA 
HETATM   24  O   UNL     1      -7.131   7.574  64.275  1.00  0.00    -0.057 OA 
BRANCH  22  25
HETATM   25  N   UNL     1      -9.120   6.554  65.480  1.00  0.00    -0.372 N  
HETATM   26  H   UNL     1      -9.518   6.362  64.561  1.00  0.00     0.000 HD 
BRANCH  25  27
HETATM   27  C   UNL     1      -9.721   5.974  66.583  1.00  0.00    -0.157 C  
HETATM   28  O   UNL     1     -10.827   6.290  66.982  1.00  0.00    -0.323 OA 
BRANCH  27  29
HETATM   29  N   UNL     1      -8.939   5.027  67.185  1.00  0.00    -0.112 N  
HETATM   30  H   UNL     1      -7.985   4.870  66.860  1.00  0.00     0.000 HD 
BRANCH  29  31
HETATM   31  C   UNL     1      -9.471   4.243  68.292  1.00  0.00    -0.154 C  
HETATM   32  C   UNL     1      -9.409   2.740  68.001  1.00  0.00    -0.257 C  
HETATM   33  C   UNL     1      -7.994   2.175  68.101  1.00  0.00    -0.063 C  
HETATM   34  C   UNL     1      -7.356   2.510  69.444  1.00  0.00    -0.044 C  
HETATM   35  C   UNL     1      -7.366   4.011  69.714  1.00  0.00    -0.049 C  
HETATM   36  C   UNL     1      -8.773   4.596  69.608  1.00  0.00    -0.111 C  
ENDBRANCH  29  31
ENDBRANCH  27  29
ENDBRANCH  25  27
ENDBRANCH  22  25
ENDBRANCH  19  22
ENDBRANCH  15  16
ENDBRANCH  14  15
ENDBRANCH  13  14
ENDBRANCH   4  10
ENDBRANCH   2   3
TORSDOF 10
ENDMDL
MODEL      212
REMARK 921   NORMALIZED FREE ENERGY PREDICTED BY IDOCK:   -4.58 KCAL/MOL
REMARK 922        TOTAL FREE ENERGY PREDICTED BY IDOCK:   -9.23 KCAL/MOL
REMARK 923 INTER-LIGAND FREE ENERGY PREDICTED BY IDOCK:   -6.63 KCAL/MOL
REMARK 924 INTRA-LIGAND FREE ENERGY PREDICTED BY IDOCK:   -2.60 KCAL/MOL
REMARK 927      BINDING AFFINITY PREDICTED BY RF-SCORE:    0.00 PKD
ROOT
HETATM    1  C   UNL     1     -13.566  14.332  71.891  1.00  0.00    -0.413 C  
HETATM    2  O   UNL     1     -13.069  13.610  70.765  1.00  0.00    -0.190 OA 
ENDROOT
BRANCH   2   3
HETATM    3  C   UNL     1     -12.872  12.267  70.958  1.00  0.00    -0.160 A  
HETATM    4  C   UNL     1     -12.105  11.541  70.022  1.00  0.00    -0.408 A  
HETATM    5  C   UNL     1     -11.912  10.161  70.214  1.00  0.00    -0.315 A  
HETATM    6  C   UNL     1     -13.491  11.583  72.016  1.00  0.00    -0.298 A  
HETATM    7 CL   UNL     1     -12.315   7.811  71.478  1.00  0.00    -0.329 Cl 
HETATM    8  C   UNL     1     -13.326  10.207  72.173  1.00  0.00    -0.431 A  
HETATM    9  C   UNL     1     -12.528   9.506  71.279  1.00  0.00    -0.346 A  
BRANCH   4  10
HETATM   10  C   UNL     1     -11.475  12.206  68.833  1.00  0.00    -0.297 C  
HETATM   11  H   UNL     1      -9.563  11.764  69.545  1.00  0.00     0.000 HD 
HETATM   12  O   UNL     1     -12.147  12.767  67.977  1.00  0.00    -0.302 OA 
HETATM   13  N   UNL     1     -10.091  12.139  68.757  1.00  0.00    -0.143 N  
BRANCH  13  14
HETATM   14  C   UNL     1      -9.379  12.594  67.576  1.00  0.00    -0.188 C  
BRANCH  14  15
HETATM   15  C   UNL     1      -9.685  11.764  66.323  1.00  0.00    -0.242 C  
BRANCH  15  16
HETATM   16  C   UNL     1      -9.217  10.320  66.359  1.00  0.00    -0.186 A  
HETATM   17  C   UNL     1      -7.925   9.921  65.980  1.00  0.00    -0.114 A  
HETATM   18  C   UNL     1      -7.564   8.571  65.958  1.00  0.00    -0.089 A  
HETATM   19  C   UNL     1      -8.493   7.599  66.329  1.00  0.00    -0.139 A  
HETATM   20  C   UNL     1     -10.127   9.329  66.763  1.00  0.00    -0.331 A  
HETATM   21  C   UNL     1      -9.776   7.975  66.736  1.00  0.00    -0.305 A  
BRANCH  19  22
HETATM   22  S   UNL     1      -8.082   5.879  66.132  1.00  0.00    -0.113 S  
HETATM   23  O   UNL     1      -6.674   5.736  66.449  1.00  0.00    -0.054 OA 
HETATM   24  O   UNL     1      -8.598   5.410  64.866  1.00  0.00    -0.149 OA 
BRANCH  22  25
HETATM   25  N   UNL     1      -8.881   5.113  67.372  1.00  0.00    -0.106 N  
HETATM   26  H   UNL     1      -9.827   4.774  67.195  1.00  0.00     0.000 HD 
BRANCH  25  27
HETATM   27  C   UNL     1      -8.341   4.907  68.629  1.00  0.00    -0.083 C  
HETATM   28  O   UNL     1      -7.673   3.931  68.915  1.00  0.00    -0.054 OA 
BRANCH  27  29
HETATM   29  N   UNL     1      -8.650   5.902  69.516  1.00  0.00    -0.116 N  
HETATM   30  H   UNL     1      -9.620   6.190  69.643  1.00  0.00     0.000 HD 
BRANCH  29  31
HETATM   31  C   UNL     1      -7.591   6.548  70.280  1.00  0.00    -0.096 C  
HETATM   32  C   UNL     1      -7.367   7.994  69.824  1.00  0.00    -0.074 C  
HETATM   33  C   UNL     1      -8.470   8.939  70.292  1.00  0.00    -0.168 C  
HETATM   34  C   UNL     1      -8.671   8.855  71.801  1.00  0.00    -0.137 C  
HETATM   35  C   UNL     1      -8.949   7.425  72.253  1.00  0.00    -0.154 C  
HETATM   36  C   UNL     1      -7.860   6.462  71.785  1.00  0.00    -0.101 C  
ENDBRANCH  29  31
ENDBRANCH  27  29
ENDBRANCH  25  27
ENDBRANCH  22  25
ENDBRANCH  19  22
ENDBRANCH  15  16
ENDBRANCH  14  15
ENDBRANCH  13  14
ENDBRANCH   4  10
ENDBRANCH   2   3
TORSDOF 10
ENDMDL
MODEL      213
REMARK 921   NORMALIZED FREE ENERGY PREDICTED BY IDOCK:   -4.57 KCAL/MOL
REMARK 922        TOTAL FREE ENERGY PREDICTED BY IDOCK:   -9.21 KCAL/MOL
REMARK 923 INTER-LIGAND FREE ENERGY PREDICTED BY IDOCK:   -8.93 KCAL/MOL
REMARK 924 INTRA-LIGAND FREE ENERGY PREDICTED BY IDOCK:   -0.28 KCAL/MOL
REMARK 927      BINDING AFFINITY PREDICTED BY RF-SCORE:    0.00 PKD
ROOT
HETATM    1  C   UNL     1     -11.885  15.705  69.100  1.00  0.00    -0.362 C  
HETATM    2  O   UNL     1     -11.299  15.361  67.845  1.00  0.00    -0.327 OA 
ENDROOT
BRANCH   2   3
HETATM    3  C   UNL     1     -10.145  16.028  67.525  1.00  0.00    -0.247 A  
HETATM    4  C   UNL     1      -9.886  16.350  66.176  1.00  0.00    -0.362 A  
HETATM    5  C   UNL     1      -8.696  17.024  65.845  1.00  0.00    -0.033 A  
HETATM    6  C   UNL     1      -9.175  16.317  68.498  1.00  0.00    -0.211 A  
HETATM    7 CL   UNL     1      -6.286  18.100  66.404  1.00  0.00    -0.210 Cl 
HETATM    8  C   UNL     1      -7.981  16.950  68.151  1.00  0.00    -0.195 A  
HETATM    9  C   UNL     1      -7.753  17.310  66.830  1.00  0.00    -0.244 A  
BRANCH   4  10
HETATM   10  C   UNL     1     -10.855  16.004  65.083  1.00  0.00    -0.395 C  
HETATM   11  H   UNL     1     -10.746  13.977  65.570  1.00  0.00     0.000 HD 
HETATM   12  O   UNL     1     -11.299  16.854  64.321  1.00  0.00    -1.202 OA 
HETATM   13  N   UNL     1     -11.224  14.669  64.993  1.00  0.00    -0.365 N  
BRANCH  13  14
HETATM   14  C   UNL     1     -12.278  14.238  64.092  1.00  0.00    -0.378 C  
BRANCH  14  15
HETATM   15  C   UNL     1     -11.995  12.887  63.426  1.00  0.00    -0.612 C  
BRANCH  15  16
HETATM   16  C   UNL     1     -11.093  11.945  64.204  1.00  0.00    -0.441 A  
HETATM   17  C   UNL     1     -10.116  11.139  63.596  1.00  0.00    -0.432 A  
HETATM   18  C   UNL     1      -9.361  10.233  64.346  1.00  0.00    -0.329 A  
HETATM   19  C   UNL     1      -9.567  10.129  65.720  1.00  0.00    -0.230 A  
HETATM   20  C   UNL     1     -11.260  11.852  65.596  1.00  0.00    -0.360 A  
HETATM   21  C   UNL     1     -10.514  10.940  66.350  1.00  0.00    -0.307 A  
BRANCH  19  22
HETATM   22  S   UNL     1      -8.728   8.854  66.635  1.00  0.00    -0.131 S  
HETATM   23  O   UNL     1      -9.492   8.623  67.846  1.00  0.00    -0.138 OA 
HETATM   24  O   UNL     1      -7.320   9.170  66.708  1.00  0.00    -0.085 OA 
BRANCH  22  25
HETATM   25  N   UNL     1      -8.940   7.478  65.726  1.00  0.00    -0.355 N  
HETATM   26  H   UNL     1      -9.628   7.503  64.973  1.00  0.00     0.000 HD 
BRANCH  25  27
HETATM   27  C   UNL     1      -8.238   6.302  65.928  1.00  0.00    -0.129 C  
HETATM   28  O   UNL     1      -7.747   5.996  66.999  1.00  0.00    -0.098 OA 
BRANCH  27  29
HETATM   29  N   UNL     1      -8.140   5.534  64.800  1.00  0.00    -0.120 N  
HETATM   30  H   UNL     1      -7.277   5.532  64.257  1.00  0.00     0.000 HD 
BRANCH  29  31
HETATM   31  C   UNL     1      -9.271   4.720  64.376  1.00  0.00    -0.037 C  
HETATM   32  C   UNL     1      -8.885   3.760  63.247  1.00  0.00    -0.100 C  
HETATM   33  C   UNL     1      -8.043   2.582  63.733  1.00  0.00    -0.081 C  
HETATM   34  C   UNL     1      -8.726   1.848  64.881  1.00  0.00    -0.109 C  
HETATM   35  C   UNL     1      -9.064   2.790  66.031  1.00  0.00    -0.122 C  
HETATM   36  C   UNL     1      -9.898   3.980  65.562  1.00  0.00    -0.186 C  
ENDBRANCH  29  31
ENDBRANCH  27  29
ENDBRANCH  25  27
ENDBRANCH  22  25
ENDBRANCH  19  22
ENDBRANCH  15  16
ENDBRANCH  14  15
ENDBRANCH  13  14
ENDBRANCH   4  10
ENDBRANCH   2   3
TORSDOF 10
ENDMDL
MODEL      214
REMARK 921   NORMALIZED FREE ENERGY PREDICTED BY IDOCK:   -4.56 KCAL/MOL
REMARK 922        TOTAL FREE ENERGY PREDICTED BY IDOCK:   -9.20 KCAL/MOL
REMARK 923 INTER-LIGAND FREE ENERGY PREDICTED BY IDOCK:   -7.60 KCAL/MOL
REMARK 924 INTRA-LIGAND FREE ENERGY PREDICTED BY IDOCK:   -1.60 KCAL/MOL
REMARK 927      BINDING AFFINITY PREDICTED BY RF-SCORE:    0.00 PKD
ROOT
HETATM    1  C   UNL     1     -10.288  10.081  67.482  1.00  0.00    -0.232 C  
HETATM    2  O   UNL     1      -9.733  10.696  68.644  1.00  0.00    -0.163 OA 
ENDROOT
BRANCH   2   3
HETATM    3  C   UNL     1      -9.826   9.971  69.804  1.00  0.00    -0.235 A  
HETATM    4  C   UNL     1      -8.645   9.562  70.459  1.00  0.00    -0.231 A  
HETATM    5  C   UNL     1      -8.741   8.808  71.642  1.00  0.00    -0.255 A  
HETATM    6  C   UNL     1     -11.069   9.551  70.304  1.00  0.00    -0.317 A  
HETATM    7 CL   UNL     1     -10.085   7.458  73.554  1.00  0.00    -0.375 Cl 
HETATM    8  C   UNL     1     -11.149   8.770  71.457  1.00  0.00    -0.377 A  
HETATM    9  C   UNL     1      -9.986   8.412  72.126  1.00  0.00    -0.306 A  
BRANCH   4  10
HETATM   10  C   UNL     1      -7.287   9.922  69.932  1.00  0.00    -0.147 C  
HETATM   11  H   UNL     1      -7.706  11.958  70.125  1.00  0.00     0.000 HD 
HETATM   12  O   UNL     1      -6.494   9.069  69.553  1.00  0.00    -0.042 OA 
HETATM   13  N   UNL     1      -6.979  11.276  69.909  1.00  0.00    -0.033 N  
BRANCH  13  14
HETATM   14  C   UNL     1      -5.642  11.739  69.583  1.00  0.00    -0.078 C  
BRANCH  14  15
HETATM   15  C   UNL     1      -5.490  13.263  69.660  1.00  0.00    -0.094 C  
BRANCH  15  16
HETATM   16  C   UNL     1      -6.603  14.069  69.015  1.00  0.00    -0.106 A  
HETATM   17  C   UNL     1      -7.454  14.920  69.739  1.00  0.00    -0.067 A  
HETATM   18  C   UNL     1      -8.512  15.585  69.112  1.00  0.00    -0.248 A  
HETATM   19  C   UNL     1      -8.726  15.414  67.745  1.00  0.00    -0.164 A  
HETATM   20  C   UNL     1      -6.812  13.938  67.632  1.00  0.00    -0.193 A  
HETATM   21  C   UNL     1      -7.875  14.593  67.000  1.00  0.00    -0.056 A  
BRANCH  19  22
HETATM   22  S   UNL     1     -10.174  16.122  66.993  1.00  0.00    -0.289 S  
HETATM   23  O   UNL     1     -11.250  15.162  67.149  1.00  0.00    -0.335 OA 
HETATM   24  O   UNL     1      -9.830  16.629  65.684  1.00  0.00    -0.528 OA 
BRANCH  22  25
HETATM   25  N   UNL     1     -10.584  17.391  67.986  1.00  0.00    -0.386 N  
HETATM   26  H   UNL     1     -11.513  17.388  68.407  1.00  0.00     0.000 HD 
BRANCH  25  27
HETATM   27  C   UNL     1      -9.742  18.450  68.275  1.00  0.00    -0.344 C  
HETATM   28  O   UNL     1      -9.728  19.014  69.354  1.00  0.00    -0.203 OA 
BRANCH  27  29
HETATM   29  N   UNL     1      -8.945  18.806  67.222  1.00  0.00    -0.272 N  
HETATM   30  H   UNL     1      -9.288  18.710  66.266  1.00  0.00     0.000 HD 
BRANCH  29  31
HETATM   31  C   UNL     1      -7.605  19.322  67.468  1.00  0.00    -0.237 C  
HETATM   32  C   UNL     1      -6.555  18.208  67.430  1.00  0.00    -0.196 C  
HETATM   33  C   UNL     1      -6.257  17.722  66.013  1.00  0.00    -0.263 C  
HETATM   34  C   UNL     1      -5.875  18.880  65.099  1.00  0.00    -0.289 C  
HETATM   35  C   UNL     1      -6.944  19.968  65.090  1.00  0.00    -0.244 C  
HETATM   36  C   UNL     1      -7.262  20.459  66.501  1.00  0.00    -0.299 C  
ENDBRANCH  29  31
ENDBRANCH  27  29
ENDBRANCH  25  27
ENDBRANCH  22  25
ENDBRANCH  19  22
ENDBRANCH  15  16
ENDBRANCH  14  15
ENDBRANCH  13  14
ENDBRANCH   4  10
ENDBRANCH   2   3
TORSDOF 10
ENDMDL
MODEL      215
REMARK 921   NORMALIZED FREE ENERGY PREDICTED BY IDOCK:   -4.56 KCAL/MOL
REMARK 922        TOTAL FREE ENERGY PREDICTED BY IDOCK:   -9.19 KCAL/MOL
REMARK 923 INTER-LIGAND FREE ENERGY PREDICTED BY IDOCK:   -8.26 KCAL/MOL
REMARK 924 INTRA-LIGAND FREE ENERGY PREDICTED BY IDOCK:   -0.93 KCAL/MOL
REMARK 927      BINDING AFFINITY PREDICTED BY RF-SCORE:    0.00 PKD
ROOT
HETATM    1  C   UNL     1      -5.682  17.376  68.987  1.00  0.00    -0.182 C  
HETATM    2  O   UNL     1      -7.072  17.271  69.292  1.00  0.00    -0.237 OA 
ENDROOT
BRANCH   2   3
HETATM    3  C   UNL     1      -7.918  17.949  68.453  1.00  0.00    -0.298 A  
HETATM    4  C   UNL     1      -8.883  17.229  67.716  1.00  0.00    -0.234 A  
HETATM    5  C   UNL     1      -9.744  17.924  66.848  1.00  0.00    -0.309 A  
HETATM    6  C   UNL     1      -7.788  19.332  68.246  1.00  0.00    -0.354 A  
HETATM    7 CL   UNL     1     -10.637  20.127  65.572  1.00  0.00    -0.395 Cl 
HETATM    8  C   UNL     1      -8.622  20.003  67.352  1.00  0.00    -0.403 A  
HETATM    9  C   UNL     1      -9.602  19.298  66.666  1.00  0.00    -0.349 A  
BRANCH   4  10
HETATM   10  C   UNL     1      -9.023  15.741  67.845  1.00  0.00    -0.180 C  
HETATM   11  H   UNL     1     -10.879  15.954  68.777  1.00  0.00     0.000 HD 
HETATM   12  O   UNL     1      -8.138  14.975  67.486  1.00  0.00    -0.152 OA 
HETATM   13  N   UNL     1     -10.217  15.284  68.386  1.00  0.00    -0.220 N  
BRANCH  13  14
HETATM   14  C   UNL     1     -10.542  13.869  68.407  1.00  0.00    -0.255 C  
BRANCH  14  15
HETATM   15  C   UNL     1     -11.824  13.549  69.184  1.00  0.00    -0.386 C  
BRANCH  15  16
HETATM   16  C   UNL     1     -11.873  12.180  69.840  1.00  0.00    -0.392 A  
HETATM   17  C   UNL     1     -11.147  11.075  69.367  1.00  0.00    -0.320 A  
HETATM   18  C   UNL     1     -11.282   9.817  69.960  1.00  0.00    -0.297 A  
HETATM   19  C   UNL     1     -12.142   9.650  71.044  1.00  0.00    -0.337 A  
HETATM   20  C   UNL     1     -12.707  12.000  70.956  1.00  0.00    -0.337 A  
HETATM   21  C   UNL     1     -12.854  10.741  71.548  1.00  0.00    -0.567 A  
BRANCH  19  22
HETATM   22  S   UNL     1     -12.441   8.014  71.678  1.00  0.00    -0.328 S  
HETATM   23  O   UNL     1     -12.726   7.160  70.541  1.00  0.00    -0.102 OA 
HETATM   24  O   UNL     1     -13.368   8.095  72.783  1.00  0.00     0.056 OA 
BRANCH  22  25
HETATM   25  N   UNL     1     -10.960   7.504  72.236  1.00  0.00    -0.245 N  
HETATM   26  H   UNL     1     -10.195   8.179  72.248  1.00  0.00     0.000 HD 
BRANCH  25  27
HETATM   27  C   UNL     1     -10.702   6.220  72.684  1.00  0.00    -0.232 C  
HETATM   28  O   UNL     1     -11.207   5.752  73.688  1.00  0.00    -0.107 OA 
BRANCH  27  29
HETATM   29  N   UNL     1      -9.813   5.544  71.895  1.00  0.00    -0.165 N  
HETATM   30  H   UNL     1      -9.474   4.625  72.179  1.00  0.00     0.000 HD 
BRANCH  29  31
HETATM   31  C   UNL     1      -9.351   6.139  70.648  1.00  0.00    -0.165 C  
HETATM   32  C   UNL     1      -7.827   6.059  70.514  1.00  0.00    -0.102 C  
HETATM   33  C   UNL     1      -7.335   4.652  70.184  1.00  0.00    -0.050 C  
HETATM   34  C   UNL     1      -8.034   4.094  68.950  1.00  0.00    -0.071 C  
HETATM   35  C   UNL     1      -9.551   4.121  69.101  1.00  0.00    -0.243 C  
HETATM   36  C   UNL     1     -10.061   5.520  69.441  1.00  0.00    -0.306 C  
ENDBRANCH  29  31
ENDBRANCH  27  29
ENDBRANCH  25  27
ENDBRANCH  22  25
ENDBRANCH  19  22
ENDBRANCH  15  16
ENDBRANCH  14  15
ENDBRANCH  13  14
ENDBRANCH   4  10
ENDBRANCH   2   3
TORSDOF 10
ENDMDL
MODEL      216
REMARK 921   NORMALIZED FREE ENERGY PREDICTED BY IDOCK:   -4.55 KCAL/MOL
REMARK 922        TOTAL FREE ENERGY PREDICTED BY IDOCK:   -9.18 KCAL/MOL
REMARK 923 INTER-LIGAND FREE ENERGY PREDICTED BY IDOCK:   -7.94 KCAL/MOL
REMARK 924 INTRA-LIGAND FREE ENERGY PREDICTED BY IDOCK:   -1.25 KCAL/MOL
REMARK 927      BINDING AFFINITY PREDICTED BY RF-SCORE:    0.00 PKD
ROOT
HETATM    1  C   UNL     1      -5.249   8.362  66.887  1.00  0.00    -0.032 C  
HETATM    2  O   UNL     1      -5.808   8.700  68.156  1.00  0.00    -0.041 OA 
ENDROOT
BRANCH   2   3
HETATM    3  C   UNL     1      -6.303   7.651  68.886  1.00  0.00    -0.036 A  
HETATM    4  C   UNL     1      -7.698   7.532  69.064  1.00  0.00    -0.117 A  
HETATM    5  C   UNL     1      -8.206   6.462  69.823  1.00  0.00    -0.126 A  
HETATM    6  C   UNL     1      -5.449   6.745  69.535  1.00  0.00    -0.015 A  
HETATM    7 CL   UNL     1      -7.974   4.289  71.406  1.00  0.00    -0.079 Cl 
HETATM    8  C   UNL     1      -5.964   5.713  70.318  1.00  0.00    -0.025 A  
HETATM    9  C   UNL     1      -7.339   5.569  70.449  1.00  0.00    -0.071 A  
BRANCH   4  10
HETATM   10  C   UNL     1      -8.657   8.510  68.451  1.00  0.00    -0.139 C  
HETATM   11  H   UNL     1      -8.741   7.391  66.691  1.00  0.00     0.000 HD 
HETATM   12  O   UNL     1      -9.001   9.530  69.036  1.00  0.00    -0.135 OA 
HETATM   13  N   UNL     1      -9.138   8.188  67.190  1.00  0.00    -0.136 N  
BRANCH  13  14
HETATM   14  C   UNL     1     -10.195   8.962  66.565  1.00  0.00    -0.249 C  
BRANCH  14  15
HETATM   15  C   UNL     1      -9.736   9.721  65.314  1.00  0.00    -0.371 C  
BRANCH  15  16
HETATM   16  C   UNL     1     -10.045  11.207  65.294  1.00  0.00    -0.329 A  
HETATM   17  C   UNL     1     -10.685  11.845  64.218  1.00  0.00    -0.388 A  
HETATM   18  C   UNL     1     -10.881  13.229  64.215  1.00  0.00    -0.414 A  
HETATM   19  C   UNL     1     -10.448  13.994  65.297  1.00  0.00    -0.382 A  
HETATM   20  C   UNL     1      -9.649  11.990  66.391  1.00  0.00    -0.239 A  
HETATM   21  C   UNL     1      -9.834  13.377  66.390  1.00  0.00    -0.299 A  
BRANCH  19  22
HETATM   22  S   UNL     1     -10.543  15.768  65.206  1.00  0.00    -0.400 S  
HETATM   23  O   UNL     1     -11.352  16.094  64.047  1.00  0.00    -0.671 OA 
HETATM   24  O   UNL     1      -9.217  16.323  65.351  1.00  0.00    -0.316 OA 
BRANCH  22  25
HETATM   25  N   UNL     1     -11.471  16.206  66.514  1.00  0.00     0.371 N  
HETATM   26  H   UNL     1     -12.485  16.208  66.402  1.00  0.00     0.000 HD 
BRANCH  25  27
HETATM   27  C   UNL     1     -10.952  16.567  67.745  1.00  0.00    -0.252 C  
HETATM   28  O   UNL     1     -11.380  16.137  68.799  1.00  0.00    -0.346 OA 
BRANCH  27  29
HETATM   29  N   UNL     1      -9.926  17.466  67.652  1.00  0.00    -0.289 N  
HETATM   30  H   UNL     1      -8.977  17.142  67.463  1.00  0.00     0.000 HD 
BRANCH  29  31
HETATM   31  C   UNL     1     -10.190  18.889  67.822  1.00  0.00    -0.393 C  
HETATM   32  C   UNL     1      -9.324  19.496  68.931  1.00  0.00    -0.393 C  
HETATM   33  C   UNL     1      -7.867  19.676  68.512  1.00  0.00    -0.358 C  
HETATM   34  C   UNL     1      -7.756  20.474  67.218  1.00  0.00    -0.375 C  
HETATM   35  C   UNL     1      -8.573  19.843  66.095  1.00  0.00    -0.348 C  
HETATM   36  C   UNL     1     -10.032  19.645  66.500  1.00  0.00    -0.545 C  
ENDBRANCH  29  31
ENDBRANCH  27  29
ENDBRANCH  25  27
ENDBRANCH  22  25
ENDBRANCH  19  22
ENDBRANCH  15  16
ENDBRANCH  14  15
ENDBRANCH  13  14
ENDBRANCH   4  10
ENDBRANCH   2   3
TORSDOF 10
ENDMDL
MODEL      217
REMARK 921   NORMALIZED FREE ENERGY PREDICTED BY IDOCK:   -4.53 KCAL/MOL
REMARK 922        TOTAL FREE ENERGY PREDICTED BY IDOCK:   -9.16 KCAL/MOL
REMARK 923 INTER-LIGAND FREE ENERGY PREDICTED BY IDOCK:   -8.08 KCAL/MOL
REMARK 924 INTRA-LIGAND FREE ENERGY PREDICTED BY IDOCK:   -1.07 KCAL/MOL
REMARK 927      BINDING AFFINITY PREDICTED BY RF-SCORE:    0.00 PKD
ROOT
HETATM    1  C   UNL     1     -11.576   6.275  70.463  1.00  0.00    -0.287 C  
HETATM    2  O   UNL     1     -11.298   7.628  70.824  1.00  0.00    -0.276 OA 
ENDROOT
BRANCH   2   3
HETATM    3  C   UNL     1     -10.130   7.833  71.511  1.00  0.00    -0.178 A  
HETATM    4  C   UNL     1      -8.914   7.910  70.798  1.00  0.00    -0.141 A  
HETATM    5  C   UNL     1      -7.714   8.109  71.503  1.00  0.00    -0.102 A  
HETATM    6  C   UNL     1     -10.106   7.879  72.914  1.00  0.00    -0.376 A  
HETATM    7 CL   UNL     1      -6.237   8.368  73.747  1.00  0.00    -0.122 Cl 
HETATM    8  C   UNL     1      -8.905   8.037  73.604  1.00  0.00    -0.326 A  
HETATM    9  C   UNL     1      -7.717   8.162  72.896  1.00  0.00    -0.140 A  
BRANCH   4  10
HETATM   10  C   UNL     1      -8.870   7.798  69.302  1.00  0.00    -0.139 C  
HETATM   11  H   UNL     1      -9.745   9.682  69.093  1.00  0.00     0.000 HD 
HETATM   12  O   UNL     1      -8.463   6.788  68.741  1.00  0.00    -0.123 OA 
HETATM   13  N   UNL     1      -9.308   8.907  68.592  1.00  0.00    -0.140 N  
BRANCH  13  14
HETATM   14  C   UNL     1      -9.157   8.988  67.150  1.00  0.00    -0.137 C  
BRANCH  14  15
HETATM   15  C   UNL     1     -10.211   9.874  66.476  1.00  0.00    -0.292 C  
BRANCH  15  16
HETATM   16  C   UNL     1     -10.353  11.276  67.043  1.00  0.00    -0.263 A  
HETATM   17  C   UNL     1     -11.528  11.741  67.655  1.00  0.00    -0.370 A  
HETATM   18  C   UNL     1     -11.636  13.064  68.095  1.00  0.00    -0.379 A  
HETATM   19  C   UNL     1     -10.562  13.938  67.937  1.00  0.00    -0.245 A  
HETATM   20  C   UNL     1      -9.268  12.161  66.925  1.00  0.00    -0.203 A  
HETATM   21  C   UNL     1      -9.374  13.488  67.354  1.00  0.00    -0.228 A  
BRANCH  19  22
HETATM   22  S   UNL     1     -10.769  15.658  68.338  1.00  0.00    -0.284 S  
HETATM   23  O   UNL     1      -9.642  16.043  69.167  1.00  0.00    -0.231 OA 
HETATM   24  O   UNL     1     -12.122  15.880  68.795  1.00  0.00    -0.297 OA 
BRANCH  22  25
HETATM   25  N   UNL     1     -10.534  16.456  66.898  1.00  0.00    -0.303 N  
HETATM   26  H   UNL     1     -10.729  15.950  66.034  1.00  0.00     0.000 HD 
BRANCH  25  27
HETATM   27  C   UNL     1     -10.091  17.763  66.802  1.00  0.00    -0.349 C  
HETATM   28  O   UNL     1     -10.771  18.664  66.347  1.00  0.00    -0.362 OA 
BRANCH  27  29
HETATM   29  N   UNL     1      -8.810  17.931  67.251  1.00  0.00    -0.240 N  
HETATM   30  H   UNL     1      -8.203  17.121  67.378  1.00  0.00     0.000 HD 
BRANCH  29  31
HETATM   31  C   UNL     1      -8.315  19.268  67.548  1.00  0.00    -0.290 C  
HETATM   32  C   UNL     1      -7.672  19.337  68.937  1.00  0.00    -0.376 C  
HETATM   33  C   UNL     1      -6.301  18.668  68.989  1.00  0.00    -0.261 C  
HETATM   34  C   UNL     1      -5.371  19.223  67.916  1.00  0.00    -0.174 C  
HETATM   35  C   UNL     1      -5.984  19.107  66.524  1.00  0.00    -0.178 C  
HETATM   36  C   UNL     1      -7.361  19.762  66.456  1.00  0.00    -0.275 C  
ENDBRANCH  29  31
ENDBRANCH  27  29
ENDBRANCH  25  27
ENDBRANCH  22  25
ENDBRANCH  19  22
ENDBRANCH  15  16
ENDBRANCH  14  15
ENDBRANCH  13  14
ENDBRANCH   4  10
ENDBRANCH   2   3
TORSDOF 10
ENDMDL
MODEL      218
REMARK 921   NORMALIZED FREE ENERGY PREDICTED BY IDOCK:   -4.53 KCAL/MOL
REMARK 922        TOTAL FREE ENERGY PREDICTED BY IDOCK:   -9.14 KCAL/MOL
REMARK 923 INTER-LIGAND FREE ENERGY PREDICTED BY IDOCK:   -7.34 KCAL/MOL
REMARK 924 INTRA-LIGAND FREE ENERGY PREDICTED BY IDOCK:   -1.81 KCAL/MOL
REMARK 927      BINDING AFFINITY PREDICTED BY RF-SCORE:    0.00 PKD
ROOT
HETATM    1  C   UNL     1      -8.244   9.583  69.501  1.00  0.00    -0.134 C  
HETATM    2  O   UNL     1      -8.302  10.970  69.172  1.00  0.00    -0.123 OA 
ENDROOT
BRANCH   2   3
HETATM    3  C   UNL     1      -9.232  11.320  68.228  1.00  0.00    -0.176 A  
HETATM    4  C   UNL     1      -8.828  11.473  66.884  1.00  0.00    -0.182 A  
HETATM    5  C   UNL     1      -9.779  11.843  65.917  1.00  0.00    -0.258 A  
HETATM    6  C   UNL     1     -10.558  11.616  68.583  1.00  0.00    -0.236 A  
HETATM    7 CL   UNL     1     -12.236  12.610  65.104  1.00  0.00    -0.514 Cl 
HETATM    8  C   UNL     1     -11.483  12.021  67.621  1.00  0.00    -0.392 A  
HETATM    9  C   UNL     1     -11.092  12.121  66.292  1.00  0.00    -0.310 A  
BRANCH   4  10
HETATM   10  C   UNL     1      -7.408  11.237  66.457  1.00  0.00    -0.101 C  
HETATM   11  H   UNL     1      -8.008   9.716  65.159  1.00  0.00     0.000 HD 
HETATM   12  O   UNL     1      -6.474  11.854  66.952  1.00  0.00    -0.148 OA 
HETATM   13  N   UNL     1      -7.219  10.287  65.463  1.00  0.00    -0.145 N  
BRANCH  13  14
HETATM   14  C   UNL     1      -5.919  10.090  64.847  1.00  0.00    -0.114 C  
BRANCH  14  15
HETATM   15  C   UNL     1      -5.442   8.633  64.883  1.00  0.00    -0.043 C  
BRANCH  15  16
HETATM   16  C   UNL     1      -6.420   7.634  65.478  1.00  0.00    -0.042 A  
HETATM   17  C   UNL     1      -7.417   6.994  64.724  1.00  0.00    -0.096 A  
HETATM   18  C   UNL     1      -8.341   6.139  65.331  1.00  0.00    -0.150 A  
HETATM   19  C   UNL     1      -8.272   5.904  66.704  1.00  0.00    -0.106 A  
HETATM   20  C   UNL     1      -6.343   7.356  66.853  1.00  0.00    -0.048 A  
HETATM   21  C   UNL     1      -7.270   6.509  67.468  1.00  0.00    -0.086 A  
BRANCH  19  22
HETATM   22  S   UNL     1      -9.554   4.956  67.494  1.00  0.00    -0.161 S  
HETATM   23  O   UNL     1      -8.920   3.799  68.096  1.00  0.00    -0.105 OA 
HETATM   24  O   UNL     1     -10.656   4.791  66.575  1.00  0.00    -0.259 OA 
BRANCH  22  25
HETATM   25  N   UNL     1     -10.039   5.896  68.776  1.00  0.00    -0.158 N  
HETATM   26  H   UNL     1      -9.734   5.625  69.711  1.00  0.00     0.000 HD 
BRANCH  25  27
HETATM   27  C   UNL     1     -10.831   7.024  68.652  1.00  0.00    -0.147 C  
HETATM   28  O   UNL     1     -10.596   7.919  67.862  1.00  0.00    -0.208 OA 
BRANCH  27  29
HETATM   29  N   UNL     1     -11.889   7.035  69.519  1.00  0.00    -0.440 N  
HETATM   30  H   UNL     1     -12.836   6.883  69.172  1.00  0.00     0.000 HD 
BRANCH  29  31
HETATM   31  C   UNL     1     -11.661   7.263  70.940  1.00  0.00    -0.315 C  
HETATM   32  C   UNL     1     -11.296   8.723  71.226  1.00  0.00    -0.357 C  
HETATM   33  C   UNL     1     -12.494   9.663  71.127  1.00  0.00    -0.421 C  
HETATM   34  C   UNL     1     -13.644   9.192  72.010  1.00  0.00    -0.520 C  
HETATM   35  C   UNL     1     -14.048   7.757  71.692  1.00  0.00    -0.533 C  
HETATM   36  C   UNL     1     -12.859   6.803  71.776  1.00  0.00    -0.307 C  
ENDBRANCH  29  31
ENDBRANCH  27  29
ENDBRANCH  25  27
ENDBRANCH  22  25
ENDBRANCH  19  22
ENDBRANCH  15  16
ENDBRANCH  14  15
ENDBRANCH  13  14
ENDBRANCH   4  10
ENDBRANCH   2   3
TORSDOF 10
ENDMDL
MODEL      219
REMARK 921   NORMALIZED FREE ENERGY PREDICTED BY IDOCK:   -4.51 KCAL/MOL
REMARK 922        TOTAL FREE ENERGY PREDICTED BY IDOCK:   -9.12 KCAL/MOL
REMARK 923 INTER-LIGAND FREE ENERGY PREDICTED BY IDOCK:   -7.95 KCAL/MOL
REMARK 924 INTRA-LIGAND FREE ENERGY PREDICTED BY IDOCK:   -1.18 KCAL/MOL
REMARK 927      BINDING AFFINITY PREDICTED BY RF-SCORE:    0.00 PKD
ROOT
HETATM    1  C   UNL     1     -10.479   7.926  68.005  1.00  0.00    -0.185 C  
HETATM    2  O   UNL     1     -10.129   9.288  68.247  1.00  0.00    -0.170 OA 
ENDROOT
BRANCH   2   3
HETATM    3  C   UNL     1     -10.370  10.157  67.214  1.00  0.00    -0.237 A  
HETATM    4  C   UNL     1     -11.060  11.361  67.473  1.00  0.00    -0.339 A  
HETATM    5  C   UNL     1     -11.318  12.247  66.412  1.00  0.00    -0.405 A  
HETATM    6  C   UNL     1     -10.024   9.834  65.893  1.00  0.00    -0.345 A  
HETATM    7 CL   UNL     1     -11.311  12.987  63.816  1.00  0.00    -0.454 Cl 
HETATM    8  C   UNL     1     -10.321  10.704  64.843  1.00  0.00    -0.347 A  
HETATM    9  C   UNL     1     -10.955  11.910  65.109  1.00  0.00    -0.312 A  
BRANCH   4  10
HETATM   10  C   UNL     1     -11.516  11.727  68.855  1.00  0.00    -0.297 C  
HETATM   11  H   UNL     1     -12.572   9.934  69.028  1.00  0.00     0.000 HD 
HETATM   12  O   UNL     1     -11.235  12.805  69.363  1.00  0.00    -0.215 OA 
HETATM   13  N   UNL     1     -12.264  10.769  69.526  1.00  0.00    -0.286 N  
BRANCH  13  14
HETATM   14  C   UNL     1     -12.618  10.934  70.924  1.00  0.00    -0.397 C  
BRANCH  14  15
HETATM   15  C   UNL     1     -13.146   9.649  71.575  1.00  0.00    -0.488 C  
BRANCH  15  16
HETATM   16  C   UNL     1     -12.159   8.498  71.655  1.00  0.00    -0.373 A  
HETATM   17  C   UNL     1     -12.501   7.170  71.350  1.00  0.00    -0.427 A  
HETATM   18  C   UNL     1     -11.577   6.133  71.510  1.00  0.00    -0.304 A  
HETATM   19  C   UNL     1     -10.291   6.415  71.969  1.00  0.00    -0.197 A  
HETATM   20  C   UNL     1     -10.847   8.766  72.081  1.00  0.00    -0.400 A  
HETATM   21  C   UNL     1      -9.921   7.732  72.253  1.00  0.00    -0.259 A  
BRANCH  19  22
HETATM   22  S   UNL     1      -9.182   5.073  72.336  1.00  0.00    -0.133 S  
HETATM   23  O   UNL     1      -9.995   3.953  72.772  1.00  0.00    -0.138 OA 
HETATM   24  O   UNL     1      -8.104   5.561  73.166  1.00  0.00    -0.113 OA 
BRANCH  22  25
HETATM   25  N   UNL     1      -8.576   4.613  70.858  1.00  0.00    -0.103 N  
HETATM   26  H   UNL     1      -8.555   3.618  70.637  1.00  0.00     0.000 HD 
BRANCH  25  27
HETATM   27  C   UNL     1      -8.100   5.500  69.908  1.00  0.00    -0.097 C  
HETATM   28  O   UNL     1      -7.622   6.584  70.189  1.00  0.00    -0.092 OA 
BRANCH  27  29
HETATM   29  N   UNL     1      -8.240   5.041  68.627  1.00  0.00    -0.085 N  
HETATM   30  H   UNL     1      -7.660   5.425  67.880  1.00  0.00     0.000 HD 
BRANCH  29  31
HETATM   31  C   UNL     1      -9.218   4.004  68.330  1.00  0.00    -0.150 C  
HETATM   32  C   UNL     1     -10.085   4.372  67.122  1.00  0.00    -0.121 C  
HETATM   33  C   UNL     1      -9.339   4.240  65.796  1.00  0.00    -0.164 C  
HETATM   34  C   UNL     1      -8.726   2.854  65.640  1.00  0.00    -0.127 C  
HETATM   35  C   UNL     1      -7.818   2.504  66.814  1.00  0.00    -0.072 C  
HETATM   36  C   UNL     1      -8.544   2.640  68.151  1.00  0.00    -0.116 C  
ENDBRANCH  29  31
ENDBRANCH  27  29
ENDBRANCH  25  27
ENDBRANCH  22  25
ENDBRANCH  19  22
ENDBRANCH  15  16
ENDBRANCH  14  15
ENDBRANCH  13  14
ENDBRANCH   4  10
ENDBRANCH   2   3
TORSDOF 10
ENDMDL
MODEL      220
REMARK 921   NORMALIZED FREE ENERGY PREDICTED BY IDOCK:   -4.51 KCAL/MOL
REMARK 922        TOTAL FREE ENERGY PREDICTED BY IDOCK:   -9.12 KCAL/MOL
REMARK 923 INTER-LIGAND FREE ENERGY PREDICTED BY IDOCK:   -7.54 KCAL/MOL
REMARK 924 INTRA-LIGAND FREE ENERGY PREDICTED BY IDOCK:   -1.58 KCAL/MOL
REMARK 927      BINDING AFFINITY PREDICTED BY RF-SCORE:    0.00 PKD
ROOT
HETATM    1  C   UNL     1     -12.442  12.413  64.659  1.00  0.00    -0.420 C  
HETATM    2  O   UNL     1     -11.986  11.976  65.938  1.00  0.00    -0.540 OA 
ENDROOT
BRANCH   2   3
HETATM    3  C   UNL     1     -11.416  12.940  66.729  1.00  0.00    -0.340 A  
HETATM    4  C   UNL     1     -10.188  12.670  67.369  1.00  0.00    -0.219 A  
HETATM    5  C   UNL     1      -9.609  13.654  68.190  1.00  0.00    -0.221 A  
HETATM    6  C   UNL     1     -12.072  14.154  66.986  1.00  0.00    -0.449 A  
HETATM    7 CL   UNL     1      -9.571  16.035  69.459  1.00  0.00    -0.239 Cl 
HETATM    8  C   UNL     1     -11.507  15.106  67.834  1.00  0.00    -0.344 A  
HETATM    9  C   UNL     1     -10.274  14.857  68.422  1.00  0.00    -0.231 A  
BRANCH   4  10
HETATM   10  C   UNL     1      -9.475  11.362  67.186  1.00  0.00    -0.175 C  
HETATM   11  H   UNL     1      -9.094  11.802  65.181  1.00  0.00     0.000 HD 
HETATM   12  O   UNL     1      -9.393  10.539  68.089  1.00  0.00    -0.142 OA 
HETATM   13  N   UNL     1      -8.906  11.145  65.939  1.00  0.00    -0.192 N  
BRANCH  13  14
HETATM   14  C   UNL     1      -8.049   9.999  65.691  1.00  0.00    -0.138 C  
BRANCH  14  15
HETATM   15  C   UNL     1      -8.824   8.724  65.339  1.00  0.00    -0.221 C  
BRANCH  15  16
HETATM   16  C   UNL     1      -8.738   7.599  66.356  1.00  0.00    -0.166 A  
HETATM   17  C   UNL     1      -7.689   7.478  67.281  1.00  0.00    -0.116 A  
HETATM   18  C   UNL     1      -7.615   6.384  68.148  1.00  0.00    -0.103 A  
HETATM   19  C   UNL     1      -8.600   5.399  68.108  1.00  0.00    -0.096 A  
HETATM   20  C   UNL     1      -9.741   6.615  66.355  1.00  0.00    -0.128 A  
HETATM   21  C   UNL     1      -9.668   5.513  67.214  1.00  0.00    -0.152 A  
BRANCH  19  22
HETATM   22  S   UNL     1      -8.405   3.928  69.089  1.00  0.00    -0.073 S  
HETATM   23  O   UNL     1      -7.072   3.417  68.833  1.00  0.00    -0.048 OA 
HETATM   24  O   UNL     1      -9.561   3.080  68.908  1.00  0.00    -0.147 OA 
BRANCH  22  25
HETATM   25  N   UNL     1      -8.361   4.474  70.658  1.00  0.00    -0.074 N  
HETATM   26  H   UNL     1      -7.450   4.562  71.109  1.00  0.00     0.000 HD 
BRANCH  25  27
HETATM   27  C   UNL     1      -9.485   4.816  71.390  1.00  0.00    -0.154 C  
HETATM   28  O   UNL     1     -10.278   3.996  71.814  1.00  0.00    -0.158 OA 
BRANCH  27  29
HETATM   29  N   UNL     1      -9.619   6.166  71.570  1.00  0.00    -0.156 N  
HETATM   30  H   UNL     1      -9.329   6.595  72.449  1.00  0.00     0.000 HD 
BRANCH  29  31
HETATM   31  C   UNL     1     -10.175   6.988  70.504  1.00  0.00    -0.196 C  
HETATM   32  C   UNL     1     -11.642   6.642  70.231  1.00  0.00    -0.454 C  
HETATM   33  C   UNL     1     -12.585   7.164  71.312  1.00  0.00    -0.421 C  
HETATM   34  C   UNL     1     -12.396   8.660  71.538  1.00  0.00    -0.370 C  
HETATM   35  C   UNL     1     -10.947   9.003  71.864  1.00  0.00    -0.423 C  
HETATM   36  C   UNL     1      -9.988   8.479  70.797  1.00  0.00    -0.230 C  
ENDBRANCH  29  31
ENDBRANCH  27  29
ENDBRANCH  25  27
ENDBRANCH  22  25
ENDBRANCH  19  22
ENDBRANCH  15  16
ENDBRANCH  14  15
ENDBRANCH  13  14
ENDBRANCH   4  10
ENDBRANCH   2   3
TORSDOF 10
ENDMDL
MODEL      221
REMARK 921   NORMALIZED FREE ENERGY PREDICTED BY IDOCK:   -4.51 KCAL/MOL
REMARK 922        TOTAL FREE ENERGY PREDICTED BY IDOCK:   -9.12 KCAL/MOL
REMARK 923 INTER-LIGAND FREE ENERGY PREDICTED BY IDOCK:   -8.21 KCAL/MOL
REMARK 924 INTRA-LIGAND FREE ENERGY PREDICTED BY IDOCK:   -0.90 KCAL/MOL
REMARK 927      BINDING AFFINITY PREDICTED BY RF-SCORE:    0.00 PKD
ROOT
HETATM    1  C   UNL     1      -5.559  13.277  68.731  1.00  0.00    -0.073 C  
HETATM    2  O   UNL     1      -6.716  13.667  67.992  1.00  0.00    -0.106 OA 
ENDROOT
BRANCH   2   3
HETATM    3  C   UNL     1      -7.360  12.661  67.320  1.00  0.00    -0.104 A  
HETATM    4  C   UNL     1      -8.769  12.674  67.245  1.00  0.00    -0.198 A  
HETATM    5  C   UNL     1      -9.432  11.636  66.565  1.00  0.00    -0.219 A  
HETATM    6  C   UNL     1      -6.654  11.573  66.782  1.00  0.00    -0.119 A  
HETATM    7 CL   UNL     1      -9.536   9.290  65.236  1.00  0.00    -0.289 Cl 
HETATM    8  C   UNL     1      -7.326  10.529  66.146  1.00  0.00    -0.136 A  
HETATM    9  C   UNL     1      -8.709  10.571  66.030  1.00  0.00    -0.164 A  
BRANCH   4  10
HETATM   10  C   UNL     1      -9.581  13.776  67.860  1.00  0.00    -0.222 C  
HETATM   11  H   UNL     1     -11.273  12.554  67.918  1.00  0.00     0.000 HD 
HETATM   12  O   UNL     1      -9.114  14.890  68.057  1.00  0.00    -0.174 OA 
HETATM   13  N   UNL     1     -10.888  13.455  68.202  1.00  0.00    -0.247 N  
BRANCH  13  14
HETATM   14  C   UNL     1     -11.718  14.378  68.955  1.00  0.00    -0.322 C  
BRANCH  14  15
HETATM   15  C   UNL     1     -11.846  14.011  70.438  1.00  0.00    -0.356 C  
BRANCH  15  16
HETATM   16  C   UNL     1     -12.241  12.574  70.729  1.00  0.00    -0.332 A  
HETATM   17  C   UNL     1     -13.107  12.212  71.775  1.00  0.00    -0.457 A  
HETATM   18  C   UNL     1     -13.382  10.870  72.050  1.00  0.00    -0.394 A  
HETATM   19  C   UNL     1     -12.802   9.869  71.272  1.00  0.00    -0.390 A  
HETATM   20  C   UNL     1     -11.695  11.553  69.934  1.00  0.00    -0.420 A  
HETATM   21  C   UNL     1     -11.959  10.207  70.210  1.00  0.00    -0.315 A  
BRANCH  19  22
HETATM   22  S   UNL     1     -13.018   8.165  71.738  1.00  0.00    -0.340 S  
HETATM   23  O   UNL     1     -12.412   7.357  70.697  1.00  0.00    -0.146 OA 
HETATM   24  O   UNL     1     -14.394   7.949  72.124  1.00  0.00    -0.353 OA 
BRANCH  22  25
HETATM   25  N   UNL     1     -12.035   7.965  73.063  1.00  0.00    -0.563 N  
HETATM   26  H   UNL     1     -12.389   8.263  73.972  1.00  0.00     0.000 HD 
BRANCH  25  27
HETATM   27  C   UNL     1     -10.764   7.419  73.008  1.00  0.00    -0.364 C  
HETATM   28  O   UNL     1     -10.179   6.994  73.986  1.00  0.00    -0.349 OA 
BRANCH  27  29
HETATM   29  N   UNL     1     -10.231   7.426  71.748  1.00  0.00    -0.191 N  
HETATM   30  H   UNL     1     -10.841   7.334  70.935  1.00  0.00     0.000 HD 
BRANCH  29  31
HETATM   31  C   UNL     1      -8.792   7.564  71.569  1.00  0.00    -0.124 C  
HETATM   32  C   UNL     1      -8.195   6.360  70.834  1.00  0.00    -0.125 C  
HETATM   33  C   UNL     1      -8.519   6.357  69.342  1.00  0.00    -0.126 C  
HETATM   34  C   UNL     1      -8.112   7.670  68.683  1.00  0.00    -0.127 C  
HETATM   35  C   UNL     1      -8.748   8.869  69.378  1.00  0.00    -0.142 C  
HETATM   36  C   UNL     1      -8.443   8.883  70.874  1.00  0.00    -0.226 C  
ENDBRANCH  29  31
ENDBRANCH  27  29
ENDBRANCH  25  27
ENDBRANCH  22  25
ENDBRANCH  19  22
ENDBRANCH  15  16
ENDBRANCH  14  15
ENDBRANCH  13  14
ENDBRANCH   4  10
ENDBRANCH   2   3
TORSDOF 10
ENDMDL
MODEL      222
REMARK 921   NORMALIZED FREE ENERGY PREDICTED BY IDOCK:   -4.51 KCAL/MOL
REMARK 922        TOTAL FREE ENERGY PREDICTED BY IDOCK:   -9.12 KCAL/MOL
REMARK 923 INTER-LIGAND FREE ENERGY PREDICTED BY IDOCK:   -7.93 KCAL/MOL
REMARK 924 INTRA-LIGAND FREE ENERGY PREDICTED BY IDOCK:   -1.18 KCAL/MOL
REMARK 927      BINDING AFFINITY PREDICTED BY RF-SCORE:    0.00 PKD
ROOT
HETATM    1  C   UNL     1      -9.992   4.238  66.779  1.00  0.00    -0.160 C  
HETATM    2  O   UNL     1     -10.188   5.644  66.918  1.00  0.00    -0.178 OA 
ENDROOT
BRANCH   2   3
HETATM    3  C   UNL     1      -9.073   6.370  67.249  1.00  0.00    -0.117 A  
HETATM    4  C   UNL     1      -8.897   6.796  68.582  1.00  0.00    -0.123 A  
HETATM    5  C   UNL     1      -7.759   7.551  68.919  1.00  0.00    -0.115 A  
HETATM    6  C   UNL     1      -8.149   6.774  66.272  1.00  0.00    -0.112 A  
HETATM    7 CL   UNL     1      -5.483   8.887  68.354  1.00  0.00    -0.038 Cl 
HETATM    8  C   UNL     1      -7.045   7.557  66.611  1.00  0.00    -0.078 A  
HETATM    9  C   UNL     1      -6.850   7.931  67.933  1.00  0.00    -0.072 A  
BRANCH   4  10
HETATM   10  C   UNL     1      -9.887   6.453  69.657  1.00  0.00    -0.159 C  
HETATM   11  H   UNL     1     -10.986   8.182  69.255  1.00  0.00     0.000 HD 
HETATM   12  O   UNL     1      -9.751   5.466  70.369  1.00  0.00    -0.170 OA 
HETATM   13  N   UNL     1     -10.969   7.313  69.789  1.00  0.00    -0.241 N  
BRANCH  13  14
HETATM   14  C   UNL     1     -12.077   6.998  70.672  1.00  0.00    -0.284 C  
BRANCH  14  15
HETATM   15  C   UNL     1     -12.357   8.091  71.711  1.00  0.00    -0.352 C  
BRANCH  15  16
HETATM   16  C   UNL     1     -12.236   9.520  71.212  1.00  0.00    -0.433 A  
HETATM   17  C   UNL     1     -11.301   9.920  70.243  1.00  0.00    -0.357 A  
HETATM   18  C   UNL     1     -11.178  11.261  69.871  1.00  0.00    -0.264 A  
HETATM   19  C   UNL     1     -11.999  12.223  70.458  1.00  0.00    -0.205 A  
HETATM   20  C   UNL     1     -13.080  10.498  71.766  1.00  0.00    -0.570 A  
HETATM   21  C   UNL     1     -12.955  11.844  71.405  1.00  0.00    -0.385 A  
BRANCH  19  22
HETATM   22  S   UNL     1     -11.716  13.944  70.109  1.00  0.00    -0.204 S  
HETATM   23  O   UNL     1     -11.466  14.602  71.377  1.00  0.00    -0.258 OA 
HETATM   24  O   UNL     1     -12.755  14.426  69.227  1.00  0.00    -0.013 OA 
BRANCH  22  25
HETATM   25  N   UNL     1     -10.257  13.976  69.313  1.00  0.00    -0.433 N  
HETATM   26  H   UNL     1      -9.494  13.412  69.690  1.00  0.00     0.000 HD 
BRANCH  25  27
HETATM   27  C   UNL     1     -10.014  14.720  68.172  1.00  0.00    -0.221 C  
HETATM   28  O   UNL     1      -9.231  15.651  68.139  1.00  0.00    -0.183 OA 
BRANCH  27  29
HETATM   29  N   UNL     1     -10.756  14.313  67.097  1.00  0.00    -0.279 N  
HETATM   30  H   UNL     1     -11.322  14.988  66.582  1.00  0.00     0.000 HD 
BRANCH  29  31
HETATM   31  C   UNL     1     -10.735  12.915  66.690  1.00  0.00    -0.265 C  
HETATM   32  C   UNL     1     -12.147  12.386  66.413  1.00  0.00    -0.215 C  
HETATM   33  C   UNL     1     -12.726  12.904  65.099  1.00  0.00    -0.443 C  
HETATM   34  C   UNL     1     -11.787  12.626  63.931  1.00  0.00    -0.544 C  
HETATM   35  C   UNL     1     -10.395  13.198  64.177  1.00  0.00    -0.286 C  
HETATM   36  C   UNL     1      -9.804  12.699  65.494  1.00  0.00    -0.177 C  
ENDBRANCH  29  31
ENDBRANCH  27  29
ENDBRANCH  25  27
ENDBRANCH  22  25
ENDBRANCH  19  22
ENDBRANCH  15  16
ENDBRANCH  14  15
ENDBRANCH  13  14
ENDBRANCH   4  10
ENDBRANCH   2   3
TORSDOF 10
ENDMDL
MODEL      223
REMARK 921   NORMALIZED FREE ENERGY PREDICTED BY IDOCK:   -4.50 KCAL/MOL
REMARK 922        TOTAL FREE ENERGY PREDICTED BY IDOCK:   -9.10 KCAL/MOL
REMARK 923 INTER-LIGAND FREE ENERGY PREDICTED BY IDOCK:   -7.82 KCAL/MOL
REMARK 924 INTRA-LIGAND FREE ENERGY PREDICTED BY IDOCK:   -1.28 KCAL/MOL
REMARK 927      BINDING AFFINITY PREDICTED BY RF-SCORE:    0.00 PKD
ROOT
HETATM    1  C   UNL     1     -10.172  13.406  67.861  1.00  0.00    -0.241 C  
HETATM    2  O   UNL     1     -11.359  12.909  68.479  1.00  0.00    -0.249 OA 
ENDROOT
BRANCH   2   3
HETATM    3  C   UNL     1     -11.786  13.596  69.586  1.00  0.00    -0.320 A  
HETATM    4  C   UNL     1     -12.355  12.883  70.663  1.00  0.00    -0.385 A  
HETATM    5  C   UNL     1     -12.804  13.589  71.794  1.00  0.00    -0.399 A  
HETATM    6  C   UNL     1     -11.751  14.999  69.633  1.00  0.00    -0.353 A  
HETATM    7 CL   UNL     1     -13.338  15.831  73.196  1.00  0.00    -0.663 Cl 
HETATM    8  C   UNL     1     -12.237  15.689  70.743  1.00  0.00    -0.463 A  
HETATM    9  C   UNL     1     -12.749  14.981  71.822  1.00  0.00    -0.339 A  
BRANCH   4  10
HETATM   10  C   UNL     1     -12.481  11.388  70.639  1.00  0.00    -0.327 C  
HETATM   11  H   UNL     1     -13.365  11.391  72.530  1.00  0.00     0.000 HD 
HETATM   12  O   UNL     1     -12.050  10.718  69.710  1.00  0.00    -0.312 OA 
HETATM   13  N   UNL     1     -13.123  10.811  71.726  1.00  0.00    -0.478 N  
BRANCH  13  14
HETATM   14  C   UNL     1     -13.457   9.398  71.742  1.00  0.00    -0.412 C  
BRANCH  14  15
HETATM   15  C   UNL     1     -12.468   8.548  72.548  1.00  0.00    -0.358 C  
BRANCH  15  16
HETATM   16  C   UNL     1     -11.218   8.109  71.805  1.00  0.00    -0.329 A  
HETATM   17  C   UNL     1      -9.927   8.537  72.154  1.00  0.00    -0.387 A  
HETATM   18  C   UNL     1      -8.814   8.165  71.393  1.00  0.00    -0.185 A  
HETATM   19  C   UNL     1      -8.980   7.347  70.276  1.00  0.00    -0.147 A  
HETATM   20  C   UNL     1     -11.360   7.256  70.697  1.00  0.00    -0.311 A  
HETATM   21  C   UNL     1     -10.252   6.888  69.927  1.00  0.00    -0.214 A  
BRANCH  19  22
HETATM   22  S   UNL     1      -7.587   7.024  69.217  1.00  0.00    -0.097 S  
HETATM   23  O   UNL     1      -7.780   5.703  68.649  1.00  0.00    -0.089 OA 
HETATM   24  O   UNL     1      -6.369   7.346  69.923  1.00  0.00    -0.030 OA 
BRANCH  22  25
HETATM   25  N   UNL     1      -7.779   8.072  67.941  1.00  0.00    -0.112 N  
HETATM   26  H   UNL     1      -8.653   8.595  67.878  1.00  0.00     0.000 HD 
BRANCH  25  27
HETATM   27  C   UNL     1      -6.826   8.277  66.958  1.00  0.00    -0.070 C  
HETATM   28  O   UNL     1      -6.545   9.379  66.524  1.00  0.00    -0.066 OA 
BRANCH  27  29
HETATM   29  N   UNL     1      -6.250   7.117  66.518  1.00  0.00    -0.038 N  
HETATM   30  H   UNL     1      -5.736   6.522  67.168  1.00  0.00     0.000 HD 
BRANCH  29  31
HETATM   31  C   UNL     1      -6.373   6.733  65.118  1.00  0.00    -0.042 C  
HETATM   32  C   UNL     1      -5.648   5.415  64.828  1.00  0.00    -0.017 C  
HETATM   33  C   UNL     1      -6.392   4.197  65.370  1.00  0.00    -0.032 C  
HETATM   34  C   UNL     1      -7.833   4.162  64.875  1.00  0.00    -0.092 C  
HETATM   35  C   UNL     1      -8.577   5.450  65.209  1.00  0.00    -0.151 C  
HETATM   36  C   UNL     1      -7.841   6.681  64.683  1.00  0.00    -0.116 C  
ENDBRANCH  29  31
ENDBRANCH  27  29
ENDBRANCH  25  27
ENDBRANCH  22  25
ENDBRANCH  19  22
ENDBRANCH  15  16
ENDBRANCH  14  15
ENDBRANCH  13  14
ENDBRANCH   4  10
ENDBRANCH   2   3
TORSDOF 10
ENDMDL
MODEL      224
REMARK 921   NORMALIZED FREE ENERGY PREDICTED BY IDOCK:   -4.49 KCAL/MOL
REMARK 922        TOTAL FREE ENERGY PREDICTED BY IDOCK:   -9.09 KCAL/MOL
REMARK 923 INTER-LIGAND FREE ENERGY PREDICTED BY IDOCK:   -7.09 KCAL/MOL
REMARK 924 INTRA-LIGAND FREE ENERGY PREDICTED BY IDOCK:   -2.00 KCAL/MOL
REMARK 927      BINDING AFFINITY PREDICTED BY RF-SCORE:    0.00 PKD
ROOT
HETATM    1  C   UNL     1     -10.635   9.377  66.844  1.00  0.00    -0.167 C  
HETATM    2  O   UNL     1     -11.122   9.517  68.178  1.00  0.00    -0.140 OA 
ENDROOT
BRANCH   2   3
HETATM    3  C   UNL     1     -11.380  10.800  68.586  1.00  0.00    -0.291 A  
HETATM    4  C   UNL     1     -11.586  11.060  69.957  1.00  0.00    -0.427 A  
HETATM    5  C   UNL     1     -11.862  12.374  70.374  1.00  0.00    -0.249 A  
HETATM    6  C   UNL     1     -11.531  11.844  67.659  1.00  0.00    -0.387 A  
HETATM    7 CL   UNL     1     -12.372  14.991  69.959  1.00  0.00    -0.363 Cl 
HETATM    8  C   UNL     1     -11.844  13.136  68.082  1.00  0.00    -0.386 A  
HETATM    9  C   UNL     1     -11.997  13.397  69.437  1.00  0.00    -0.315 A  
BRANCH   4  10
HETATM   10  C   UNL     1     -11.504   9.971  70.986  1.00  0.00    -0.383 C  
HETATM   11  H   UNL     1     -13.586   9.838  71.072  1.00  0.00     0.000 HD 
HETATM   12  O   UNL     1     -10.433   9.589  71.439  1.00  0.00    -0.317 OA 
HETATM   13  N   UNL     1     -12.713   9.416  71.387  1.00  0.00    -0.331 N  
BRANCH  13  14
HETATM   14  C   UNL     1     -12.757   8.246  72.245  1.00  0.00    -0.298 C  
BRANCH  14  15
HETATM   15  C   UNL     1     -12.846   6.926  71.471  1.00  0.00    -0.384 C  
BRANCH  15  16
HETATM   16  C   UNL     1     -11.544   6.427  70.867  1.00  0.00    -0.393 A  
HETATM   17  C   UNL     1     -10.409   6.121  71.635  1.00  0.00    -0.259 A  
HETATM   18  C   UNL     1      -9.210   5.737  71.026  1.00  0.00    -0.166 A  
HETATM   19  C   UNL     1      -9.136   5.643  69.637  1.00  0.00    -0.130 A  
HETATM   20  C   UNL     1     -11.461   6.292  69.471  1.00  0.00    -0.387 A  
HETATM   21  C   UNL     1     -10.262   5.917  68.856  1.00  0.00    -0.254 A  
BRANCH  19  22
HETATM   22  S   UNL     1      -7.565   5.325  68.866  1.00  0.00    -0.082 S  
HETATM   23  O   UNL     1      -7.830   4.604  67.636  1.00  0.00    -0.088 OA 
HETATM   24  O   UNL     1      -6.654   4.784  69.849  1.00  0.00    -0.034 OA 
BRANCH  22  25
HETATM   25  N   UNL     1      -7.027   6.821  68.379  1.00  0.00    -0.074 N  
HETATM   26  H   UNL     1      -6.296   7.270  68.931  1.00  0.00     0.000 HD 
BRANCH  25  27
HETATM   27  C   UNL     1      -7.511   7.494  67.271  1.00  0.00    -0.100 C  
HETATM   28  O   UNL     1      -8.008   6.929  66.314  1.00  0.00    -0.101 OA 
BRANCH  27  29
HETATM   29  N   UNL     1      -7.357   8.850  67.356  1.00  0.00    -0.080 N  
HETATM   30  H   UNL     1      -7.625   9.445  66.572  1.00  0.00     0.000 HD 
BRANCH  29  31
HETATM   31  C   UNL     1      -6.808   9.443  68.568  1.00  0.00    -0.062 C  
HETATM   32  C   UNL     1      -5.464  10.130  68.303  1.00  0.00    -0.034 C  
HETATM   33  C   UNL     1      -5.613  11.454  67.558  1.00  0.00    -0.056 C  
HETATM   34  C   UNL     1      -6.585  12.386  68.272  1.00  0.00    -0.063 C  
HETATM   35  C   UNL     1      -7.942  11.727  68.489  1.00  0.00    -0.145 C  
HETATM   36  C   UNL     1      -7.812  10.395  69.224  1.00  0.00    -0.147 C  
ENDBRANCH  29  31
ENDBRANCH  27  29
ENDBRANCH  25  27
ENDBRANCH  22  25
ENDBRANCH  19  22
ENDBRANCH  15  16
ENDBRANCH  14  15
ENDBRANCH  13  14
ENDBRANCH   4  10
ENDBRANCH   2   3
TORSDOF 10
ENDMDL
MODEL      225
REMARK 921   NORMALIZED FREE ENERGY PREDICTED BY IDOCK:   -4.49 KCAL/MOL
REMARK 922        TOTAL FREE ENERGY PREDICTED BY IDOCK:   -9.09 KCAL/MOL
REMARK 923 INTER-LIGAND FREE ENERGY PREDICTED BY IDOCK:   -8.16 KCAL/MOL
REMARK 924 INTRA-LIGAND FREE ENERGY PREDICTED BY IDOCK:   -0.94 KCAL/MOL
REMARK 927      BINDING AFFINITY PREDICTED BY RF-SCORE:    0.00 PKD
ROOT
HETATM    1  C   UNL     1      -9.813  18.575  68.424  1.00  0.00    -0.372 C  
HETATM    2  O   UNL     1     -10.533  17.387  68.752  1.00  0.00    -0.348 OA 
ENDROOT
BRANCH   2   3
HETATM    3  C   UNL     1     -10.776  16.531  67.709  1.00  0.00    -0.329 A  
HETATM    4  C   UNL     1     -11.480  15.332  67.951  1.00  0.00    -0.325 A  
HETATM    5  C   UNL     1     -11.719  14.448  66.883  1.00  0.00    -0.422 A  
HETATM    6  C   UNL     1     -10.263  16.779  66.426  1.00  0.00    -0.329 A  
HETATM    7 CL   UNL     1     -11.477  13.612  64.329  1.00  0.00    -0.401 Cl 
HETATM    8  C   UNL     1     -10.472  15.875  65.385  1.00  0.00    -0.429 A  
HETATM    9  C   UNL     1     -11.209  14.721  65.616  1.00  0.00    -0.343 A  
BRANCH   4  10
HETATM   10  C   UNL     1     -11.992  14.981  69.317  1.00  0.00    -0.289 C  
HETATM   11  H   UNL     1     -11.704  12.946  68.948  1.00  0.00     0.000 HD 
HETATM   12  O   UNL     1     -12.413  15.833  70.088  1.00  0.00    -0.370 OA 
HETATM   13  N   UNL     1     -11.953  13.635  69.657  1.00  0.00    -0.329 N  
BRANCH  13  14
HETATM   14  C   UNL     1     -12.261  13.190  71.004  1.00  0.00    -0.165 C  
BRANCH  14  15
HETATM   15  C   UNL     1     -12.784  11.750  71.065  1.00  0.00    -0.372 C  
BRANCH  15  16
HETATM   16  C   UNL     1     -11.973  10.721  70.297  1.00  0.00    -0.438 A  
HETATM   17  C   UNL     1     -11.656  10.854  68.935  1.00  0.00    -0.378 A  
HETATM   18  C   UNL     1     -10.971   9.845  68.253  1.00  0.00    -0.248 A  
HETATM   19  C   UNL     1     -10.583   8.689  68.931  1.00  0.00    -0.144 A  
HETATM   20  C   UNL     1     -11.543   9.566  70.971  1.00  0.00    -0.419 A  
HETATM   21  C   UNL     1     -10.865   8.548  70.292  1.00  0.00    -0.249 A  
BRANCH  19  22
HETATM   22  S   UNL     1      -9.869   7.339  68.018  1.00  0.00    -0.150 S  
HETATM   23  O   UNL     1      -9.069   7.918  66.955  1.00  0.00    -0.129 OA 
HETATM   24  O   UNL     1     -10.901   6.374  67.713  1.00  0.00    -0.271 OA 
BRANCH  22  25
HETATM   25  N   UNL     1      -8.769   6.662  69.064  1.00  0.00    -0.129 N  
HETATM   26  H   UNL     1      -9.127   6.138  69.862  1.00  0.00     0.000 HD 
BRANCH  25  27
HETATM   27  C   UNL     1      -7.397   6.765  68.916  1.00  0.00    -0.094 C  
HETATM   28  O   UNL     1      -6.680   5.812  68.673  1.00  0.00    -0.055 OA 
BRANCH  27  29
HETATM   29  N   UNL     1      -6.933   8.040  69.089  1.00  0.00    -0.056 N  
HETATM   30  H   UNL     1      -6.247   8.427  68.440  1.00  0.00     0.000 HD 
BRANCH  29  31
HETATM   31  C   UNL     1      -7.420   8.845  70.201  1.00  0.00    -0.065 C  
HETATM   32  C   UNL     1      -6.563   8.652  71.456  1.00  0.00    -0.075 C  
HETATM   33  C   UNL     1      -5.209   9.353  71.363  1.00  0.00    -0.054 C  
HETATM   34  C   UNL     1      -5.371  10.829  71.019  1.00  0.00    -0.098 C  
HETATM   35  C   UNL     1      -6.177  11.025  69.740  1.00  0.00    -0.113 C  
HETATM   36  C   UNL     1      -7.531  10.322  69.811  1.00  0.00    -0.169 C  
ENDBRANCH  29  31
ENDBRANCH  27  29
ENDBRANCH  25  27
ENDBRANCH  22  25
ENDBRANCH  19  22
ENDBRANCH  15  16
ENDBRANCH  14  15
ENDBRANCH  13  14
ENDBRANCH   4  10
ENDBRANCH   2   3
TORSDOF 10
ENDMDL
MODEL      226
REMARK 921   NORMALIZED FREE ENERGY PREDICTED BY IDOCK:   -4.49 KCAL/MOL
REMARK 922        TOTAL FREE ENERGY PREDICTED BY IDOCK:   -9.09 KCAL/MOL
REMARK 923 INTER-LIGAND FREE ENERGY PREDICTED BY IDOCK:   -7.71 KCAL/MOL
REMARK 924 INTRA-LIGAND FREE ENERGY PREDICTED BY IDOCK:   -1.38 KCAL/MOL
REMARK 927      BINDING AFFINITY PREDICTED BY RF-SCORE:    0.00 PKD
ROOT
HETATM    1  C   UNL     1     -11.997  11.218  68.591  1.00  0.00    -0.243 C  
HETATM    2  O   UNL     1     -11.272  12.087  69.460  1.00  0.00    -0.226 OA 
ENDROOT
BRANCH   2   3
HETATM    3  C   UNL     1     -12.029  12.969  70.187  1.00  0.00    -0.303 A  
HETATM    4  C   UNL     1     -11.905  14.353  69.938  1.00  0.00    -0.382 A  
HETATM    5  C   UNL     1     -12.673  15.259  70.692  1.00  0.00    -0.470 A  
HETATM    6  C   UNL     1     -12.858  12.531  71.232  1.00  0.00    -0.337 A  
HETATM    7 CL   UNL     1     -14.401  15.922  72.656  1.00  0.00    -0.374 Cl 
HETATM    8  C   UNL     1     -13.584  13.442  71.999  1.00  0.00    -0.577 A  
HETATM    9  C   UNL     1     -13.497  14.799  71.718  1.00  0.00    -0.380 A  
BRANCH   4  10
HETATM   10  C   UNL     1     -10.983  14.884  68.880  1.00  0.00    -0.251 C  
HETATM   11  H   UNL     1     -12.240  14.177  67.371  1.00  0.00     0.000 HD 
HETATM   12  O   UNL     1      -9.922  15.426  69.160  1.00  0.00    -0.213 OA 
HETATM   13  N   UNL     1     -11.408  14.733  67.567  1.00  0.00    -0.332 N  
BRANCH  13  14
HETATM   14  C   UNL     1     -10.691  15.353  66.467  1.00  0.00    -0.308 C  
BRANCH  14  15
HETATM   15  C   UNL     1     -10.571  14.450  65.233  1.00  0.00    -0.398 C  
BRANCH  15  16
HETATM   16  C   UNL     1     -10.199  13.004  65.509  1.00  0.00    -0.296 A  
HETATM   17  C   UNL     1     -10.804  11.917  64.855  1.00  0.00    -0.356 A  
HETATM   18  C   UNL     1     -10.480  10.601  65.197  1.00  0.00    -0.271 A  
HETATM   19  C   UNL     1      -9.536  10.354  66.192  1.00  0.00    -0.196 A  
HETATM   20  C   UNL     1      -9.224  12.735  66.484  1.00  0.00    -0.190 A  
HETATM   21  C   UNL     1      -8.903  11.420  66.836  1.00  0.00    -0.173 A  
BRANCH  19  22
HETATM   22  S   UNL     1      -9.261   8.684  66.740  1.00  0.00    -0.182 S  
HETATM   23  O   UNL     1      -9.060   7.873  65.555  1.00  0.00    -0.046 OA 
HETATM   24  O   UNL     1     -10.275   8.328  67.706  1.00  0.00    -0.197 OA 
BRANCH  22  25
HETATM   25  N   UNL     1      -7.777   8.727  67.487  1.00  0.00    -0.100 N  
HETATM   26  H   UNL     1      -7.352   9.639  67.655  1.00  0.00     0.000 HD 
BRANCH  25  27
HETATM   27  C   UNL     1      -7.083   7.601  67.894  1.00  0.00    -0.085 C  
HETATM   28  O   UNL     1      -6.268   7.612  68.797  1.00  0.00    -0.034 OA 
BRANCH  27  29
HETATM   29  N   UNL     1      -7.394   6.485  67.166  1.00  0.00    -0.085 N  
HETATM   30  H   UNL     1      -7.770   6.580  66.222  1.00  0.00     0.000 HD 
BRANCH  29  31
HETATM   31  C   UNL     1      -7.188   5.163  67.740  1.00  0.00    -0.067 C  
HETATM   32  C   UNL     1      -8.368   4.739  68.621  1.00  0.00    -0.083 C  
HETATM   33  C   UNL     1      -9.601   4.346  67.810  1.00  0.00    -0.211 C  
HETATM   34  C   UNL     1      -9.266   3.279  66.774  1.00  0.00    -0.187 C  
HETATM   35  C   UNL     1      -8.128   3.719  65.859  1.00  0.00    -0.097 C  
HETATM   36  C   UNL     1      -6.889   4.126  66.654  1.00  0.00    -0.055 C  
ENDBRANCH  29  31
ENDBRANCH  27  29
ENDBRANCH  25  27
ENDBRANCH  22  25
ENDBRANCH  19  22
ENDBRANCH  15  16
ENDBRANCH  14  15
ENDBRANCH  13  14
ENDBRANCH   4  10
ENDBRANCH   2   3
TORSDOF 10
ENDMDL
MODEL      227
REMARK 921   NORMALIZED FREE ENERGY PREDICTED BY IDOCK:   -4.48 KCAL/MOL
REMARK 922        TOTAL FREE ENERGY PREDICTED BY IDOCK:   -9.06 KCAL/MOL
REMARK 923 INTER-LIGAND FREE ENERGY PREDICTED BY IDOCK:   -6.49 KCAL/MOL
REMARK 924 INTRA-LIGAND FREE ENERGY PREDICTED BY IDOCK:   -2.58 KCAL/MOL
REMARK 927      BINDING AFFINITY PREDICTED BY RF-SCORE:    0.00 PKD
ROOT
HETATM    1  C   UNL     1     -11.445   6.141  72.697  1.00  0.00    -0.237 C  
HETATM    2  O   UNL     1     -11.123   7.476  73.082  1.00  0.00    -0.383 OA 
ENDROOT
BRANCH   2   3
HETATM    3  C   UNL     1     -11.345   8.440  72.133  1.00  0.00    -0.366 A  
HETATM    4  C   UNL     1     -10.242   9.060  71.508  1.00  0.00    -0.414 A  
HETATM    5  C   UNL     1     -10.469  10.058  70.543  1.00  0.00    -0.265 A  
HETATM    6  C   UNL     1     -12.642   8.886  71.834  1.00  0.00    -0.439 A  
HETATM    7 CL   UNL     1     -12.027  11.723  69.100  1.00  0.00    -0.368 Cl 
HETATM    8  C   UNL     1     -12.853   9.904  70.904  1.00  0.00    -0.360 A  
HETATM    9  C   UNL     1     -11.767  10.476  70.255  1.00  0.00    -0.332 A  
BRANCH   4  10
HETATM   10  C   UNL     1      -8.829   8.674  71.838  1.00  0.00    -0.205 C  
HETATM   11  H   UNL     1      -8.436   8.242  69.834  1.00  0.00     0.000 HD 
HETATM   12  O   UNL     1      -8.414   8.667  72.989  1.00  0.00    -0.398 OA 
HETATM   13  N   UNL     1      -8.021   8.334  70.761  1.00  0.00    -0.094 N  
BRANCH  13  14
HETATM   14  C   UNL     1      -6.598   8.107  70.931  1.00  0.00    -0.038 C  
BRANCH  14  15
HETATM   15  C   UNL     1      -5.758   8.588  69.741  1.00  0.00    -0.029 C  
BRANCH  15  16
HETATM   16  C   UNL     1      -6.070   7.934  68.407  1.00  0.00    -0.044 A  
HETATM   17  C   UNL     1      -5.541   6.692  68.018  1.00  0.00    -0.012 A  
HETATM   18  C   UNL     1      -5.798   6.165  66.749  1.00  0.00    -0.020 A  
HETATM   19  C   UNL     1      -6.599   6.871  65.853  1.00  0.00    -0.051 A  
HETATM   20  C   UNL     1      -6.905   8.614  67.504  1.00  0.00    -0.071 A  
HETATM   21  C   UNL     1      -7.158   8.096  66.229  1.00  0.00    -0.073 A  
BRANCH  19  22
HETATM   22  S   UNL     1      -6.776   6.279  64.185  1.00  0.00    -0.038 S  
HETATM   23  O   UNL     1      -5.445   5.978  63.695  1.00  0.00    -0.017 OA 
HETATM   24  O   UNL     1      -7.640   7.175  63.452  1.00  0.00    -0.099 OA 
BRANCH  22  25
HETATM   25  N   UNL     1      -7.519   4.800  64.342  1.00  0.00    -0.070 N  
HETATM   26  H   UNL     1      -6.931   3.967  64.351  1.00  0.00     0.000 HD 
BRANCH  25  27
HETATM   27  C   UNL     1      -8.888   4.631  64.462  1.00  0.00    -0.153 C  
HETATM   28  O   UNL     1      -9.510   3.785  63.848  1.00  0.00    -0.136 OA 
BRANCH  27  29
HETATM   29  N   UNL     1      -9.465   5.523  65.324  1.00  0.00    -0.363 N  
HETATM   30  H   UNL     1      -9.233   6.514  65.265  1.00  0.00     0.000 HD 
BRANCH  29  31
HETATM   31  C   UNL     1     -10.413   5.053  66.326  1.00  0.00    -0.303 C  
HETATM   32  C   UNL     1      -9.779   4.021  67.264  1.00  0.00    -0.199 C  
HETATM   33  C   UNL     1      -8.816   4.648  68.269  1.00  0.00    -0.122 C  
HETATM   34  C   UNL     1      -9.483   5.775  69.049  1.00  0.00    -0.152 C  
HETATM   35  C   UNL     1     -10.068   6.834  68.120  1.00  0.00    -0.182 C  
HETATM   36  C   UNL     1     -11.027   6.223  67.100  1.00  0.00    -0.453 C  
ENDBRANCH  29  31
ENDBRANCH  27  29
ENDBRANCH  25  27
ENDBRANCH  22  25
ENDBRANCH  19  22
ENDBRANCH  15  16
ENDBRANCH  14  15
ENDBRANCH  13  14
ENDBRANCH   4  10
ENDBRANCH   2   3
TORSDOF 10
ENDMDL
MODEL      228
REMARK 921   NORMALIZED FREE ENERGY PREDICTED BY IDOCK:   -4.46 KCAL/MOL
REMARK 922        TOTAL FREE ENERGY PREDICTED BY IDOCK:   -9.04 KCAL/MOL
REMARK 923 INTER-LIGAND FREE ENERGY PREDICTED BY IDOCK:   -7.15 KCAL/MOL
REMARK 924 INTRA-LIGAND FREE ENERGY PREDICTED BY IDOCK:   -1.88 KCAL/MOL
REMARK 927      BINDING AFFINITY PREDICTED BY RF-SCORE:    0.00 PKD
ROOT
HETATM    1  C   UNL     1      -9.454   4.744  68.459  1.00  0.00    -0.145 C  
HETATM    2  O   UNL     1     -10.331   4.764  69.584  1.00  0.00    -0.217 OA 
ENDROOT
BRANCH   2   3
HETATM    3  C   UNL     1      -9.853   4.169  70.723  1.00  0.00    -0.178 A  
HETATM    4  C   UNL     1      -9.505   4.975  71.828  1.00  0.00    -0.194 A  
HETATM    5  C   UNL     1      -9.004   4.366  72.993  1.00  0.00    -0.123 A  
HETATM    6  C   UNL     1      -9.618   2.786  70.781  1.00  0.00    -0.187 A  
HETATM    7 CL   UNL     1      -8.138   2.264  74.448  1.00  0.00    -0.053 Cl 
HETATM    8  C   UNL     1      -9.082   2.199  71.927  1.00  0.00    -0.137 A  
HETATM    9  C   UNL     1      -8.789   2.989  73.030  1.00  0.00    -0.080 A  
BRANCH   4  10
HETATM   10  C   UNL     1      -9.670   6.466  71.800  1.00  0.00    -0.159 C  
HETATM   11  H   UNL     1     -11.500   6.325  72.795  1.00  0.00     0.000 HD 
HETATM   12  O   UNL     1      -8.858   7.195  71.245  1.00  0.00    -0.129 OA 
HETATM   13  N   UNL     1     -10.791   6.970  72.446  1.00  0.00    -0.229 N  
BRANCH  13  14
HETATM   14  C   UNL     1     -10.974   8.398  72.634  1.00  0.00    -0.248 C  
BRANCH  14  15
HETATM   15  C   UNL     1     -12.164   8.968  71.853  1.00  0.00    -0.451 C  
BRANCH  15  16
HETATM   16  C   UNL     1     -11.814   9.891  70.699  1.00  0.00    -0.386 A  
HETATM   17  C   UNL     1     -12.152  11.254  70.676  1.00  0.00    -0.480 A  
HETATM   18  C   UNL     1     -11.873  12.047  69.559  1.00  0.00    -0.390 A  
HETATM   19  C   UNL     1     -11.241  11.486  68.450  1.00  0.00    -0.255 A  
HETATM   20  C   UNL     1     -11.145   9.352  69.587  1.00  0.00    -0.163 A  
HETATM   21  C   UNL     1     -10.872  10.138  68.462  1.00  0.00    -0.278 A  
BRANCH  19  22
HETATM   22  S   UNL     1     -11.050  12.455  66.970  1.00  0.00    -0.296 S  
HETATM   23  O   UNL     1     -12.029  13.523  67.029  1.00  0.00    -0.386 OA 
HETATM   24  O   UNL     1     -10.998  11.572  65.828  1.00  0.00    -0.292 OA 
BRANCH  22  25
HETATM   25  N   UNL     1      -9.580  13.211  67.152  1.00  0.00    -0.228 N  
HETATM   26  H   UNL     1      -9.573  14.225  67.254  1.00  0.00     0.000 HD 
BRANCH  25  27
HETATM   27  C   UNL     1      -8.366  12.546  67.174  1.00  0.00    -0.179 C  
HETATM   28  O   UNL     1      -7.543  12.693  68.059  1.00  0.00    -0.109 OA 
BRANCH  27  29
HETATM   29  N   UNL     1      -8.182  11.727  66.094  1.00  0.00    -0.380 N  
HETATM   30  H   UNL     1      -8.670  11.919  65.218  1.00  0.00     0.000 HD 
BRANCH  29  31
HETATM   31  C   UNL     1      -7.289  10.582  66.195  1.00  0.00    -0.136 C  
HETATM   32  C   UNL     1      -8.059   9.289  66.484  1.00  0.00    -0.104 C  
HETATM   33  C   UNL     1      -8.815   8.765  65.266  1.00  0.00    -0.205 C  
HETATM   34  C   UNL     1      -7.890   8.607  64.064  1.00  0.00    -0.146 C  
HETATM   35  C   UNL     1      -7.162   9.907  63.738  1.00  0.00    -0.125 C  
HETATM   36  C   UNL     1      -6.408  10.452  64.949  1.00  0.00    -0.086 C  
ENDBRANCH  29  31
ENDBRANCH  27  29
ENDBRANCH  25  27
ENDBRANCH  22  25
ENDBRANCH  19  22
ENDBRANCH  15  16
ENDBRANCH  14  15
ENDBRANCH  13  14
ENDBRANCH   4  10
ENDBRANCH   2   3
TORSDOF 10
ENDMDL
MODEL      229
REMARK 921   NORMALIZED FREE ENERGY PREDICTED BY IDOCK:   -4.46 KCAL/MOL
REMARK 922        TOTAL FREE ENERGY PREDICTED BY IDOCK:   -9.04 KCAL/MOL
REMARK 923 INTER-LIGAND FREE ENERGY PREDICTED BY IDOCK:   -7.54 KCAL/MOL
REMARK 924 INTRA-LIGAND FREE ENERGY PREDICTED BY IDOCK:   -1.50 KCAL/MOL
REMARK 927      BINDING AFFINITY PREDICTED BY RF-SCORE:    0.00 PKD
ROOT
HETATM    1  C   UNL     1     -12.059  14.019  69.363  1.00  0.00    -0.340 C  
HETATM    2  O   UNL     1     -11.812  14.190  67.968  1.00  0.00    -0.341 OA 
ENDROOT
BRANCH   2   3
HETATM    3  C   UNL     1     -11.223  15.375  67.609  1.00  0.00    -0.311 A  
HETATM    4  C   UNL     1     -11.063  15.679  66.240  1.00  0.00    -0.127 A  
HETATM    5  C   UNL     1     -10.448  16.889  65.872  1.00  0.00    -0.294 A  
HETATM    6  C   UNL     1     -10.696  16.250  68.572  1.00  0.00    -0.307 A  
HETATM    7 CL   UNL     1      -9.159  19.205  66.379  1.00  0.00    -0.349 Cl 
HETATM    8  C   UNL     1     -10.053  17.428  68.193  1.00  0.00    -0.328 A  
HETATM    9  C   UNL     1      -9.942  17.747  66.847  1.00  0.00    -0.332 A  
BRANCH   4  10
HETATM   10  C   UNL     1     -11.544  14.749  65.165  1.00  0.00    -0.358 C  
HETATM   11  H   UNL     1      -9.596  14.094  64.801  1.00  0.00     0.000 HD 
HETATM   12  O   UNL     1     -12.721  14.701  64.833  1.00  0.00    -0.504 OA 
HETATM   13  N   UNL     1     -10.580  13.942  64.577  1.00  0.00    -0.411 N  
BRANCH  13  14
HETATM   14  C   UNL     1     -10.944  12.887  63.649  1.00  0.00    -0.279 C  
BRANCH  14  15
HETATM   15  C   UNL     1     -11.532  11.648  64.336  1.00  0.00    -0.302 C  
BRANCH  15  16
HETATM   16  C   UNL     1     -10.600  10.916  65.285  1.00  0.00    -0.259 A  
HETATM   17  C   UNL     1     -10.540  11.183  66.662  1.00  0.00    -0.314 A  
HETATM   18  C   UNL     1      -9.612  10.535  67.482  1.00  0.00    -0.181 A  
HETATM   19  C   UNL     1      -8.737   9.598  66.934  1.00  0.00    -0.131 A  
HETATM   20  C   UNL     1      -9.734   9.943  64.757  1.00  0.00    -0.305 A  
HETATM   21  C   UNL     1      -8.797   9.297  65.571  1.00  0.00    -0.224 A  
BRANCH  19  22
HETATM   22  S   UNL     1      -7.447   8.910  67.948  1.00  0.00    -0.093 S  
HETATM   23  O   UNL     1      -6.640  10.017  68.423  1.00  0.00    -0.054 OA 
HETATM   24  O   UNL     1      -6.834   7.804  67.250  1.00  0.00    -0.066 OA 
BRANCH  22  25
HETATM   25  N   UNL     1      -8.234   8.343  69.298  1.00  0.00    -0.115 N  
HETATM   26  H   UNL     1      -7.862   8.599  70.213  1.00  0.00     0.000 HD 
BRANCH  25  27
HETATM   27  C   UNL     1      -9.364   7.545  69.257  1.00  0.00    -0.151 C  
HETATM   28  O   UNL     1     -10.485   7.967  69.472  1.00  0.00    -0.221 OA 
BRANCH  27  29
HETATM   29  N   UNL     1      -9.087   6.237  68.968  1.00  0.00    -0.129 N  
HETATM   30  H   UNL     1      -8.154   5.863  69.137  1.00  0.00     0.000 HD 
BRANCH  29  31
HETATM   31  C   UNL     1     -10.129   5.379  68.419  1.00  0.00    -0.173 C  
HETATM   32  C   UNL     1     -10.140   5.412  66.888  1.00  0.00    -0.240 C  
HETATM   33  C   UNL     1      -8.981   4.633  66.270  1.00  0.00    -0.118 C  
HETATM   34  C   UNL     1      -8.930   3.204  66.797  1.00  0.00    -0.172 C  
HETATM   35  C   UNL     1      -8.864   3.166  68.319  1.00  0.00    -0.163 C  
HETATM   36  C   UNL     1     -10.010   3.949  68.955  1.00  0.00     0.151 C  
ENDBRANCH  29  31
ENDBRANCH  27  29
ENDBRANCH  25  27
ENDBRANCH  22  25
ENDBRANCH  19  22
ENDBRANCH  15  16
ENDBRANCH  14  15
ENDBRANCH  13  14
ENDBRANCH   4  10
ENDBRANCH   2   3
TORSDOF 10
ENDMDL
MODEL      230
REMARK 921   NORMALIZED FREE ENERGY PREDICTED BY IDOCK:   -4.46 KCAL/MOL
REMARK 922        TOTAL FREE ENERGY PREDICTED BY IDOCK:   -9.03 KCAL/MOL
REMARK 923 INTER-LIGAND FREE ENERGY PREDICTED BY IDOCK:   -7.60 KCAL/MOL
REMARK 924 INTRA-LIGAND FREE ENERGY PREDICTED BY IDOCK:   -1.43 KCAL/MOL
REMARK 927      BINDING AFFINITY PREDICTED BY RF-SCORE:    0.00 PKD
ROOT
HETATM    1  C   UNL     1     -12.027  11.960  68.376  1.00  0.00    -0.182 C  
HETATM    2  O   UNL     1     -11.282  12.508  69.462  1.00  0.00    -0.197 OA 
ENDROOT
BRANCH   2   3
HETATM    3  C   UNL     1     -11.981  13.332  70.307  1.00  0.00    -0.300 A  
HETATM    4  C   UNL     1     -11.767  14.725  70.246  1.00  0.00    -0.351 A  
HETATM    5  C   UNL     1     -12.475  15.569  71.120  1.00  0.00    -0.491 A  
HETATM    6  C   UNL     1     -12.836  12.811  71.292  1.00  0.00    -0.355 A  
HETATM    7 CL   UNL     1     -14.157  16.072  73.170  1.00  0.00    -0.305 Cl 
HETATM    8  C   UNL     1     -13.502  13.656  72.180  1.00  0.00    -0.606 A  
HETATM    9  C   UNL     1     -13.327  15.030  72.082  1.00  0.00    -0.387 A  
BRANCH   4  10
HETATM   10  C   UNL     1     -10.813  15.333  69.260  1.00  0.00    -0.257 C  
HETATM   11  H   UNL     1     -12.207  15.129  67.720  1.00  0.00     0.000 HD 
HETATM   12  O   UNL     1      -9.676  15.657  69.578  1.00  0.00    -0.262 OA 
HETATM   13  N   UNL     1     -11.297  15.515  67.972  1.00  0.00    -0.339 N  
BRANCH  13  14
HETATM   14  C   UNL     1     -10.534  16.245  66.976  1.00  0.00    -0.306 C  
BRANCH  14  15
HETATM   15  C   UNL     1     -10.272  15.438  65.698  1.00  0.00    -0.403 C  
BRANCH  15  16
HETATM   16  C   UNL     1      -9.928  13.973  65.902  1.00  0.00    -0.325 A  
HETATM   17  C   UNL     1      -8.936  13.534  66.795  1.00  0.00    -0.188 A  
HETATM   18  C   UNL     1      -8.604  12.180  66.893  1.00  0.00    -0.191 A  
HETATM   19  C   UNL     1      -9.270  11.243  66.105  1.00  0.00    -0.206 A  
HETATM   20  C   UNL     1     -10.613  13.011  65.143  1.00  0.00    -0.327 A  
HETATM   21  C   UNL     1     -10.279  11.655  65.230  1.00  0.00    -0.316 A  
BRANCH  19  22
HETATM   22  S   UNL     1      -8.722   9.551  66.109  1.00  0.00    -0.150 S  
HETATM   23  O   UNL     1      -9.887   8.723  65.859  1.00  0.00    -0.225 OA 
HETATM   24  O   UNL     1      -7.898   9.321  67.273  1.00  0.00    -0.098 OA 
BRANCH  22  25
HETATM   25  N   UNL     1      -7.793   9.408  64.737  1.00  0.00    -0.113 N  
HETATM   26  H   UNL     1      -7.742  10.209  64.108  1.00  0.00     0.000 HD 
BRANCH  25  27
HETATM   27  C   UNL     1      -7.086   8.268  64.397  1.00  0.00    -0.078 C  
HETATM   28  O   UNL     1      -6.812   7.972  63.249  1.00  0.00    -0.081 OA 
BRANCH  27  29
HETATM   29  N   UNL     1      -6.746   7.504  65.480  1.00  0.00    -0.045 N  
HETATM   30  H   UNL     1      -6.552   7.948  66.378  1.00  0.00     0.000 HD 
BRANCH  29  31
HETATM   31  C   UNL     1      -6.660   6.056  65.349  1.00  0.00    -0.043 C  
HETATM   32  C   UNL     1      -6.453   5.377  66.706  1.00  0.00    -0.041 C  
HETATM   33  C   UNL     1      -7.718   5.362  67.560  1.00  0.00    -0.092 C  
HETATM   34  C   UNL     1      -8.892   4.751  66.804  1.00  0.00    -0.110 C  
HETATM   35  C   UNL     1      -9.138   5.460  65.476  1.00  0.00    -0.126 C  
HETATM   36  C   UNL     1      -7.879   5.493  64.612  1.00  0.00    -0.108 C  
ENDBRANCH  29  31
ENDBRANCH  27  29
ENDBRANCH  25  27
ENDBRANCH  22  25
ENDBRANCH  19  22
ENDBRANCH  15  16
ENDBRANCH  14  15
ENDBRANCH  13  14
ENDBRANCH   4  10
ENDBRANCH   2   3
TORSDOF 10
ENDMDL
MODEL      231
REMARK 921   NORMALIZED FREE ENERGY PREDICTED BY IDOCK:   -4.44 KCAL/MOL
REMARK 922        TOTAL FREE ENERGY PREDICTED BY IDOCK:   -9.01 KCAL/MOL
REMARK 923 INTER-LIGAND FREE ENERGY PREDICTED BY IDOCK:   -7.67 KCAL/MOL
REMARK 924 INTRA-LIGAND FREE ENERGY PREDICTED BY IDOCK:   -1.34 KCAL/MOL
REMARK 927      BINDING AFFINITY PREDICTED BY RF-SCORE:    0.00 PKD
ROOT
HETATM    1  C   UNL     1     -10.054   9.129  66.559  1.00  0.00    -0.287 C  
HETATM    2  O   UNL     1     -10.630   8.409  67.648  1.00  0.00    -0.243 OA 
ENDROOT
BRANCH   2   3
HETATM    3  C   UNL     1     -10.326   7.073  67.705  1.00  0.00    -0.202 A  
HETATM    4  C   UNL     1      -9.491   6.599  68.739  1.00  0.00    -0.129 A  
HETATM    5  C   UNL     1      -9.171   5.231  68.792  1.00  0.00    -0.145 A  
HETATM    6  C   UNL     1     -10.756   6.184  66.708  1.00  0.00    -0.371 A  
HETATM    7 CL   UNL     1      -9.185   2.701  67.852  1.00  0.00    -0.233 Cl 
HETATM    8  C   UNL     1     -10.398   4.836  66.749  1.00  0.00    -0.229 A  
HETATM    9  C   UNL     1      -9.618   4.365  67.796  1.00  0.00    -0.160 A  
BRANCH   4  10
HETATM   10  C   UNL     1      -8.946   7.516  69.795  1.00  0.00    -0.141 C  
HETATM   11  H   UNL     1      -7.059   7.489  68.903  1.00  0.00     0.000 HD 
HETATM   12  O   UNL     1      -9.630   7.895  70.737  1.00  0.00    -0.164 OA 
HETATM   13  N   UNL     1      -7.626   7.916  69.636  1.00  0.00    -0.095 N  
BRANCH  13  14
HETATM   14  C   UNL     1      -7.038   8.930  70.491  1.00  0.00    -0.064 C  
BRANCH  14  15
HETATM   15  C   UNL     1      -6.087   9.877  69.749  1.00  0.00    -0.045 C  
BRANCH  15  16
HETATM   16  C   UNL     1      -6.711  11.158  69.223  1.00  0.00    -0.103 A  
HETATM   17  C   UNL     1      -6.156  12.429  69.441  1.00  0.00    -0.108 A  
HETATM   18  C   UNL     1      -6.807  13.585  69.001  1.00  0.00    -0.107 A  
HETATM   19  C   UNL     1      -8.021  13.483  68.325  1.00  0.00    -0.147 A  
HETATM   20  C   UNL     1      -7.918  11.073  68.508  1.00  0.00    -0.137 A  
HETATM   21  C   UNL     1      -8.579  12.226  68.073  1.00  0.00    -0.176 A  
BRANCH  19  22
HETATM   22  S   UNL     1      -8.926  14.962  67.925  1.00  0.00    -0.181 S  
HETATM   23  O   UNL     1     -10.194  14.547  67.357  1.00  0.00    -0.239 OA 
HETATM   24  O   UNL     1      -8.061  15.866  67.201  1.00  0.00    -0.170 OA 
BRANCH  22  25
HETATM   25  N   UNL     1      -9.313  15.627  69.398  1.00  0.00    -0.271 N  
HETATM   26  H   UNL     1      -8.661  15.492  70.171  1.00  0.00     0.000 HD 
BRANCH  25  27
HETATM   27  C   UNL     1     -10.466  16.354  69.640  1.00  0.00    -0.278 C  
HETATM   28  O   UNL     1     -10.775  17.343  69.002  1.00  0.00    -0.265 OA 
BRANCH  27  29
HETATM   29  N   UNL     1     -11.207  15.856  70.676  1.00  0.00    -0.363 N  
HETATM   30  H   UNL     1     -10.790  15.761  71.603  1.00  0.00     0.000 HD 
BRANCH  29  31
HETATM   31  C   UNL     1     -12.592  15.463  70.455  1.00  0.00    -0.423 C  
HETATM   32  C   UNL     1     -12.693  14.041  69.894  1.00  0.00    -0.059 C  
HETATM   33  C   UNL     1     -12.413  12.969  70.944  1.00  0.00    -0.396 C  
HETATM   34  C   UNL     1     -13.298  13.149  72.171  1.00  0.00    -0.621 C  
HETATM   35  C   UNL     1     -13.160  14.546  72.767  1.00  0.00    -0.589 C  
HETATM   36  C   UNL     1     -13.427  15.632  71.728  1.00  0.00    -0.525 C  
ENDBRANCH  29  31
ENDBRANCH  27  29
ENDBRANCH  25  27
ENDBRANCH  22  25
ENDBRANCH  19  22
ENDBRANCH  15  16
ENDBRANCH  14  15
ENDBRANCH  13  14
ENDBRANCH   4  10
ENDBRANCH   2   3
TORSDOF 10
ENDMDL
MODEL      232
REMARK 921   NORMALIZED FREE ENERGY PREDICTED BY IDOCK:   -4.42 KCAL/MOL
REMARK 922        TOTAL FREE ENERGY PREDICTED BY IDOCK:   -8.98 KCAL/MOL
REMARK 923 INTER-LIGAND FREE ENERGY PREDICTED BY IDOCK:   -7.93 KCAL/MOL
REMARK 924 INTRA-LIGAND FREE ENERGY PREDICTED BY IDOCK:   -1.05 KCAL/MOL
REMARK 927      BINDING AFFINITY PREDICTED BY RF-SCORE:    0.00 PKD
ROOT
HETATM    1  C   UNL     1     -11.731   8.037  72.254  1.00  0.00    -0.371 C  
HETATM    2  O   UNL     1     -10.316   7.850  72.252  1.00  0.00    -0.216 OA 
ENDROOT
BRANCH   2   3
HETATM    3  C   UNL     1      -9.844   6.884  71.403  1.00  0.00    -0.178 A  
HETATM    4  C   UNL     1      -8.958   7.249  70.367  1.00  0.00    -0.151 A  
HETATM    5  C   UNL     1      -8.482   6.259  69.488  1.00  0.00    -0.129 A  
HETATM    6  C   UNL     1     -10.292   5.556  71.486  1.00  0.00    -0.282 A  
HETATM    7 CL   UNL     1      -8.372   3.754  68.490  1.00  0.00    -0.087 Cl 
HETATM    8  C   UNL     1      -9.844   4.592  70.583  1.00  0.00    -0.292 A  
HETATM    9  C   UNL     1      -8.933   4.945  69.597  1.00  0.00    -0.099 A  
BRANCH   4  10
HETATM   10  C   UNL     1      -8.498   8.666  70.186  1.00  0.00    -0.135 C  
HETATM   11  H   UNL     1      -6.682   8.019  69.384  1.00  0.00     0.000 HD 
HETATM   12  O   UNL     1      -9.176   9.617  70.554  1.00  0.00    -0.249 OA 
HETATM   13  N   UNL     1      -7.265   8.835  69.571  1.00  0.00    -0.058 N  
BRANCH  13  14
HETATM   14  C   UNL     1      -6.789  10.152  69.188  1.00  0.00    -0.059 C  
BRANCH  14  15
HETATM   15  C   UNL     1      -6.958  10.450  67.693  1.00  0.00    -0.083 C  
BRANCH  15  16
HETATM   16  C   UNL     1      -8.157  11.305  67.324  1.00  0.00    -0.140 A  
HETATM   17  C   UNL     1      -9.480  10.835  67.370  1.00  0.00    -0.171 A  
HETATM   18  C   UNL     1     -10.545  11.637  66.949  1.00  0.00    -0.276 A  
HETATM   19  C   UNL     1     -10.300  12.928  66.485  1.00  0.00    -0.264 A  
HETATM   20  C   UNL     1      -7.934  12.622  66.887  1.00  0.00     0.019 A  
HETATM   21  C   UNL     1      -8.994  13.426  66.456  1.00  0.00    -0.065 A  
BRANCH  19  22
HETATM   22  S   UNL     1     -11.636  13.874  65.789  1.00  0.00    -0.351 S  
HETATM   23  O   UNL     1     -12.617  12.928  65.293  1.00  0.00    -0.506 OA 
HETATM   24  O   UNL     1     -11.094  14.891  64.916  1.00  0.00    -0.383 OA 
BRANCH  22  25
HETATM   25  N   UNL     1     -12.362  14.599  67.097  1.00  0.00    -0.482 N  
HETATM   26  H   UNL     1     -13.381  14.590  67.145  1.00  0.00     0.000 HD 
BRANCH  25  27
HETATM   27  C   UNL     1     -11.668  15.212  68.126  1.00  0.00    -0.302 C  
HETATM   28  O   UNL     1     -11.298  14.621  69.123  1.00  0.00    -0.252 OA 
BRANCH  27  29
HETATM   29  N   UNL     1     -11.459  16.546  67.912  1.00  0.00    -0.056 N  
HETATM   30  H   UNL     1     -12.167  17.226  68.191  1.00  0.00     0.000 HD 
BRANCH  29  31
HETATM   31  C   UNL     1     -10.223  16.996  67.285  1.00  0.00    -0.310 C  
HETATM   32  C   UNL     1     -10.481  18.096  66.250  1.00  0.00    -0.374 C  
HETATM   33  C   UNL     1     -10.810  19.443  66.888  1.00  0.00    -0.509 C  
HETATM   34  C   UNL     1      -9.739  19.860  67.889  1.00  0.00    -0.510 C  
HETATM   35  C   UNL     1      -9.516  18.791  68.954  1.00  0.00    -0.331 C  
HETATM   36  C   UNL     1      -9.196  17.433  68.334  1.00  0.00    -0.277 C  
ENDBRANCH  29  31
ENDBRANCH  27  29
ENDBRANCH  25  27
ENDBRANCH  22  25
ENDBRANCH  19  22
ENDBRANCH  15  16
ENDBRANCH  14  15
ENDBRANCH  13  14
ENDBRANCH   4  10
ENDBRANCH   2   3
TORSDOF 10
ENDMDL
MODEL      233
REMARK 921   NORMALIZED FREE ENERGY PREDICTED BY IDOCK:   -4.41 KCAL/MOL
REMARK 922        TOTAL FREE ENERGY PREDICTED BY IDOCK:   -8.96 KCAL/MOL
REMARK 923 INTER-LIGAND FREE ENERGY PREDICTED BY IDOCK:   -7.15 KCAL/MOL
REMARK 924 INTRA-LIGAND FREE ENERGY PREDICTED BY IDOCK:   -1.81 KCAL/MOL
REMARK 927      BINDING AFFINITY PREDICTED BY RF-SCORE:    0.00 PKD
ROOT
HETATM    1  C   UNL     1      -7.325  13.597  68.587  1.00  0.00    -0.113 C  
HETATM    2  O   UNL     1      -7.878  12.289  68.453  1.00  0.00    -0.143 OA 
ENDROOT
BRANCH   2   3
HETATM    3  C   UNL     1      -8.730  12.108  67.395  1.00  0.00    -0.177 A  
HETATM    4  C   UNL     1      -8.306  11.338  66.291  1.00  0.00    -0.142 A  
HETATM    5  C   UNL     1      -9.176  11.162  65.200  1.00  0.00    -0.209 A  
HETATM    6  C   UNL     1      -9.981  12.744  67.347  1.00  0.00    -0.212 A  
HETATM    7 CL   UNL     1     -11.454  11.602  63.822  1.00  0.00    -0.487 Cl 
HETATM    8  C   UNL     1     -10.818  12.594  66.242  1.00  0.00    -0.300 A  
HETATM    9  C   UNL     1     -10.417  11.796  65.180  1.00  0.00    -0.283 A  
BRANCH   4  10
HETATM   10  C   UNL     1      -6.952  10.690  66.256  1.00  0.00    -0.133 C  
HETATM   11  H   UNL     1      -7.719   8.946  67.109  1.00  0.00     0.000 HD 
HETATM   12  O   UNL     1      -5.960  11.289  65.864  1.00  0.00    -0.086 OA 
HETATM   13  N   UNL     1      -6.895   9.371  66.684  1.00  0.00    -0.079 N  
BRANCH  13  14
HETATM   14  C   UNL     1      -5.683   8.584  66.540  1.00  0.00    -0.047 C  
BRANCH  14  15
HETATM   15  C   UNL     1      -5.937   7.072  66.520  1.00  0.00    -0.034 C  
BRANCH  15  16
HETATM   16  C   UNL     1      -6.885   6.550  67.585  1.00  0.00    -0.076 A  
HETATM   17  C   UNL     1      -8.231   6.237  67.330  1.00  0.00    -0.109 A  
HETATM   18  C   UNL     1      -9.083   5.830  68.361  1.00  0.00    -0.118 A  
HETATM   19  C   UNL     1      -8.595   5.719  69.662  1.00  0.00    -0.116 A  
HETATM   20  C   UNL     1      -6.403   6.397  68.896  1.00  0.00    -0.038 A  
HETATM   21  C   UNL     1      -7.253   5.999  69.933  1.00  0.00    -0.074 A  
BRANCH  19  22
HETATM   22  S   UNL     1      -9.726   5.371  70.991  1.00  0.00    -0.187 S  
HETATM   23  O   UNL     1      -9.505   6.376  72.014  1.00  0.00    -0.152 OA 
HETATM   24  O   UNL     1      -9.654   3.966  71.320  1.00  0.00    -0.148 OA 
BRANCH  22  25
HETATM   25  N   UNL     1     -11.227   5.718  70.366  1.00  0.00    -0.233 N  
HETATM   26  H   UNL     1     -11.589   5.115  69.628  1.00  0.00     0.000 HD 
BRANCH  25  27
HETATM   27  C   UNL     1     -12.014   6.775  70.788  1.00  0.00    -0.378 C  
HETATM   28  O   UNL     1     -12.926   6.650  71.583  1.00  0.00    -0.300 OA 
BRANCH  27  29
HETATM   29  N   UNL     1     -11.673   7.965  70.204  1.00  0.00    -0.466 N  
HETATM   30  H   UNL     1     -11.849   8.116  69.211  1.00  0.00     0.000 HD 
BRANCH  29  31
HETATM   31  C   UNL     1     -11.058   9.015  71.005  1.00  0.00    -0.289 C  
HETATM   32  C   UNL     1     -10.700  10.238  70.153  1.00  0.00    -0.334 C  
HETATM   33  C   UNL     1     -11.923  11.063  69.760  1.00  0.00    -0.428 C  
HETATM   34  C   UNL     1     -12.745  11.455  70.982  1.00  0.00    -0.447 C  
HETATM   35  C   UNL     1     -13.151  10.237  71.803  1.00  0.00    -0.570 C  
HETATM   36  C   UNL     1     -11.941   9.393  72.198  1.00  0.00    -0.240 C  
ENDBRANCH  29  31
ENDBRANCH  27  29
ENDBRANCH  25  27
ENDBRANCH  22  25
ENDBRANCH  19  22
ENDBRANCH  15  16
ENDBRANCH  14  15
ENDBRANCH  13  14
ENDBRANCH   4  10
ENDBRANCH   2   3
TORSDOF 10
ENDMDL
MODEL      234
REMARK 921   NORMALIZED FREE ENERGY PREDICTED BY IDOCK:   -4.41 KCAL/MOL
REMARK 922        TOTAL FREE ENERGY PREDICTED BY IDOCK:   -8.96 KCAL/MOL
REMARK 923 INTER-LIGAND FREE ENERGY PREDICTED BY IDOCK:   -7.27 KCAL/MOL
REMARK 924 INTRA-LIGAND FREE ENERGY PREDICTED BY IDOCK:   -1.69 KCAL/MOL
REMARK 927      BINDING AFFINITY PREDICTED BY RF-SCORE:    0.00 PKD
ROOT
HETATM    1  C   UNL     1     -12.014   7.813  72.118  1.00  0.00    -0.317 C  
HETATM    2  O   UNL     1     -10.667   7.525  71.746  1.00  0.00    -0.210 OA 
ENDROOT
BRANCH   2   3
HETATM    3  C   UNL     1     -10.466   7.226  70.423  1.00  0.00    -0.220 A  
HETATM    4  C   UNL     1      -9.497   7.947  69.692  1.00  0.00    -0.160 A  
HETATM    5  C   UNL     1      -9.299   7.648  68.332  1.00  0.00    -0.146 A  
HETATM    6  C   UNL     1     -11.264   6.281  69.759  1.00  0.00    -0.499 A  
HETATM    7 CL   UNL     1      -9.867   6.371  66.024  1.00  0.00     0.054 Cl 
HETATM    8  C   UNL     1     -11.084   6.022  68.400  1.00  0.00    -0.271 A  
HETATM    9  C   UNL     1     -10.096   6.698  67.697  1.00  0.00    -0.155 A  
BRANCH   4  10
HETATM   10  C   UNL     1      -8.662   9.016  70.333  1.00  0.00    -0.199 C  
HETATM   11  H   UNL     1      -7.193   8.808  68.864  1.00  0.00     0.000 HD 
HETATM   12  O   UNL     1      -8.998   9.559  71.377  1.00  0.00    -0.209 OA 
HETATM   13  N   UNL     1      -7.493   9.361  69.667  1.00  0.00    -0.076 N  
BRANCH  13  14
HETATM   14  C   UNL     1      -6.690  10.492  70.092  1.00  0.00    -0.148 C  
BRANCH  14  15
HETATM   15  C   UNL     1      -6.337  11.452  68.949  1.00  0.00    -0.057 C  
BRANCH  15  16
HETATM   16  C   UNL     1      -7.496  12.247  68.374  1.00  0.00    -0.122 A  
HETATM   17  C   UNL     1      -8.528  11.666  67.620  1.00  0.00    -0.142 A  
HETATM   18  C   UNL     1      -9.534  12.451  67.049  1.00  0.00    -0.211 A  
HETATM   19  C   UNL     1      -9.526  13.832  67.236  1.00  0.00    -0.236 A  
HETATM   20  C   UNL     1      -7.525  13.636  68.583  1.00  0.00    -0.113 A  
HETATM   21  C   UNL     1      -8.524  14.429  68.006  1.00  0.00    -0.164 A  
BRANCH  19  22
HETATM   22  S   UNL     1     -10.706  14.839  66.364  1.00  0.00    -0.320 S  
HETATM   23  O   UNL     1     -10.923  14.219  65.071  1.00  0.00    -0.344 OA 
HETATM   24  O   UNL     1     -10.306  16.224  66.454  1.00  0.00    -0.296 OA 
BRANCH  22  25
HETATM   25  N   UNL     1     -12.133  14.620  67.189  1.00  0.00    -0.502 N  
HETATM   26  H   UNL     1     -12.967  14.391  66.649  1.00  0.00     0.000 HD 
BRANCH  25  27
HETATM   27  C   UNL     1     -12.256  14.731  68.563  1.00  0.00    -0.079 C  
HETATM   28  O   UNL     1     -12.019  15.758  69.171  1.00  0.00    -0.387 OA 
BRANCH  27  29
HETATM   29  N   UNL     1     -12.653  13.567  69.162  1.00  0.00    -0.023 N  
HETATM   30  H   UNL     1     -13.547  13.143  68.914  1.00  0.00     0.000 HD 
BRANCH  29  31
HETATM   31  C   UNL     1     -11.795  12.934  70.155  1.00  0.00    -0.245 C  
HETATM   32  C   UNL     1     -12.167  13.363  71.578  1.00  0.00     0.033 C  
HETATM   33  C   UNL     1     -13.455  12.712  72.075  1.00  0.00    -0.516 C  
HETATM   34  C   UNL     1     -13.396  11.195  71.947  1.00  0.00    -0.409 C  
HETATM   35  C   UNL     1     -13.081  10.761  70.520  1.00  0.00    -0.140 C  
HETATM   36  C   UNL     1     -11.800  11.410  70.002  1.00  0.00    -0.440 C  
ENDBRANCH  29  31
ENDBRANCH  27  29
ENDBRANCH  25  27
ENDBRANCH  22  25
ENDBRANCH  19  22
ENDBRANCH  15  16
ENDBRANCH  14  15
ENDBRANCH  13  14
ENDBRANCH   4  10
ENDBRANCH   2   3
TORSDOF 10
ENDMDL
MODEL      235
REMARK 921   NORMALIZED FREE ENERGY PREDICTED BY IDOCK:   -4.38 KCAL/MOL
REMARK 922        TOTAL FREE ENERGY PREDICTED BY IDOCK:   -8.91 KCAL/MOL
REMARK 923 INTER-LIGAND FREE ENERGY PREDICTED BY IDOCK:   -8.06 KCAL/MOL
REMARK 924 INTRA-LIGAND FREE ENERGY PREDICTED BY IDOCK:   -0.85 KCAL/MOL
REMARK 927      BINDING AFFINITY PREDICTED BY RF-SCORE:    0.00 PKD
ROOT
HETATM    1  C   UNL     1     -11.473   6.431  69.399  1.00  0.00    -0.305 C  
HETATM    2  O   UNL     1     -10.317   6.942  70.062  1.00  0.00    -0.193 OA 
ENDROOT
BRANCH   2   3
HETATM    3  C   UNL     1      -9.734   6.103  70.975  1.00  0.00    -0.177 A  
HETATM    4  C   UNL     1      -8.707   6.595  71.808  1.00  0.00    -0.129 A  
HETATM    5  C   UNL     1      -8.100   5.731  72.737  1.00  0.00    -0.108 A  
HETATM    6  C   UNL     1     -10.075   4.742  71.038  1.00  0.00    -0.269 A  
HETATM    7 CL   UNL     1      -7.685   3.333  73.903  1.00  0.00    -0.064 Cl 
HETATM    8  C   UNL     1      -9.438   3.886  71.936  1.00  0.00    -0.204 A  
HETATM    9  C   UNL     1      -8.463   4.386  72.788  1.00  0.00    -0.106 A  
BRANCH   4  10
HETATM   10  C   UNL     1      -8.252   8.024  71.738  1.00  0.00    -0.122 C  
HETATM   11  H   UNL     1      -6.652   7.498  70.504  1.00  0.00     0.000 HD 
HETATM   12  O   UNL     1      -8.817   8.912  72.363  1.00  0.00    -0.396 OA 
HETATM   13  N   UNL     1      -7.163   8.280  70.916  1.00  0.00    -0.054 N  
BRANCH  13  14
HETATM   14  C   UNL     1      -6.736   9.638  70.633  1.00  0.00    -0.116 C  
BRANCH  14  15
HETATM   15  C   UNL     1      -6.693   9.963  69.135  1.00  0.00    -0.054 C  
BRANCH  15  16
HETATM   16  C   UNL     1      -7.838  10.812  68.612  1.00  0.00    -0.122 A  
HETATM   17  C   UNL     1      -7.726  12.192  68.377  1.00  0.00    -0.134 A  
HETATM   18  C   UNL     1      -8.830  12.945  67.966  1.00  0.00    -0.195 A  
HETATM   19  C   UNL     1     -10.062  12.322  67.774  1.00  0.00    -0.201 A  
HETATM   20  C   UNL     1      -9.079  10.196  68.378  1.00  0.00    -0.133 A  
HETATM   21  C   UNL     1     -10.189  10.945  67.976  1.00  0.00    -0.202 A  
BRANCH  19  22
HETATM   22  S   UNL     1     -11.497  13.313  67.423  1.00  0.00    -0.352 S  
HETATM   23  O   UNL     1     -12.222  13.472  68.669  1.00  0.00    -0.323 OA 
HETATM   24  O   UNL     1     -12.161  12.789  66.251  1.00  0.00    -0.515 OA 
BRANCH  22  25
HETATM   25  N   UNL     1     -10.890  14.823  67.084  1.00  0.00    -0.303 N  
HETATM   26  H   UNL     1     -10.776  15.478  67.858  1.00  0.00     0.000 HD 
BRANCH  25  27
HETATM   27  C   UNL     1     -10.529  15.246  65.816  1.00  0.00    -0.349 C  
HETATM   28  O   UNL     1     -10.524  14.510  64.847  1.00  0.00    -0.418 OA 
BRANCH  27  29
HETATM   29  N   UNL     1     -10.164  16.563  65.772  1.00  0.00    -0.346 N  
HETATM   30  H   UNL     1     -10.155  17.062  64.882  1.00  0.00     0.000 HD 
BRANCH  29  31
HETATM   31  C   UNL     1      -9.790  17.254  66.999  1.00  0.00    -0.281 C  
HETATM   32  C   UNL     1      -8.271  17.409  67.120  1.00  0.00    -0.229 C  
HETATM   33  C   UNL     1      -7.709  18.477  66.185  1.00  0.00    -0.253 C  
HETATM   34  C   UNL     1      -8.423  19.811  66.373  1.00  0.00    -0.391 C  
HETATM   35  C   UNL     1      -9.932  19.672  66.200  1.00  0.00    -0.554 C  
HETATM   36  C   UNL     1     -10.510  18.600  67.121  1.00  0.00    -0.461 C  
ENDBRANCH  29  31
ENDBRANCH  27  29
ENDBRANCH  25  27
ENDBRANCH  22  25
ENDBRANCH  19  22
ENDBRANCH  15  16
ENDBRANCH  14  15
ENDBRANCH  13  14
ENDBRANCH   4  10
ENDBRANCH   2   3
TORSDOF 10
ENDMDL
MODEL      236
REMARK 921   NORMALIZED FREE ENERGY PREDICTED BY IDOCK:   -4.37 KCAL/MOL
REMARK 922        TOTAL FREE ENERGY PREDICTED BY IDOCK:   -8.90 KCAL/MOL
REMARK 923 INTER-LIGAND FREE ENERGY PREDICTED BY IDOCK:   -7.85 KCAL/MOL
REMARK 924 INTRA-LIGAND FREE ENERGY PREDICTED BY IDOCK:   -1.05 KCAL/MOL
REMARK 927      BINDING AFFINITY PREDICTED BY RF-SCORE:    0.00 PKD
ROOT
HETATM    1  C   UNL     1      -6.586  16.980  69.229  1.00  0.00    -0.233 C  
HETATM    2  O   UNL     1      -7.982  16.716  69.094  1.00  0.00    -0.232 OA 
ENDROOT
BRANCH   2   3
HETATM    3  C   UNL     1      -8.666  17.548  68.247  1.00  0.00    -0.270 A  
HETATM    4  C   UNL     1      -9.587  16.995  67.332  1.00  0.00    -0.246 A  
HETATM    5  C   UNL     1     -10.281  17.848  66.454  1.00  0.00    -0.372 A  
HETATM    6  C   UNL     1      -8.406  18.927  68.210  1.00  0.00    -0.364 A  
HETATM    7 CL   UNL     1     -10.842  20.240  65.339  1.00  0.00    -0.172 Cl 
HETATM    8  C   UNL     1      -9.071  19.757  67.308  1.00  0.00    -0.413 A  
HETATM    9  C   UNL     1     -10.013  19.215  66.444  1.00  0.00    -0.395 A  
BRANCH   4  10
HETATM   10  C   UNL     1      -9.856  15.520  67.278  1.00  0.00    -0.224 C  
HETATM   11  H   UNL     1     -11.751  15.792  68.109  1.00  0.00     0.000 HD 
HETATM   12  O   UNL     1      -9.011  14.723  66.889  1.00  0.00    -0.226 OA 
HETATM   13  N   UNL     1     -11.119  15.113  67.686  1.00  0.00    -0.310 N  
BRANCH  13  14
HETATM   14  C   UNL     1     -11.557  13.739  67.522  1.00  0.00    -0.354 C  
BRANCH  14  15
HETATM   15  C   UNL     1     -12.067  13.103  68.821  1.00  0.00    -0.226 C  
BRANCH  15  16
HETATM   16  C   UNL     1     -11.687  11.648  69.035  1.00  0.00    -0.388 A  
HETATM   17  C   UNL     1     -11.205  10.820  68.008  1.00  0.00    -0.372 A  
HETATM   18  C   UNL     1     -10.940   9.467  68.238  1.00  0.00    -0.131 A  
HETATM   19  C   UNL     1     -11.143   8.926  69.507  1.00  0.00    -0.001 A  
HETATM   20  C   UNL     1     -11.851  11.094  70.316  1.00  0.00    -0.455 A  
HETATM   21  C   UNL     1     -11.596   9.738  70.550  1.00  0.00    -0.365 A  
BRANCH  19  22
HETATM   22  S   UNL     1     -10.970   7.172  69.746  1.00  0.00    -0.202 S  
HETATM   23  O   UNL     1     -11.153   6.544  68.451  1.00  0.00    -0.293 OA 
HETATM   24  O   UNL     1     -11.774   6.765  70.876  1.00  0.00    -0.332 OA 
BRANCH  22  25
HETATM   25  N   UNL     1      -9.362   6.954  70.106  1.00  0.00    -0.159 N  
HETATM   26  H   UNL     1      -9.121   6.611  71.035  1.00  0.00     0.000 HD 
BRANCH  25  27
HETATM   27  C   UNL     1      -8.330   7.211  69.220  1.00  0.00    -0.133 C  
HETATM   28  O   UNL     1      -7.323   7.821  69.530  1.00  0.00    -0.083 OA 
BRANCH  27  29
HETATM   29  N   UNL     1      -8.568   6.727  67.963  1.00  0.00    -0.122 N  
HETATM   30  H   UNL     1      -9.273   7.167  67.371  1.00  0.00     0.000 HD 
BRANCH  29  31
HETATM   31  C   UNL     1      -7.814   5.582  67.471  1.00  0.00    -0.101 C  
HETATM   32  C   UNL     1      -7.900   4.393  68.434  1.00  0.00    -0.079 C  
HETATM   33  C   UNL     1      -9.255   3.693  68.390  1.00  0.00    -0.219 C  
HETATM   34  C   UNL     1      -9.625   3.287  66.968  1.00  0.00    -0.077 C  
HETATM   35  C   UNL     1      -9.594   4.478  66.016  1.00  0.00    -0.190 C  
HETATM   36  C   UNL     1      -8.248   5.198  66.054  1.00  0.00    -0.114 C  
ENDBRANCH  29  31
ENDBRANCH  27  29
ENDBRANCH  25  27
ENDBRANCH  22  25
ENDBRANCH  19  22
ENDBRANCH  15  16
ENDBRANCH  14  15
ENDBRANCH  13  14
ENDBRANCH   4  10
ENDBRANCH   2   3
TORSDOF 10
ENDMDL
MODEL      237
REMARK 921   NORMALIZED FREE ENERGY PREDICTED BY IDOCK:   -4.31 KCAL/MOL
REMARK 922        TOTAL FREE ENERGY PREDICTED BY IDOCK:   -8.80 KCAL/MOL
REMARK 923 INTER-LIGAND FREE ENERGY PREDICTED BY IDOCK:   -6.98 KCAL/MOL
REMARK 924 INTRA-LIGAND FREE ENERGY PREDICTED BY IDOCK:   -1.82 KCAL/MOL
REMARK 927      BINDING AFFINITY PREDICTED BY RF-SCORE:    0.00 PKD
ROOT
HETATM    1  C   UNL     1      -7.940  12.572  67.830  1.00  0.00    -0.157 C  
HETATM    2  O   UNL     1      -8.690  11.395  67.533  1.00  0.00    -0.135 OA 
ENDROOT
BRANCH   2   3
HETATM    3  C   UNL     1      -9.639  11.526  66.553  1.00  0.00    -0.205 A  
HETATM    4  C   UNL     1      -9.470  10.839  65.332  1.00  0.00    -0.258 A  
HETATM    5  C   UNL     1     -10.438  10.982  64.322  1.00  0.00    -0.427 A  
HETATM    6  C   UNL     1     -10.729  12.399  66.703  1.00  0.00    -0.263 A  
HETATM    7 CL   UNL     1     -12.672  12.040  63.239  1.00  0.00    -0.603 Cl 
HETATM    8  C   UNL     1     -11.661  12.563  65.679  1.00  0.00    -0.435 A  
HETATM    9  C   UNL     1     -11.517  11.846  64.499  1.00  0.00    -0.294 A  
BRANCH   4  10
HETATM   10  C   UNL     1      -8.289   9.946  65.088  1.00  0.00    -0.148 C  
HETATM   11  H   UNL     1      -9.389   8.265  65.659  1.00  0.00     0.000 HD 
HETATM   12  O   UNL     1      -7.202  10.392  64.746  1.00  0.00    -0.121 OA 
HETATM   13  N   UNL     1      -8.504   8.585  65.264  1.00  0.00    -0.169 N  
BRANCH  13  14
HETATM   14  C   UNL     1      -7.494   7.609  64.897  1.00  0.00    -0.092 C  
BRANCH  14  15
HETATM   15  C   UNL     1      -8.060   6.202  64.674  1.00  0.00    -0.126 C  
BRANCH  15  16
HETATM   16  C   UNL     1      -8.242   5.359  65.924  1.00  0.00    -0.119 A  
HETATM   17  C   UNL     1      -9.443   4.704  66.241  1.00  0.00    -0.167 A  
HETATM   18  C   UNL     1      -9.585   4.001  67.441  1.00  0.00    -0.222 A  
HETATM   19  C   UNL     1      -8.519   3.935  68.337  1.00  0.00    -0.092 A  
HETATM   20  C   UNL     1      -7.167   5.252  66.823  1.00  0.00    -0.078 A  
HETATM   21  C   UNL     1      -7.306   4.558  68.030  1.00  0.00    -0.065 A  
BRANCH  19  22
HETATM   22  S   UNL     1      -8.766   3.190  69.934  1.00  0.00    -0.085 S  
HETATM   23  O   UNL     1      -7.503   3.272  70.644  1.00  0.00    -0.040 OA 
HETATM   24  O   UNL     1      -9.429   1.918  69.767  1.00  0.00    -0.107 OA 
BRANCH  22  25
HETATM   25  N   UNL     1      -9.776   4.240  70.734  1.00  0.00    -0.193 N  
HETATM   26  H   UNL     1     -10.764   3.996  70.801  1.00  0.00     0.000 HD 
BRANCH  25  27
HETATM   27  C   UNL     1      -9.358   5.425  71.315  1.00  0.00    -0.147 C  
HETATM   28  O   UNL     1      -9.021   5.511  72.481  1.00  0.00    -0.133 OA 
BRANCH  27  29
HETATM   29  N   UNL     1      -9.382   6.484  70.451  1.00  0.00    -0.162 N  
HETATM   30  H   UNL     1      -8.510   6.928  70.161  1.00  0.00     0.000 HD 
BRANCH  29  31
HETATM   31  C   UNL     1     -10.655   6.979  69.944  1.00  0.00    -0.229 C  
HETATM   32  C   UNL     1     -11.688   7.132  71.064  1.00  0.00    -0.358 C  
HETATM   33  C   UNL     1     -11.418   8.341  71.957  1.00  0.00    -0.399 C  
HETATM   34  C   UNL     1     -11.289   9.619  71.137  1.00  0.00    -0.456 C  
HETATM   35  C   UNL     1     -10.223   9.490  70.055  1.00  0.00    -0.281 C  
HETATM   36  C   UNL     1     -10.472   8.280  69.158  1.00  0.00    -0.217 C  
ENDBRANCH  29  31
ENDBRANCH  27  29
ENDBRANCH  25  27
ENDBRANCH  22  25
ENDBRANCH  19  22
ENDBRANCH  15  16
ENDBRANCH  14  15
ENDBRANCH  13  14
ENDBRANCH   4  10
ENDBRANCH   2   3
TORSDOF 10
ENDMDL
MODEL      238
REMARK 921   NORMALIZED FREE ENERGY PREDICTED BY IDOCK:   -4.28 KCAL/MOL
REMARK 922        TOTAL FREE ENERGY PREDICTED BY IDOCK:   -8.74 KCAL/MOL
REMARK 923 INTER-LIGAND FREE ENERGY PREDICTED BY IDOCK:   -7.88 KCAL/MOL
REMARK 924 INTRA-LIGAND FREE ENERGY PREDICTED BY IDOCK:   -0.87 KCAL/MOL
REMARK 927      BINDING AFFINITY PREDICTED BY RF-SCORE:    0.00 PKD
ROOT
HETATM    1  C   UNL     1     -11.161  15.095  70.346  1.00  0.00    -0.279 C  
HETATM    2  O   UNL     1     -11.471  13.751  69.977  1.00  0.00    -0.219 OA 
ENDROOT
BRANCH   2   3
HETATM    3  C   UNL     1     -11.687  13.535  68.641  1.00  0.00    -0.354 A  
HETATM    4  C   UNL     1     -11.685  12.214  68.146  1.00  0.00    -0.402 A  
HETATM    5  C   UNL     1     -11.896  11.993  66.773  1.00  0.00    -0.244 A  
HETATM    6  C   UNL     1     -11.821  14.605  67.741  1.00  0.00    -0.359 A  
HETATM    7 CL   UNL     1     -12.255  12.785  64.219  1.00  0.00    -0.475 Cl 
HETATM    8  C   UNL     1     -11.989  14.374  66.376  1.00  0.00    -0.402 A  
HETATM    9  C   UNL     1     -12.037  13.070  65.901  1.00  0.00    -0.444 A  
BRANCH   4  10
HETATM   10  C   UNL     1     -11.478  11.034  69.051  1.00  0.00    -0.299 C  
HETATM   11  H   UNL     1     -12.967  11.714  70.347  1.00  0.00     0.000 HD 
HETATM   12  O   UNL     1     -10.609  10.200  68.835  1.00  0.00    -0.194 OA 
HETATM   13  N   UNL     1     -12.334  10.941  70.140  1.00  0.00    -0.324 N  
BRANCH  13  14
HETATM   14  C   UNL     1     -12.347   9.763  70.989  1.00  0.00    -0.332 C  
BRANCH  14  15
HETATM   15  C   UNL     1     -10.960   9.381  71.520  1.00  0.00    -0.429 C  
BRANCH  15  16
HETATM   16  C   UNL     1     -10.423   8.039  71.055  1.00  0.00    -0.229 A  
HETATM   17  C   UNL     1      -9.106   7.614  71.293  1.00  0.00    -0.146 A  
HETATM   18  C   UNL     1      -8.636   6.401  70.779  1.00  0.00    -0.135 A  
HETATM   19  C   UNL     1      -9.485   5.591  70.027  1.00  0.00    -0.159 A  
HETATM   20  C   UNL     1     -11.274   7.192  70.326  1.00  0.00    -0.309 A  
HETATM   21  C   UNL     1     -10.808   5.982  69.801  1.00  0.00    -0.433 A  
BRANCH  19  22
HETATM   22  S   UNL     1      -8.831   4.139  69.233  1.00  0.00    -0.104 S  
HETATM   23  O   UNL     1      -9.579   3.003  69.736  1.00  0.00    -0.140 OA 
HETATM   24  O   UNL     1      -7.389   4.161  69.319  1.00  0.00    -0.053 OA 
BRANCH  22  25
HETATM   25  N   UNL     1      -9.292   4.288  67.643  1.00  0.00    -0.150 N  
HETATM   26  H   UNL     1     -10.274   4.132  67.413  1.00  0.00     0.000 HD 
BRANCH  25  27
HETATM   27  C   UNL     1      -8.426   4.609  66.613  1.00  0.00    -0.105 C  
HETATM   28  O   UNL     1      -7.612   3.827  66.160  1.00  0.00    -0.085 OA 
BRANCH  27  29
HETATM   29  N   UNL     1      -8.567   5.898  66.175  1.00  0.00    -0.132 N  
HETATM   30  H   UNL     1      -8.589   6.098  65.175  1.00  0.00     0.000 HD 
BRANCH  29  31
HETATM   31  C   UNL     1      -8.685   6.983  67.139  1.00  0.00    -0.121 C  
HETATM   32  C   UNL     1      -7.329   7.635  67.426  1.00  0.00    -0.092 C  
HETATM   33  C   UNL     1      -6.845   8.522  66.280  1.00  0.00    -0.073 C  
HETATM   34  C   UNL     1      -7.895   9.560  65.900  1.00  0.00    -0.100 C  
HETATM   35  C   UNL     1      -9.232   8.911  65.561  1.00  0.00    -0.242 C  
HETATM   36  C   UNL     1      -9.727   8.012  66.692  1.00  0.00    -0.313 C  
ENDBRANCH  29  31
ENDBRANCH  27  29
ENDBRANCH  25  27
ENDBRANCH  22  25
ENDBRANCH  19  22
ENDBRANCH  15  16
ENDBRANCH  14  15
ENDBRANCH  13  14
ENDBRANCH   4  10
ENDBRANCH   2   3
TORSDOF 10
ENDMDL
MODEL      239
REMARK 921   NORMALIZED FREE ENERGY PREDICTED BY IDOCK:   -4.27 KCAL/MOL
REMARK 922        TOTAL FREE ENERGY PREDICTED BY IDOCK:   -8.73 KCAL/MOL
REMARK 923 INTER-LIGAND FREE ENERGY PREDICTED BY IDOCK:   -7.00 KCAL/MOL
REMARK 924 INTRA-LIGAND FREE ENERGY PREDICTED BY IDOCK:   -1.74 KCAL/MOL
REMARK 927      BINDING AFFINITY PREDICTED BY RF-SCORE:    0.00 PKD
ROOT
HETATM    1  C   UNL     1      -9.529  10.535  68.701  1.00  0.00    -0.172 C  
HETATM    2  O   UNL     1     -10.936  10.745  68.596  1.00  0.00    -0.204 OA 
ENDROOT
BRANCH   2   3
HETATM    3  C   UNL     1     -11.426  11.840  69.260  1.00  0.00    -0.306 A  
HETATM    4  C   UNL     1     -12.208  11.651  70.419  1.00  0.00    -0.434 A  
HETATM    5  C   UNL     1     -12.721  12.774  71.093  1.00  0.00    -0.355 A  
HETATM    6  C   UNL     1     -11.240  13.139  68.761  1.00  0.00    -0.323 A  
HETATM    7 CL   UNL     1     -13.179  15.415  71.400  1.00  0.00    -0.534 Cl 
HETATM    8  C   UNL     1     -11.787  14.242  69.417  1.00  0.00    -0.372 A  
HETATM    9  C   UNL     1     -12.514  14.055  70.585  1.00  0.00    -0.365 A  
BRANCH   4  10
HETATM   10  C   UNL     1     -12.498  10.281  70.960  1.00  0.00    -0.384 C  
HETATM   11  H   UNL     1     -10.491  10.011  71.467  1.00  0.00     0.000 HD 
HETATM   12  O   UNL     1     -13.616   9.787  70.900  1.00  0.00    -0.277 OA 
HETATM   13  N   UNL     1     -11.428   9.613  71.539  1.00  0.00    -0.385 N  
BRANCH  13  14
HETATM   14  C   UNL     1     -11.616   8.360  72.246  1.00  0.00    -0.383 C  
BRANCH  14  15
HETATM   15  C   UNL     1     -10.348   7.861  72.950  1.00  0.00    -0.413 C  
BRANCH  15  16
HETATM   16  C   UNL     1      -9.770   6.559  72.424  1.00  0.00    -0.158 A  
HETATM   17  C   UNL     1     -10.554   5.554  71.834  1.00  0.00    -0.293 A  
HETATM   18  C   UNL     1      -9.987   4.341  71.432  1.00  0.00    -0.238 A  
HETATM   19  C   UNL     1      -8.621   4.122  71.606  1.00  0.00    -0.107 A  
HETATM   20  C   UNL     1      -8.390   6.335  72.558  1.00  0.00    -0.113 A  
HETATM   21  C   UNL     1      -7.818   5.119  72.166  1.00  0.00    -0.108 A  
BRANCH  19  22
HETATM   22  S   UNL     1      -7.942   2.516  71.255  1.00  0.00    -0.043 S  
HETATM   23  O   UNL     1      -8.978   1.542  71.542  1.00  0.00    -0.057 OA 
HETATM   24  O   UNL     1      -6.641   2.405  71.873  1.00  0.00    -0.015 OA 
BRANCH  22  25
HETATM   25  N   UNL     1      -7.773   2.486  69.601  1.00  0.00    -0.043 N  
HETATM   26  H   UNL     1      -8.142   1.680  69.097  1.00  0.00     0.000 HD 
BRANCH  25  27
HETATM   27  C   UNL     1      -7.161   3.488  68.868  1.00  0.00    -0.050 C  
HETATM   28  O   UNL     1      -6.079   3.962  69.162  1.00  0.00    -0.026 OA 
BRANCH  27  29
HETATM   29  N   UNL     1      -7.904   3.899  67.796  1.00  0.00    -0.077 N  
HETATM   30  H   UNL     1      -7.639   3.617  66.852  1.00  0.00     0.000 HD 
BRANCH  29  31
HETATM   31  C   UNL     1      -9.076   4.739  68.005  1.00  0.00    -0.117 C  
HETATM   32  C   UNL     1      -8.692   6.116  68.558  1.00  0.00    -0.111 C  
HETATM   33  C   UNL     1      -8.059   7.022  67.504  1.00  0.00    -0.113 C  
HETATM   34  C   UNL     1      -8.947   7.143  66.271  1.00  0.00    -0.181 C  
HETATM   35  C   UNL     1      -9.287   5.778  65.684  1.00  0.00     0.010 C  
HETATM   36  C   UNL     1      -9.912   4.854  66.727  1.00  0.00    -0.250 C  
ENDBRANCH  29  31
ENDBRANCH  27  29
ENDBRANCH  25  27
ENDBRANCH  22  25
ENDBRANCH  19  22
ENDBRANCH  15  16
ENDBRANCH  14  15
ENDBRANCH  13  14
ENDBRANCH   4  10
ENDBRANCH   2   3
TORSDOF 10
ENDMDL
MODEL      240
REMARK 921   NORMALIZED FREE ENERGY PREDICTED BY IDOCK:   -4.24 KCAL/MOL
REMARK 922        TOTAL FREE ENERGY PREDICTED BY IDOCK:   -8.69 KCAL/MOL
REMARK 923 INTER-LIGAND FREE ENERGY PREDICTED BY IDOCK:   -7.02 KCAL/MOL
REMARK 924 INTRA-LIGAND FREE ENERGY PREDICTED BY IDOCK:   -1.67 KCAL/MOL
REMARK 927      BINDING AFFINITY PREDICTED BY RF-SCORE:    0.00 PKD
ROOT
HETATM    1  C   UNL     1      -9.342   9.461  65.149  1.00  0.00    -0.221 C  
HETATM    2  O   UNL     1      -8.557   9.148  66.298  1.00  0.00    -0.120 OA 
ENDROOT
BRANCH   2   3
HETATM    3  C   UNL     1      -9.193   9.274  67.506  1.00  0.00    -0.124 A  
HETATM    4  C   UNL     1      -8.869  10.361  68.346  1.00  0.00    -0.136 A  
HETATM    5  C   UNL     1      -9.513  10.485  69.590  1.00  0.00    -0.029 A  
HETATM    6  C   UNL     1     -10.094   8.299  67.963  1.00  0.00    -0.243 A  
HETATM    7 CL   UNL     1     -11.163   9.655  71.558  1.00  0.00    -0.432 Cl 
HETATM    8  C   UNL     1     -10.696   8.412  69.215  1.00  0.00    -0.139 A  
HETATM    9  C   UNL     1     -10.412   9.509  70.017  1.00  0.00    -0.247 A  
BRANCH   4  10
HETATM   10  C   UNL     1      -7.862  11.397  67.940  1.00  0.00    -0.117 C  
HETATM   11  H   UNL     1      -6.505  10.697  69.364  1.00  0.00     0.000 HD 
HETATM   12  O   UNL     1      -8.110  12.240  67.088  1.00  0.00    -0.173 OA 
HETATM   13  N   UNL     1      -6.632  11.339  68.581  1.00  0.00    -0.060 N  
BRANCH  13  14
HETATM   14  C   UNL     1      -5.522  12.174  68.159  1.00  0.00    -0.054 C  
BRANCH  14  15
HETATM   15  C   UNL     1      -5.267  13.365  69.092  1.00  0.00    -0.073 C  
BRANCH  15  16
HETATM   16  C   UNL     1      -6.049  14.628  68.777  1.00  0.00    -0.084 A  
HETATM   17  C   UNL     1      -6.389  15.582  69.750  1.00  0.00    -0.164 A  
HETATM   18  C   UNL     1      -7.175  16.692  69.425  1.00  0.00    -0.132 A  
HETATM   19  C   UNL     1      -7.621  16.868  68.116  1.00  0.00    -0.188 A  
HETATM   20  C   UNL     1      -6.477  14.841  67.457  1.00  0.00    -0.090 A  
HETATM   21  C   UNL     1      -7.271  15.944  67.127  1.00  0.00    -0.254 A  
BRANCH  19  22
HETATM   22  S   UNL     1      -8.761  18.184  67.752  1.00  0.00    -0.259 S  
HETATM   23  O   UNL     1      -9.120  18.063  66.351  1.00  0.00    -0.315 OA 
HETATM   24  O   UNL     1      -8.233  19.426  68.267  1.00  0.00    -0.315 OA 
BRANCH  22  25
HETATM   25  N   UNL     1     -10.144  17.783  68.584  1.00  0.00    -0.369 N  
HETATM   26  H   UNL     1     -10.594  18.509  69.141  1.00  0.00     0.000 HD 
BRANCH  25  27
HETATM   27  C   UNL     1     -10.720  16.525  68.566  1.00  0.00    -0.336 C  
HETATM   28  O   UNL     1     -11.018  15.944  67.538  1.00  0.00    -0.323 OA 
BRANCH  27  29
HETATM   29  N   UNL     1     -10.934  16.014  69.816  1.00  0.00    -0.308 N  
HETATM   30  H   UNL     1     -10.149  15.667  70.368  1.00  0.00     0.000 HD 
BRANCH  29  31
HETATM   31  C   UNL     1     -12.284  15.967  70.360  1.00  0.00    -0.263 C  
HETATM   32  C   UNL     1     -12.999  14.665  69.985  1.00  0.00     0.039 C  
HETATM   33  C   UNL     1     -12.491  13.462  70.776  1.00  0.00    -0.418 C  
HETATM   34  C   UNL     1     -12.551  13.719  72.277  1.00  0.00    -0.175 C  
HETATM   35  C   UNL     1     -11.794  14.985  72.663  1.00  0.00    -0.403 C  
HETATM   36  C   UNL     1     -12.282  16.198  71.873  1.00  0.00    -0.497 C  
ENDBRANCH  29  31
ENDBRANCH  27  29
ENDBRANCH  25  27
ENDBRANCH  22  25
ENDBRANCH  19  22
ENDBRANCH  15  16
ENDBRANCH  14  15
ENDBRANCH  13  14
ENDBRANCH   4  10
ENDBRANCH   2   3
TORSDOF 10
ENDMDL
MODEL      241
REMARK 921   NORMALIZED FREE ENERGY PREDICTED BY IDOCK:   -4.23 KCAL/MOL
REMARK 922        TOTAL FREE ENERGY PREDICTED BY IDOCK:   -8.68 KCAL/MOL
REMARK 923 INTER-LIGAND FREE ENERGY PREDICTED BY IDOCK:   -7.06 KCAL/MOL
REMARK 924 INTRA-LIGAND FREE ENERGY PREDICTED BY IDOCK:   -1.62 KCAL/MOL
REMARK 927      BINDING AFFINITY PREDICTED BY RF-SCORE:    0.00 PKD
ROOT
HETATM    1  C   UNL     1     -10.217   8.089  66.747  1.00  0.00    -0.297 C  
HETATM    2  O   UNL     1      -9.994   9.328  66.076  1.00  0.00    -0.290 OA 
ENDROOT
BRANCH   2   3
HETATM    3  C   UNL     1      -8.866   9.390  65.299  1.00  0.00    -0.190 A  
HETATM    4  C   UNL     1      -7.857  10.323  65.620  1.00  0.00    -0.151 A  
HETATM    5  C   UNL     1      -6.705  10.395  64.816  1.00  0.00    -0.037 A  
HETATM    6  C   UNL     1      -8.734   8.608  64.140  1.00  0.00     0.043 A  
HETATM    7 CL   UNL     1      -5.195   9.728  62.682  1.00  0.00    -0.085 Cl 
HETATM    8  C   UNL     1      -7.605   8.717  63.329  1.00  0.00    -0.113 A  
HETATM    9  C   UNL     1      -6.592   9.601  63.677  1.00  0.00    -0.111 A  
BRANCH   4  10
HETATM   10  C   UNL     1      -7.975  11.234  66.807  1.00  0.00    -0.159 C  
HETATM   11  H   UNL     1      -9.586  12.234  65.934  1.00  0.00     0.000 HD 
HETATM   12  O   UNL     1      -7.192  11.174  67.747  1.00  0.00    -0.086 OA 
HETATM   13  N   UNL     1      -9.027  12.139  66.782  1.00  0.00    -0.200 N  
BRANCH  13  14
HETATM   14  C   UNL     1      -9.348  12.953  67.940  1.00  0.00    -0.208 C  
BRANCH  14  15
HETATM   15  C   UNL     1     -10.833  12.915  68.320  1.00  0.00    -0.263 C  
BRANCH  15  16
HETATM   16  C   UNL     1     -11.250  11.775  69.233  1.00  0.00    -0.318 A  
HETATM   17  C   UNL     1     -12.452  11.774  69.960  1.00  0.00    -0.135 A  
HETATM   18  C   UNL     1     -12.757  10.736  70.845  1.00  0.00    -0.478 A  
HETATM   19  C   UNL     1     -11.866   9.676  71.006  1.00  0.00    -0.347 A  
HETATM   20  C   UNL     1     -10.382  10.681  69.381  1.00  0.00    -0.234 A  
HETATM   21  C   UNL     1     -10.677   9.644  70.272  1.00  0.00    -0.335 A  
BRANCH  19  22
HETATM   22  S   UNL     1     -12.179   8.453  72.259  1.00  0.00    -0.370 S  
HETATM   23  O   UNL     1     -13.384   8.858  72.959  1.00  0.00    -0.308 OA 
HETATM   24  O   UNL     1     -10.959   8.199  72.990  1.00  0.00    -0.330 OA 
BRANCH  22  25
HETATM   25  N   UNL     1     -12.613   7.089  71.414  1.00  0.00    -0.384 N  
HETATM   26  H   UNL     1     -13.582   6.776  71.474  1.00  0.00     0.000 HD 
BRANCH  25  27
HETATM   27  C   UNL     1     -11.738   6.352  70.635  1.00  0.00    -0.311 C  
HETATM   28  O   UNL     1     -11.765   6.357  69.418  1.00  0.00    -0.327 OA 
BRANCH  27  29
HETATM   29  N   UNL     1     -10.858   5.608  71.372  1.00  0.00    -0.246 N  
HETATM   30  H   UNL     1     -11.090   5.343  72.329  1.00  0.00     0.000 HD 
BRANCH  29  31
HETATM   31  C   UNL     1      -9.591   5.193  70.786  1.00  0.00    -0.179 C  
HETATM   32  C   UNL     1      -8.538   6.303  70.872  1.00  0.00    -0.135 C  
HETATM   33  C   UNL     1      -7.984   6.486  72.283  1.00  0.00    -0.102 C  
HETATM   34  C   UNL     1      -7.456   5.172  72.846  1.00  0.00    -0.096 C  
HETATM   35  C   UNL     1      -8.518   4.078  72.814  1.00  0.00    -0.100 C  
HETATM   36  C   UNL     1      -9.091   3.887  71.411  1.00  0.00    -0.174 C  
ENDBRANCH  29  31
ENDBRANCH  27  29
ENDBRANCH  25  27
ENDBRANCH  22  25
ENDBRANCH  19  22
ENDBRANCH  15  16
ENDBRANCH  14  15
ENDBRANCH  13  14
ENDBRANCH   4  10
ENDBRANCH   2   3
TORSDOF 10
ENDMDL
MODEL      242
REMARK 921   NORMALIZED FREE ENERGY PREDICTED BY IDOCK:   -4.20 KCAL/MOL
REMARK 922        TOTAL FREE ENERGY PREDICTED BY IDOCK:   -8.62 KCAL/MOL
REMARK 923 INTER-LIGAND FREE ENERGY PREDICTED BY IDOCK:   -7.91 KCAL/MOL
REMARK 924 INTRA-LIGAND FREE ENERGY PREDICTED BY IDOCK:   -0.72 KCAL/MOL
REMARK 927      BINDING AFFINITY PREDICTED BY RF-SCORE:    0.00 PKD
ROOT
HETATM    1  C   UNL     1      -5.318   8.325  66.753  1.00  0.00    -0.032 C  
HETATM    2  O   UNL     1      -5.759   8.280  68.109  1.00  0.00    -0.033 OA 
ENDROOT
BRANCH   2   3
HETATM    3  C   UNL     1      -6.309   7.093  68.518  1.00  0.00    -0.036 A  
HETATM    4  C   UNL     1      -7.713   6.976  68.603  1.00  0.00    -0.120 A  
HETATM    5  C   UNL     1      -8.277   5.761  69.033  1.00  0.00    -0.101 A  
HETATM    6  C   UNL     1      -5.504   6.022  68.938  1.00  0.00    -0.007 A  
HETATM    7 CL   UNL     1      -8.162   3.242  69.995  1.00  0.00    -0.060 Cl 
HETATM    8  C   UNL     1      -6.075   4.837  69.400  1.00  0.00    -0.026 A  
HETATM    9  C   UNL     1      -7.457   4.708  69.435  1.00  0.00    -0.052 A  
BRANCH   4  10
HETATM   10  C   UNL     1      -8.622   8.111  68.232  1.00  0.00    -0.130 C  
HETATM   11  H   UNL     1      -8.822   7.372  66.290  1.00  0.00     0.000 HD 
HETATM   12  O   UNL     1      -8.885   9.010  69.020  1.00  0.00    -0.133 OA 
HETATM   13  N   UNL     1      -9.154   8.075  66.951  1.00  0.00    -0.145 N  
BRANCH  13  14
HETATM   14  C   UNL     1     -10.175   9.018  66.532  1.00  0.00    -0.248 C  
BRANCH  14  15
HETATM   15  C   UNL     1      -9.733   9.920  65.373  1.00  0.00    -0.375 C  
BRANCH  15  16
HETATM   16  C   UNL     1      -9.890  11.413  65.603  1.00  0.00    -0.274 A  
HETATM   17  C   UNL     1     -10.686  12.236  64.791  1.00  0.00    -0.338 A  
HETATM   18  C   UNL     1     -10.740  13.618  64.998  1.00  0.00    -0.374 A  
HETATM   19  C   UNL     1     -10.002  14.194  66.031  1.00  0.00    -0.322 A  
HETATM   20  C   UNL     1      -9.182  12.007  66.662  1.00  0.00    -0.211 A  
HETATM   21  C   UNL     1      -9.224  13.390  66.868  1.00  0.00    -0.251 A  
BRANCH  19  22
HETATM   22  S   UNL     1      -9.939  15.966  66.176  1.00  0.00    -0.340 S  
HETATM   23  O   UNL     1     -10.808  16.510  65.151  1.00  0.00    -0.543 OA 
HETATM   24  O   UNL     1      -8.559  16.386  66.264  1.00  0.00    -0.296 OA 
BRANCH  22  25
HETATM   25  N   UNL     1     -10.710  16.296  67.612  1.00  0.00    -0.318 N  
HETATM   26  H   UNL     1     -11.724  16.400  67.597  1.00  0.00     0.000 HD 
BRANCH  25  27
HETATM   27  C   UNL     1     -10.058  16.439  68.824  1.00  0.00    -0.247 C  
HETATM   28  O   UNL     1      -8.848  16.517  68.924  1.00  0.00    -0.241 OA 
BRANCH  27  29
HETATM   29  N   UNL     1     -10.911  16.464  69.893  1.00  0.00    -0.361 N  
HETATM   30  H   UNL     1     -11.384  17.330  70.150  1.00  0.00     0.000 HD 
BRANCH  29  31
HETATM   31  C   UNL     1     -11.144  15.250  70.664  1.00  0.00    -0.308 C  
HETATM   32  C   UNL     1     -10.927  15.481  72.163  1.00  0.00     0.158 C  
HETATM   33  C   UNL     1     -12.060  16.274  72.810  1.00  0.00    -0.637 C  
HETATM   34  C   UNL     1     -13.414  15.631  72.535  1.00  0.00    -0.630 C  
HETATM   35  C   UNL     1     -13.659  15.448  71.041  1.00  0.00    -0.465 C  
HETATM   36  C   UNL     1     -12.530  14.666  70.375  1.00  0.00    -0.410 C  
ENDBRANCH  29  31
ENDBRANCH  27  29
ENDBRANCH  25  27
ENDBRANCH  22  25
ENDBRANCH  19  22
ENDBRANCH  15  16
ENDBRANCH  14  15
ENDBRANCH  13  14
ENDBRANCH   4  10
ENDBRANCH   2   3
TORSDOF 10
ENDMDL
MODEL      243
REMARK 921   NORMALIZED FREE ENERGY PREDICTED BY IDOCK:   -4.19 KCAL/MOL
REMARK 922        TOTAL FREE ENERGY PREDICTED BY IDOCK:   -8.61 KCAL/MOL
REMARK 923 INTER-LIGAND FREE ENERGY PREDICTED BY IDOCK:   -7.09 KCAL/MOL
REMARK 924 INTRA-LIGAND FREE ENERGY PREDICTED BY IDOCK:   -1.52 KCAL/MOL
REMARK 927      BINDING AFFINITY PREDICTED BY RF-SCORE:    0.00 PKD
ROOT
HETATM    1  C   UNL     1      -9.583  15.927  67.779  1.00  0.00    -0.218 C  
HETATM    2  O   UNL     1     -10.599  14.952  68.012  1.00  0.00    -0.243 OA 
ENDROOT
BRANCH   2   3
HETATM    3  C   UNL     1     -11.133  14.370  66.891  1.00  0.00    -0.323 A  
HETATM    4  C   UNL     1     -11.400  12.984  66.894  1.00  0.00    -0.352 A  
HETATM    5  C   UNL     1     -11.938  12.385  65.741  1.00  0.00    -0.437 A  
HETATM    6  C   UNL     1     -11.337  15.105  65.713  1.00  0.00    -0.238 A  
HETATM    7 CL   UNL     1     -12.764  12.383  63.172  1.00  0.00    -0.322 Cl 
HETATM    8  C   UNL     1     -11.833  14.491  64.563  1.00  0.00    -0.459 A  
HETATM    9  C   UNL     1     -12.142  13.138  64.586  1.00  0.00    -0.408 A  
BRANCH   4  10
HETATM   10  C   UNL     1     -11.138  12.134  68.103  1.00  0.00    -0.248 C  
HETATM   11  H   UNL     1      -9.422  11.336  67.221  1.00  0.00     0.000 HD 
HETATM   12  O   UNL     1     -11.904  12.114  69.057  1.00  0.00    -0.303 OA 
HETATM   13  N   UNL     1      -9.973  11.379  68.078  1.00  0.00    -0.177 N  
BRANCH  13  14
HETATM   14  C   UNL     1      -9.523  10.650  69.250  1.00  0.00    -0.133 C  
BRANCH  14  15
HETATM   15  C   UNL     1     -10.221   9.296  69.430  1.00  0.00    -0.214 C  
BRANCH  15  16
HETATM   16  C   UNL     1      -9.926   8.256  68.364  1.00  0.00    -0.211 A  
HETATM   17  C   UNL     1     -10.910   7.419  67.814  1.00  0.00    -0.186 A  
HETATM   18  C   UNL     1     -10.577   6.425  66.889  1.00  0.00    -0.379 A  
HETATM   19  C   UNL     1      -9.250   6.264  66.492  1.00  0.00    -0.154 A  
HETATM   20  C   UNL     1      -8.600   8.102  67.925  1.00  0.00    -0.132 A  
HETATM   21  C   UNL     1      -8.258   7.104  67.006  1.00  0.00    -0.117 A  
BRANCH  19  22
HETATM   22  S   UNL     1      -8.810   4.889  65.453  1.00  0.00    -0.152 S  
HETATM   23  O   UNL     1      -7.449   4.517  65.788  1.00  0.00    -0.079 OA 
HETATM   24  O   UNL     1      -9.170   5.193  64.087  1.00  0.00     0.043 OA 
BRANCH  22  25
HETATM   25  N   UNL     1      -9.746   3.631  66.004  1.00  0.00    -0.371 N  
HETATM   26  H   UNL     1     -10.754   3.774  66.064  1.00  0.00     0.000 HD 
BRANCH  25  27
HETATM   27  C   UNL     1      -9.240   2.401  66.387  1.00  0.00    -0.012 C  
HETATM   28  O   UNL     1      -8.775   1.598  65.600  1.00  0.00    -0.105 OA 
BRANCH  27  29
HETATM   29  N   UNL     1      -9.335   2.177  67.733  1.00  0.00    -0.305 N  
HETATM   30  H   UNL     1     -10.142   1.683  68.114  1.00  0.00     0.000 HD 
BRANCH  29  31
HETATM   31  C   UNL     1      -8.279   2.644  68.622  1.00  0.00    -0.059 C  
HETATM   32  C   UNL     1      -8.550   4.067  69.122  1.00  0.00    -0.111 C  
HETATM   33  C   UNL     1      -9.653   4.124  70.176  1.00  0.00    -0.272 C  
HETATM   34  C   UNL     1      -9.366   3.172  71.332  1.00  0.00    -0.207 C  
HETATM   35  C   UNL     1      -9.150   1.743  70.844  1.00  0.00    -0.150 C  
HETATM   36  C   UNL     1      -8.057   1.668  69.781  1.00  0.00    -0.056 C  
ENDBRANCH  29  31
ENDBRANCH  27  29
ENDBRANCH  25  27
ENDBRANCH  22  25
ENDBRANCH  19  22
ENDBRANCH  15  16
ENDBRANCH  14  15
ENDBRANCH  13  14
ENDBRANCH   4  10
ENDBRANCH   2   3
TORSDOF 10
ENDMDL
MODEL      244
REMARK 921   NORMALIZED FREE ENERGY PREDICTED BY IDOCK:   -4.16 KCAL/MOL
REMARK 922        TOTAL FREE ENERGY PREDICTED BY IDOCK:   -8.56 KCAL/MOL
REMARK 923 INTER-LIGAND FREE ENERGY PREDICTED BY IDOCK:   -8.14 KCAL/MOL
REMARK 924 INTRA-LIGAND FREE ENERGY PREDICTED BY IDOCK:   -0.42 KCAL/MOL
REMARK 927      BINDING AFFINITY PREDICTED BY RF-SCORE:    0.00 PKD
ROOT
HETATM    1  C   UNL     1      -9.933  19.839  66.293  1.00  0.00    -0.478 C  
HETATM    2  O   UNL     1     -10.166  18.433  66.359  1.00  0.00    -0.370 OA 
ENDROOT
BRANCH   2   3
HETATM    3  C   UNL     1      -9.094  17.670  66.744  1.00  0.00    -0.260 A  
HETATM    4  C   UNL     1      -9.232  16.790  67.838  1.00  0.00    -0.225 A  
HETATM    5  C   UNL     1      -8.130  16.015  68.241  1.00  0.00    -0.150 A  
HETATM    6  C   UNL     1      -7.839  17.810  66.130  1.00  0.00    -0.262 A  
HETATM    7 CL   UNL     1      -5.548  15.237  68.138  1.00  0.00    -0.120 Cl 
HETATM    8  C   UNL     1      -6.743  17.065  66.564  1.00  0.00    -0.267 A  
HETATM    9  C   UNL     1      -6.896  16.164  67.609  1.00  0.00    -0.152 A  
BRANCH   4  10
HETATM   10  C   UNL     1     -10.531  16.649  68.577  1.00  0.00    -0.319 C  
HETATM   11  H   UNL     1      -9.568  15.710  70.175  1.00  0.00     0.000 HD 
HETATM   12  O   UNL     1     -11.594  17.006  68.088  1.00  0.00     0.108 OA 
HETATM   13  N   UNL     1     -10.454  16.099  69.850  1.00  0.00    -0.284 N  
BRANCH  13  14
HETATM   14  C   UNL     1     -11.610  16.066  70.727  1.00  0.00    -0.400 C  
BRANCH  14  15
HETATM   15  C   UNL     1     -12.706  15.103  70.255  1.00  0.00    -0.340 C  
BRANCH  15  16
HETATM   16  C   UNL     1     -12.265  13.669  70.018  1.00  0.00    -0.395 A  
HETATM   17  C   UNL     1     -12.514  12.628  70.928  1.00  0.00    -0.368 A  
HETATM   18  C   UNL     1     -12.024  11.339  70.700  1.00  0.00    -0.435 A  
HETATM   19  C   UNL     1     -11.285  11.072  69.548  1.00  0.00    -0.279 A  
HETATM   20  C   UNL     1     -11.550  13.371  68.846  1.00  0.00    -0.356 A  
HETATM   21  C   UNL     1     -11.048  12.086  68.617  1.00  0.00    -0.298 A  
BRANCH  19  22
HETATM   22  S   UNL     1     -10.518   9.478  69.353  1.00  0.00    -0.226 S  
HETATM   23  O   UNL     1      -9.237   9.533  70.031  1.00  0.00    -0.200 OA 
HETATM   24  O   UNL     1     -10.595   9.081  67.966  1.00  0.00    -0.229 OA 
BRANCH  22  25
HETATM   25  N   UNL     1     -11.446   8.451  70.275  1.00  0.00    -0.454 N  
HETATM   26  H   UNL     1     -12.205   8.855  70.824  1.00  0.00     0.000 HD 
BRANCH  25  27
HETATM   27  C   UNL     1     -11.252   7.083  70.341  1.00  0.00    -0.299 C  
HETATM   28  O   UNL     1     -12.159   6.289  70.507  1.00  0.00    -0.186 OA 
BRANCH  27  29
HETATM   29  N   UNL     1      -9.938   6.720  70.219  1.00  0.00    -0.178 N  
HETATM   30  H   UNL     1      -9.219   7.435  70.111  1.00  0.00     0.000 HD 
BRANCH  29  31
HETATM   31  C   UNL     1      -9.569   5.311  70.244  1.00  0.00    -0.179 C  
HETATM   32  C   UNL     1      -9.933   4.608  68.933  1.00  0.00    -0.168 C  
HETATM   33  C   UNL     1      -8.997   4.975  67.784  1.00  0.00    -0.117 C  
HETATM   34  C   UNL     1      -7.539   4.736  68.159  1.00  0.00    -0.081 C  
HETATM   35  C   UNL     1      -7.156   5.478  69.435  1.00  0.00    -0.064 C  
HETATM   36  C   UNL     1      -8.089   5.132  70.593  1.00  0.00    -0.106 C  
ENDBRANCH  29  31
ENDBRANCH  27  29
ENDBRANCH  25  27
ENDBRANCH  22  25
ENDBRANCH  19  22
ENDBRANCH  15  16
ENDBRANCH  14  15
ENDBRANCH  13  14
ENDBRANCH   4  10
ENDBRANCH   2   3
TORSDOF 10
ENDMDL
MODEL      245
REMARK 921   NORMALIZED FREE ENERGY PREDICTED BY IDOCK:   -4.14 KCAL/MOL
REMARK 922        TOTAL FREE ENERGY PREDICTED BY IDOCK:   -8.54 KCAL/MOL
REMARK 923 INTER-LIGAND FREE ENERGY PREDICTED BY IDOCK:   -7.72 KCAL/MOL
REMARK 924 INTRA-LIGAND FREE ENERGY PREDICTED BY IDOCK:   -0.82 KCAL/MOL
REMARK 927      BINDING AFFINITY PREDICTED BY RF-SCORE:    0.00 PKD
ROOT
HETATM    1  C   UNL     1     -10.845  16.993  65.325  1.00  0.00    -0.071 C  
HETATM    2  O   UNL     1     -10.858  17.157  66.743  1.00  0.00    -0.152 OA 
ENDROOT
BRANCH   2   3
HETATM    3  C   UNL     1      -9.760  17.777  67.281  1.00  0.00    -0.285 A  
HETATM    4  C   UNL     1      -8.960  17.079  68.210  1.00  0.00    -0.242 A  
HETATM    5  C   UNL     1      -7.840  17.718  68.771  1.00  0.00    -0.251 A  
HETATM    6  C   UNL     1      -9.466  19.119  66.994  1.00  0.00    -0.367 A  
HETATM    7 CL   UNL     1      -6.211  19.829  69.187  1.00  0.00    -0.322 Cl 
HETATM    8  C   UNL     1      -8.375  19.755  67.588  1.00  0.00    -0.355 A  
HETATM    9  C   UNL     1      -7.562  19.048  68.464  1.00  0.00    -0.329 A  
BRANCH   4  10
HETATM   10  C   UNL     1      -9.266  15.664  68.607  1.00  0.00    -0.205 C  
HETATM   11  H   UNL     1      -9.114  15.030  66.624  1.00  0.00     0.000 HD 
HETATM   12  O   UNL     1      -9.529  15.360  69.764  1.00  0.00    -0.260 OA 
HETATM   13  N   UNL     1      -9.224  14.720  67.590  1.00  0.00    -0.188 N  
BRANCH  13  14
HETATM   14  C   UNL     1      -9.334  13.301  67.873  1.00  0.00    -0.214 C  
BRANCH  14  15
HETATM   15  C   UNL     1     -10.750  12.867  68.270  1.00  0.00    -0.261 C  
BRANCH  15  16
HETATM   16  C   UNL     1     -10.840  11.616  69.126  1.00  0.00    -0.231 A  
HETATM   17  C   UNL     1     -10.061  10.470  68.897  1.00  0.00    -0.215 A  
HETATM   18  C   UNL     1     -10.233   9.316  69.667  1.00  0.00    -0.219 A  
HETATM   19  C   UNL     1     -11.183   9.298  70.687  1.00  0.00    -0.276 A  
HETATM   20  C   UNL     1     -11.767  11.591  70.182  1.00  0.00    -0.395 A  
HETATM   21  C   UNL     1     -11.951  10.436  70.950  1.00  0.00    -0.478 A  
BRANCH  19  22
HETATM   22  S   UNL     1     -11.517   7.774  71.543  1.00  0.00    -0.273 S  
HETATM   23  O   UNL     1     -12.482   7.039  70.748  1.00  0.00    -0.338 OA 
HETATM   24  O   UNL     1     -11.781   8.059  72.935  1.00  0.00    -0.369 OA 
BRANCH  22  25
HETATM   25  N   UNL     1     -10.105   6.905  71.416  1.00  0.00    -0.186 N  
HETATM   26  H   UNL     1      -9.227   7.390  71.597  1.00  0.00     0.000 HD 
BRANCH  25  27
HETATM   27  C   UNL     1     -10.051   5.564  71.079  1.00  0.00    -0.209 C  
HETATM   28  O   UNL     1      -9.634   5.163  70.008  1.00  0.00    -0.153 OA 
BRANCH  27  29
HETATM   29  N   UNL     1     -10.530   4.743  72.063  1.00  0.00    -0.187 N  
HETATM   30  H   UNL     1     -11.460   4.332  71.979  1.00  0.00     0.000 HD 
BRANCH  29  31
HETATM   31  C   UNL     1      -9.709   4.457  73.232  1.00  0.00    -0.129 C  
HETATM   32  C   UNL     1     -10.563   4.044  74.435  1.00  0.00    -0.253 C  
HETATM   33  C   UNL     1     -11.119   2.628  74.308  1.00  0.00    -0.001 C  
HETATM   34  C   UNL     1     -10.009   1.618  74.038  1.00  0.00    -0.116 C  
HETATM   35  C   UNL     1      -9.190   1.995  72.809  1.00  0.00    -0.105 C  
HETATM   36  C   UNL     1      -8.634   3.414  72.914  1.00  0.00    -0.083 C  
ENDBRANCH  29  31
ENDBRANCH  27  29
ENDBRANCH  25  27
ENDBRANCH  22  25
ENDBRANCH  19  22
ENDBRANCH  15  16
ENDBRANCH  14  15
ENDBRANCH  13  14
ENDBRANCH   4  10
ENDBRANCH   2   3
TORSDOF 10
ENDMDL
MODEL      246
REMARK 921   NORMALIZED FREE ENERGY PREDICTED BY IDOCK:   -4.12 KCAL/MOL
REMARK 922        TOTAL FREE ENERGY PREDICTED BY IDOCK:   -8.50 KCAL/MOL
REMARK 923 INTER-LIGAND FREE ENERGY PREDICTED BY IDOCK:   -6.94 KCAL/MOL
REMARK 924 INTRA-LIGAND FREE ENERGY PREDICTED BY IDOCK:   -1.56 KCAL/MOL
REMARK 927      BINDING AFFINITY PREDICTED BY RF-SCORE:    0.00 PKD
ROOT
HETATM    1  C   UNL     1      -8.496   9.506  67.907  1.00  0.00    -0.119 C  
HETATM    2  O   UNL     1      -8.148  10.088  66.652  1.00  0.00    -0.116 OA 
ENDROOT
BRANCH   2   3
HETATM    3  C   UNL     1      -9.196  10.539  65.893  1.00  0.00    -0.179 A  
HETATM    4  C   UNL     1      -9.190  10.309  64.501  1.00  0.00    -0.295 A  
HETATM    5  C   UNL     1     -10.260  10.783  63.721  1.00  0.00    -0.354 A  
HETATM    6  C   UNL     1     -10.230  11.303  66.458  1.00  0.00    -0.269 A  
HETATM    7 CL   UNL     1     -12.564  12.134  63.332  1.00  0.00    -0.661 Cl 
HETATM    8  C   UNL     1     -11.266  11.801  65.667  1.00  0.00    -0.324 A  
HETATM    9  C   UNL     1     -11.282  11.529  64.306  1.00  0.00    -0.283 A  
BRANCH   4  10
HETATM   10  C   UNL     1      -8.076   9.559  63.831  1.00  0.00    -0.152 C  
HETATM   11  H   UNL     1      -9.377   8.012  63.308  1.00  0.00     0.000 HD 
HETATM   12  O   UNL     1      -6.924   9.971  63.840  1.00  0.00    -0.123 OA 
HETATM   13  N   UNL     1      -8.431   8.377  63.195  1.00  0.00    -0.084 N  
BRANCH  13  14
HETATM   14  C   UNL     1      -7.482   7.651  62.371  1.00  0.00    -0.098 C  
BRANCH  14  15
HETATM   15  C   UNL     1      -7.092   6.285  62.950  1.00  0.00    -0.048 C  
BRANCH  15  16
HETATM   16  C   UNL     1      -7.712   5.938  64.293  1.00  0.00    -0.106 A  
HETATM   17  C   UNL     1      -8.884   5.177  64.424  1.00  0.00    -0.041 A  
HETATM   18  C   UNL     1      -9.457   4.946  65.678  1.00  0.00    -0.168 A  
HETATM   19  C   UNL     1      -8.855   5.468  66.822  1.00  0.00    -0.114 A  
HETATM   20  C   UNL     1      -7.100   6.425  65.460  1.00  0.00    -0.065 A  
HETATM   21  C   UNL     1      -7.673   6.206  66.717  1.00  0.00    -0.103 A  
BRANCH  19  22
HETATM   22  S   UNL     1      -9.683   5.319  68.390  1.00  0.00    -0.150 S  
HETATM   23  O   UNL     1      -9.588   3.929  68.793  1.00  0.00    -0.162 OA 
HETATM   24  O   UNL     1     -10.970   5.972  68.311  1.00  0.00    -0.303 OA 
BRANCH  22  25
HETATM   25  N   UNL     1      -8.710   6.142  69.457  1.00  0.00    -0.129 N  
HETATM   26  H   UNL     1      -7.768   6.390  69.153  1.00  0.00     0.000 HD 
BRANCH  25  27
HETATM   27  C   UNL     1      -9.100   6.511  70.733  1.00  0.00    -0.154 C  
HETATM   28  O   UNL     1      -8.375   6.413  71.705  1.00  0.00    -0.119 OA 
BRANCH  27  29
HETATM   29  N   UNL     1     -10.385   6.978  70.787  1.00  0.00    -0.205 N  
HETATM   30  H   UNL     1     -10.865   7.256  69.931  1.00  0.00     0.000 HD 
BRANCH  29  31
HETATM   31  C   UNL     1     -11.067   7.078  72.071  1.00  0.00    -0.243 C  
HETATM   32  C   UNL     1     -11.157   8.530  72.551  1.00  0.00    -0.328 C  
HETATM   33  C   UNL     1     -12.194   9.345  71.782  1.00  0.00    -0.465 C  
HETATM   34  C   UNL     1     -13.558   8.665  71.799  1.00  0.00    -0.439 C  
HETATM   35  C   UNL     1     -13.484   7.237  71.269  1.00  0.00    -0.333 C  
HETATM   36  C   UNL     1     -12.444   6.409  72.021  1.00  0.00    -0.212 C  
ENDBRANCH  29  31
ENDBRANCH  27  29
ENDBRANCH  25  27
ENDBRANCH  22  25
ENDBRANCH  19  22
ENDBRANCH  15  16
ENDBRANCH  14  15
ENDBRANCH  13  14
ENDBRANCH   4  10
ENDBRANCH   2   3
TORSDOF 10
ENDMDL
MODEL      247
REMARK 921   NORMALIZED FREE ENERGY PREDICTED BY IDOCK:   -4.11 KCAL/MOL
REMARK 922        TOTAL FREE ENERGY PREDICTED BY IDOCK:   -8.49 KCAL/MOL
REMARK 923 INTER-LIGAND FREE ENERGY PREDICTED BY IDOCK:   -6.68 KCAL/MOL
REMARK 924 INTRA-LIGAND FREE ENERGY PREDICTED BY IDOCK:   -1.81 KCAL/MOL
REMARK 927      BINDING AFFINITY PREDICTED BY RF-SCORE:    0.00 PKD
ROOT
HETATM    1  C   UNL     1     -12.089   9.151  71.874  1.00  0.00    -0.378 C  
HETATM    2  O   UNL     1     -10.765   8.654  71.683  1.00  0.00    -0.254 OA 
ENDROOT
BRANCH   2   3
HETATM    3  C   UNL     1     -10.565   7.913  70.547  1.00  0.00    -0.223 A  
HETATM    4  C   UNL     1      -9.511   8.258  69.674  1.00  0.00    -0.163 A  
HETATM    5  C   UNL     1      -9.314   7.505  68.503  1.00  0.00    -0.142 A  
HETATM    6  C   UNL     1     -11.441   6.876  70.189  1.00  0.00    -0.354 A  
HETATM    7 CL   UNL     1      -9.957   5.585  66.719  1.00  0.00    -0.182 Cl 
HETATM    8  C   UNL     1     -11.258   6.162  69.005  1.00  0.00    -0.375 A  
HETATM    9  C   UNL     1     -10.190   6.472  68.174  1.00  0.00    -0.168 A  
BRANCH   4  10
HETATM   10  C   UNL     1      -8.585   9.401  69.970  1.00  0.00    -0.203 C  
HETATM   11  H   UNL     1      -7.117   8.088  70.662  1.00  0.00     0.000 HD 
HETATM   12  O   UNL     1      -8.924  10.566  69.807  1.00  0.00    -0.054 OA 
HETATM   13  N   UNL     1      -7.321   9.060  70.431  1.00  0.00    -0.072 N  
BRANCH  13  14
HETATM   14  C   UNL     1      -6.282  10.062  70.591  1.00  0.00    -0.103 C  
BRANCH  14  15
HETATM   15  C   UNL     1      -5.723  10.577  69.259  1.00  0.00    -0.037 C  
BRANCH  15  16
HETATM   16  C   UNL     1      -6.055  12.020  68.919  1.00  0.00    -0.067 A  
HETATM   17  C   UNL     1      -6.202  12.484  67.602  1.00  0.00    -0.141 A  
HETATM   18  C   UNL     1      -6.435  13.837  67.336  1.00  0.00     0.063 A  
HETATM   19  C   UNL     1      -6.535  14.743  68.391  1.00  0.00    -0.103 A  
HETATM   20  C   UNL     1      -6.196  12.942  69.969  1.00  0.00    -0.058 A  
HETATM   21  C   UNL     1      -6.420  14.298  69.710  1.00  0.00    -0.142 A  
BRANCH  19  22
HETATM   22  S   UNL     1      -6.656  16.483  68.038  1.00  0.00    -0.144 S  
HETATM   23  O   UNL     1      -5.792  16.750  66.904  1.00  0.00    -0.164 OA 
HETATM   24  O   UNL     1      -6.503  17.228  69.266  1.00  0.00    -0.223 OA 
BRANCH  22  25
HETATM   25  N   UNL     1      -8.200  16.686  67.457  1.00  0.00    -0.163 N  
HETATM   26  H   UNL     1      -8.324  17.236  66.607  1.00  0.00     0.000 HD 
BRANCH  25  27
HETATM   27  C   UNL     1      -9.329  16.155  68.057  1.00  0.00    -0.203 C  
HETATM   28  O   UNL     1      -9.563  16.262  69.247  1.00  0.00    -0.248 OA 
BRANCH  27  29
HETATM   29  N   UNL     1     -10.138  15.484  67.182  1.00  0.00    -0.250 N  
HETATM   30  H   UNL     1     -10.402  15.917  66.297  1.00  0.00     0.000 HD 
BRANCH  29  31
HETATM   31  C   UNL     1     -10.621  14.151  67.515  1.00  0.00    -0.257 C  
HETATM   32  C   UNL     1     -12.135  14.032  67.315  1.00  0.00    -0.405 C  
HETATM   33  C   UNL     1     -12.534  13.958  65.844  1.00  0.00    -0.519 C  
HETATM   34  C   UNL     1     -11.787  12.843  65.121  1.00  0.00    -0.415 C  
HETATM   35  C   UNL     1     -10.276  12.988  65.271  1.00  0.00    -0.294 C  
HETATM   36  C   UNL     1      -9.859  13.074  66.738  1.00  0.00    -0.243 C  
ENDBRANCH  29  31
ENDBRANCH  27  29
ENDBRANCH  25  27
ENDBRANCH  22  25
ENDBRANCH  19  22
ENDBRANCH  15  16
ENDBRANCH  14  15
ENDBRANCH  13  14
ENDBRANCH   4  10
ENDBRANCH   2   3
TORSDOF 10
ENDMDL
MODEL      248
REMARK 921   NORMALIZED FREE ENERGY PREDICTED BY IDOCK:   -4.10 KCAL/MOL
REMARK 922        TOTAL FREE ENERGY PREDICTED BY IDOCK:   -8.47 KCAL/MOL
REMARK 923 INTER-LIGAND FREE ENERGY PREDICTED BY IDOCK:   -7.33 KCAL/MOL
REMARK 924 INTRA-LIGAND FREE ENERGY PREDICTED BY IDOCK:   -1.14 KCAL/MOL
REMARK 927      BINDING AFFINITY PREDICTED BY RF-SCORE:    0.00 PKD
ROOT
HETATM    1  C   UNL     1      -7.033   3.988  69.756  1.00  0.00    -0.042 C  
HETATM    2  O   UNL     1      -7.245   5.018  70.720  1.00  0.00    -0.056 OA 
ENDROOT
BRANCH   2   3
HETATM    3  C   UNL     1      -8.554   5.291  71.021  1.00  0.00    -0.123 A  
HETATM    4  C   UNL     1      -9.186   6.397  70.413  1.00  0.00    -0.159 A  
HETATM    5  C   UNL     1     -10.526   6.684  70.731  1.00  0.00    -0.251 A  
HETATM    6  C   UNL     1      -9.251   4.549  71.988  1.00  0.00    -0.170 A  
HETATM    7 CL   UNL     1     -12.826   6.313  72.093  1.00  0.00    -0.069 Cl 
HETATM    8  C   UNL     1     -10.566   4.868  72.324  1.00  0.00    -0.251 A  
HETATM    9  C   UNL     1     -11.200   5.926  71.686  1.00  0.00    -0.237 A  
BRANCH   4  10
HETATM   10  C   UNL     1      -8.469   7.268  69.424  1.00  0.00    -0.133 C  
HETATM   11  H   UNL     1      -9.545   6.430  67.843  1.00  0.00     0.000 HD 
HETATM   12  O   UNL     1      -7.579   8.035  69.765  1.00  0.00    -0.087 OA 
HETATM   13  N   UNL     1      -8.881   7.160  68.102  1.00  0.00    -0.127 N  
BRANCH  13  14
HETATM   14  C   UNL     1      -8.386   8.066  67.082  1.00  0.00    -0.121 C  
BRANCH  14  15
HETATM   15  C   UNL     1      -9.497   8.682  66.223  1.00  0.00    -0.307 C  
BRANCH  15  16
HETATM   16  C   UNL     1     -10.024  10.027  66.691  1.00  0.00    -0.274 A  
HETATM   17  C   UNL     1     -10.835  10.854  65.897  1.00  0.00    -0.132 A  
HETATM   18  C   UNL     1     -11.233  12.117  66.344  1.00  0.00    -0.380 A  
HETATM   19  C   UNL     1     -10.833  12.566  67.601  1.00  0.00    -0.225 A  
HETATM   20  C   UNL     1      -9.661  10.482  67.970  1.00  0.00    -0.159 A  
HETATM   21  C   UNL     1     -10.048  11.749  68.420  1.00  0.00    -0.201 A  
BRANCH  19  22
HETATM   22  S   UNL     1     -11.197  14.238  68.088  1.00  0.00    -0.289 S  
HETATM   23  O   UNL     1     -10.013  14.759  68.746  1.00  0.00    -0.223 OA 
HETATM   24  O   UNL     1     -12.478  14.270  68.755  1.00  0.00    -0.157 OA 
BRANCH  22  25
HETATM   25  N   UNL     1     -11.296  15.078  66.657  1.00  0.00    -0.326 N  
HETATM   26  H   UNL     1     -12.126  14.943  66.079  1.00  0.00     0.000 HD 
BRANCH  25  27
HETATM   27  C   UNL     1     -10.322  15.951  66.204  1.00  0.00    -0.328 C  
HETATM   28  O   UNL     1      -9.554  15.678  65.301  1.00  0.00    -0.293 OA 
BRANCH  27  29
HETATM   29  N   UNL     1     -10.304  17.137  66.885  1.00  0.00    -0.317 N  
HETATM   30  H   UNL     1     -11.173  17.644  67.052  1.00  0.00     0.000 HD 
BRANCH  29  31
HETATM   31  C   UNL     1      -9.040  17.673  67.373  1.00  0.00    -0.239 C  
HETATM   32  C   UNL     1      -8.279  18.417  66.272  1.00  0.00    -0.245 C  
HETATM   33  C   UNL     1      -8.889  19.778  65.946  1.00  0.00    -0.159 C  
HETATM   34  C   UNL     1      -9.036  20.635  67.198  1.00  0.00    -0.401 C  
HETATM   35  C   UNL     1      -9.841  19.920  68.278  1.00  0.00    -0.514 C  
HETATM   36  C   UNL     1      -9.251  18.551  68.610  1.00  0.00    -0.336 C  
ENDBRANCH  29  31
ENDBRANCH  27  29
ENDBRANCH  25  27
ENDBRANCH  22  25
ENDBRANCH  19  22
ENDBRANCH  15  16
ENDBRANCH  14  15
ENDBRANCH  13  14
ENDBRANCH   4  10
ENDBRANCH   2   3
TORSDOF 10
ENDMDL
MODEL      249
REMARK 921   NORMALIZED FREE ENERGY PREDICTED BY IDOCK:   -4.10 KCAL/MOL
REMARK 922        TOTAL FREE ENERGY PREDICTED BY IDOCK:   -8.46 KCAL/MOL
REMARK 923 INTER-LIGAND FREE ENERGY PREDICTED BY IDOCK:   -8.16 KCAL/MOL
REMARK 924 INTRA-LIGAND FREE ENERGY PREDICTED BY IDOCK:   -0.30 KCAL/MOL
REMARK 927      BINDING AFFINITY PREDICTED BY RF-SCORE:    0.00 PKD
ROOT
HETATM    1  C   UNL     1      -7.914   8.657  70.881  1.00  0.00    -0.122 C  
HETATM    2  O   UNL     1      -8.537   7.411  71.189  1.00  0.00    -0.121 OA 
ENDROOT
BRANCH   2   3
HETATM    3  C   UNL     1      -9.894   7.455  71.378  1.00  0.00    -0.185 A  
HETATM    4  C   UNL     1     -10.702   6.438  70.824  1.00  0.00    -0.302 A  
HETATM    5  C   UNL     1     -12.095   6.489  71.009  1.00  0.00    -0.304 A  
HETATM    6  C   UNL     1     -10.505   8.535  72.035  1.00  0.00    -0.407 A  
HETATM    7 CL   UNL     1     -14.387   7.634  71.858  1.00  0.00    -0.523 Cl 
HETATM    8  C   UNL     1     -11.892   8.594  72.177  1.00  0.00    -0.447 A  
HETATM    9  C   UNL     1     -12.678   7.567  71.674  1.00  0.00    -0.355 A  
BRANCH   4  10
HETATM   10  C   UNL     1     -10.110   5.295  70.053  1.00  0.00    -0.266 C  
HETATM   11  H   UNL     1     -10.866   6.057  68.262  1.00  0.00     0.000 HD 
HETATM   12  O   UNL     1      -9.516   4.380  70.609  1.00  0.00    -0.141 OA 
HETATM   13  N   UNL     1     -10.268   5.340  68.675  1.00  0.00    -0.173 N  
BRANCH  13  14
HETATM   14  C   UNL     1      -9.599   4.387  67.808  1.00  0.00    -0.160 C  
BRANCH  14  15
HETATM   15  C   UNL     1      -9.144   4.991  66.474  1.00  0.00    -0.125 C  
BRANCH  15  16
HETATM   16  C   UNL     1      -9.282   6.498  66.352  1.00  0.00    -0.178 A  
HETATM   17  C   UNL     1     -10.297   7.231  66.989  1.00  0.00    -0.376 A  
HETATM   18  C   UNL     1     -10.426   8.608  66.786  1.00  0.00    -0.298 A  
HETATM   19  C   UNL     1      -9.531   9.274  65.950  1.00  0.00    -0.259 A  
HETATM   20  C   UNL     1      -8.368   7.192  65.542  1.00  0.00    -0.132 A  
HETATM   21  C   UNL     1      -8.497   8.569  65.328  1.00  0.00    -0.192 A  
BRANCH  19  22
HETATM   22  S   UNL     1      -9.809  10.987  65.561  1.00  0.00    -0.259 S  
HETATM   23  O   UNL     1     -10.960  11.419  66.331  1.00  0.00    -0.285 OA 
HETATM   24  O   UNL     1      -9.782  11.159  64.127  1.00  0.00    -0.240 OA 
BRANCH  22  25
HETATM   25  N   UNL     1      -8.517  11.785  66.238  1.00  0.00    -0.370 N  
HETATM   26  H   UNL     1      -7.678  11.906  65.670  1.00  0.00     0.000 HD 
BRANCH  25  27
HETATM   27  C   UNL     1      -8.511  12.295  67.524  1.00  0.00    -0.172 C  
HETATM   28  O   UNL     1      -8.890  11.663  68.492  1.00  0.00    -0.165 OA 
BRANCH  27  29
HETATM   29  N   UNL     1      -8.054  13.583  67.589  1.00  0.00    -0.166 N  
HETATM   30  H   UNL     1      -7.200  13.847  67.099  1.00  0.00     0.000 HD 
BRANCH  29  31
HETATM   31  C   UNL     1      -8.790  14.576  68.361  1.00  0.00    -0.180 C  
HETATM   32  C   UNL     1      -8.264  15.992  68.106  1.00  0.00    -0.152 C  
HETATM   33  C   UNL     1      -8.680  16.541  66.744  1.00  0.00    -0.257 C  
HETATM   34  C   UNL     1     -10.190  16.463  66.550  1.00  0.00    -0.310 C  
HETATM   35  C   UNL     1     -10.711  15.044  66.749  1.00  0.00    -0.308 C  
HETATM   36  C   UNL     1     -10.296  14.473  68.103  1.00  0.00    -0.232 C  
ENDBRANCH  29  31
ENDBRANCH  27  29
ENDBRANCH  25  27
ENDBRANCH  22  25
ENDBRANCH  19  22
ENDBRANCH  15  16
ENDBRANCH  14  15
ENDBRANCH  13  14
ENDBRANCH   4  10
ENDBRANCH   2   3
TORSDOF 10
ENDMDL
MODEL      250
REMARK 921   NORMALIZED FREE ENERGY PREDICTED BY IDOCK:   -4.09 KCAL/MOL
REMARK 922        TOTAL FREE ENERGY PREDICTED BY IDOCK:   -8.46 KCAL/MOL
REMARK 923 INTER-LIGAND FREE ENERGY PREDICTED BY IDOCK:   -7.45 KCAL/MOL
REMARK 924 INTRA-LIGAND FREE ENERGY PREDICTED BY IDOCK:   -1.01 KCAL/MOL
REMARK 927      BINDING AFFINITY PREDICTED BY RF-SCORE:    0.00 PKD
ROOT
HETATM    1  C   UNL     1     -10.162   7.909  66.400  1.00  0.00    -0.001 C  
HETATM    2  O   UNL     1      -8.922   7.722  65.719  1.00  0.00    -0.150 OA 
ENDROOT
BRANCH   2   3
HETATM    3  C   UNL     1      -8.296   6.523  65.941  1.00  0.00    -0.140 A  
HETATM    4  C   UNL     1      -7.075   6.502  66.649  1.00  0.00    -0.068 A  
HETATM    5  C   UNL     1      -6.427   5.273  66.866  1.00  0.00    -0.041 A  
HETATM    6  C   UNL     1      -8.797   5.327  65.401  1.00  0.00    -0.152 A  
HETATM    7 CL   UNL     1      -6.125   2.607  66.572  1.00  0.00    -0.023 Cl 
HETATM    8  C   UNL     1      -8.124   4.120  65.590  1.00  0.00    -0.101 A  
HETATM    9  C   UNL     1      -6.949   4.097  66.330  1.00  0.00    -0.059 A  
BRANCH   4  10
HETATM   10  C   UNL     1      -6.456   7.758  67.190  1.00  0.00    -0.055 C  
HETATM   11  H   UNL     1      -8.270   8.331  68.051  1.00  0.00     0.000 HD 
HETATM   12  O   UNL     1      -5.292   8.056  66.957  1.00  0.00    -0.030 OA 
HETATM   13  N   UNL     1      -7.278   8.555  67.976  1.00  0.00    -0.086 N  
BRANCH  13  14
HETATM   14  C   UNL     1      -6.751   9.702  68.693  1.00  0.00    -0.052 C  
BRANCH  14  15
HETATM   15  C   UNL     1      -7.830  10.513  69.421  1.00  0.00    -0.151 C  
BRANCH  15  16
HETATM   16  C   UNL     1      -8.835  11.222  68.530  1.00  0.00    -0.159 A  
HETATM   17  C   UNL     1     -10.211  10.941  68.551  1.00  0.00    -0.197 A  
HETATM   18  C   UNL     1     -11.087  11.567  67.659  1.00  0.00    -0.324 A  
HETATM   19  C   UNL     1     -10.597  12.493  66.740  1.00  0.00    -0.233 A  
HETATM   20  C   UNL     1      -8.365  12.184  67.622  1.00  0.00    -0.163 A  
HETATM   21  C   UNL     1      -9.235  12.807  66.720  1.00  0.00    -0.225 A  
BRANCH  19  22
HETATM   22  S   UNL     1     -11.687  13.151  65.497  1.00  0.00    -0.379 S  
HETATM   23  O   UNL     1     -12.714  13.908  66.187  1.00  0.00    -0.429 OA 
HETATM   24  O   UNL     1     -12.048  12.098  64.577  1.00  0.00    -0.376 OA 
BRANCH  22  25
HETATM   25  N   UNL     1     -10.776  14.292  64.702  1.00  0.00    -0.568 N  
HETATM   26  H   UNL     1      -9.860  14.013  64.351  1.00  0.00     0.000 HD 
BRANCH  25  27
HETATM   27  C   UNL     1     -11.185  15.597  64.488  1.00  0.00    -0.325 C  
HETATM   28  O   UNL     1     -12.081  15.896  63.721  1.00  0.00    -0.780 OA 
BRANCH  27  29
HETATM   29  N   UNL     1     -10.468  16.510  65.212  1.00  0.00    -0.280 N  
HETATM   30  H   UNL     1     -10.485  17.496  64.951  1.00  0.00     0.000 HD 
BRANCH  29  31
HETATM   31  C   UNL     1      -9.681  16.072  66.357  1.00  0.00    -0.284 C  
HETATM   32  C   UNL     1      -8.227  16.545  66.257  1.00  0.00    -0.360 C  
HETATM   33  C   UNL     1      -8.069  18.036  66.545  1.00  0.00    -0.298 C  
HETATM   34  C   UNL     1      -8.687  18.411  67.887  1.00  0.00    -0.296 C  
HETATM   35  C   UNL     1     -10.150  17.991  67.970  1.00  0.00    -0.370 C  
HETATM   36  C   UNL     1     -10.329  16.503  67.675  1.00  0.00    -0.291 C  
ENDBRANCH  29  31
ENDBRANCH  27  29
ENDBRANCH  25  27
ENDBRANCH  22  25
ENDBRANCH  19  22
ENDBRANCH  15  16
ENDBRANCH  14  15
ENDBRANCH  13  14
ENDBRANCH   4  10
ENDBRANCH   2   3
TORSDOF 10
ENDMDL
MODEL      251
REMARK 921   NORMALIZED FREE ENERGY PREDICTED BY IDOCK:   -4.08 KCAL/MOL
REMARK 922        TOTAL FREE ENERGY PREDICTED BY IDOCK:   -8.44 KCAL/MOL
REMARK 923 INTER-LIGAND FREE ENERGY PREDICTED BY IDOCK:   -7.02 KCAL/MOL
REMARK 924 INTRA-LIGAND FREE ENERGY PREDICTED BY IDOCK:   -1.41 KCAL/MOL
REMARK 927      BINDING AFFINITY PREDICTED BY RF-SCORE:    0.00 PKD
ROOT
HETATM    1  C   UNL     1     -11.482  13.175  66.008  1.00  0.00    -0.335 C  
HETATM    2  O   UNL     1     -10.818  13.772  67.121  1.00  0.00    -0.279 OA 
ENDROOT
BRANCH   2   3
HETATM    3  C   UNL     1      -9.945  14.785  66.820  1.00  0.00    -0.251 A  
HETATM    4  C   UNL     1      -8.577  14.632  67.129  1.00  0.00    -0.244 A  
HETATM    5  C   UNL     1      -7.683  15.676  66.830  1.00  0.00    -0.238 A  
HETATM    6  C   UNL     1     -10.397  16.005  66.293  1.00  0.00    -0.330 A  
HETATM    7 CL   UNL     1      -7.054  18.157  65.974  1.00  0.00    -0.312 Cl 
HETATM    8  C   UNL     1      -9.507  17.048  66.039  1.00  0.00    -0.195 A  
HETATM    9  C   UNL     1      -8.154  16.875  66.298  1.00  0.00    -0.316 A  
BRANCH   4  10
HETATM   10  C   UNL     1      -8.046  13.376  67.756  1.00  0.00    -0.173 C  
HETATM   11  H   UNL     1      -6.485  13.294  66.373  1.00  0.00     0.000 HD 
HETATM   12  O   UNL     1      -8.618  12.830  68.691  1.00  0.00    -0.082 OA 
HETATM   13  N   UNL     1      -6.866  12.876  67.221  1.00  0.00    -0.118 N  
BRANCH  13  14
HETATM   14  C   UNL     1      -6.165  11.769  67.847  1.00  0.00    -0.053 C  
BRANCH  14  15
HETATM   15  C   UNL     1      -6.211  10.476  67.024  1.00  0.00    -0.066 C  
BRANCH  15  16
HETATM   16  C   UNL     1      -7.261   9.463  67.446  1.00  0.00    -0.087 A  
HETATM   17  C   UNL     1      -6.948   8.259  68.097  1.00  0.00    -0.077 A  
HETATM   18  C   UNL     1      -7.942   7.324  68.399  1.00  0.00    -0.124 A  
HETATM   19  C   UNL     1      -9.269   7.589  68.062  1.00  0.00    -0.137 A  
HETATM   20  C   UNL     1      -8.608   9.728  67.147  1.00  0.00    -0.129 A  
HETATM   21  C   UNL     1      -9.606   8.793  67.438  1.00  0.00    -0.206 A  
BRANCH  19  22
HETATM   22  S   UNL     1     -10.498   6.322  68.291  1.00  0.00    -0.258 S  
HETATM   23  O   UNL     1      -9.840   5.200  68.933  1.00  0.00    -0.147 OA 
HETATM   24  O   UNL     1     -11.223   6.135  67.055  1.00  0.00    -0.290 OA 
BRANCH  22  25
HETATM   25  N   UNL     1     -11.523   6.937  69.446  1.00  0.00    -0.573 N  
HETATM   26  H   UNL     1     -12.507   6.676  69.401  1.00  0.00     0.000 HD 
BRANCH  25  27
HETATM   27  C   UNL     1     -11.120   7.782  70.466  1.00  0.00    -0.257 C  
HETATM   28  O   UNL     1     -11.424   8.959  70.514  1.00  0.00    -0.258 OA 
BRANCH  27  29
HETATM   29  N   UNL     1     -10.335   7.162  71.399  1.00  0.00    -0.197 N  
HETATM   30  H   UNL     1      -9.318   7.200  71.318  1.00  0.00     0.000 HD 
BRANCH  29  31
HETATM   31  C   UNL     1     -10.952   6.447  72.508  1.00  0.00    -0.251 C  
HETATM   32  C   UNL     1     -10.704   4.938  72.415  1.00  0.00    -0.240 C  
HETATM   33  C   UNL     1      -9.274   4.549  72.781  1.00  0.00    -0.145 C  
HETATM   34  C   UNL     1      -8.883   5.096  74.149  1.00  0.00    -0.113 C  
HETATM   35  C   UNL     1      -9.075   6.606  74.229  1.00  0.00    -0.212 C  
HETATM   36  C   UNL     1     -10.499   7.015  73.856  1.00  0.00    -0.332 C  
ENDBRANCH  29  31
ENDBRANCH  27  29
ENDBRANCH  25  27
ENDBRANCH  22  25
ENDBRANCH  19  22
ENDBRANCH  15  16
ENDBRANCH  14  15
ENDBRANCH  13  14
ENDBRANCH   4  10
ENDBRANCH   2   3
TORSDOF 10
ENDMDL
MODEL      252
REMARK 921   NORMALIZED FREE ENERGY PREDICTED BY IDOCK:   -4.08 KCAL/MOL
REMARK 922        TOTAL FREE ENERGY PREDICTED BY IDOCK:   -8.43 KCAL/MOL
REMARK 923 INTER-LIGAND FREE ENERGY PREDICTED BY IDOCK:   -6.75 KCAL/MOL
REMARK 924 INTRA-LIGAND FREE ENERGY PREDICTED BY IDOCK:   -1.68 KCAL/MOL
REMARK 927      BINDING AFFINITY PREDICTED BY RF-SCORE:    0.00 PKD
ROOT
HETATM    1  C   UNL     1      -8.026   5.358  67.971  1.00  0.00    -0.096 C  
HETATM    2  O   UNL     1      -7.853   5.933  69.265  1.00  0.00    -0.092 OA 
ENDROOT
BRANCH   2   3
HETATM    3  C   UNL     1      -8.759   5.542  70.217  1.00  0.00    -0.130 A  
HETATM    4  C   UNL     1      -9.732   6.462  70.662  1.00  0.00    -0.197 A  
HETATM    5  C   UNL     1     -10.655   6.065  71.646  1.00  0.00    -0.286 A  
HETATM    6  C   UNL     1      -8.683   4.277  70.821  1.00  0.00    -0.125 A  
HETATM    7 CL   UNL     1     -11.678   4.342  73.454  1.00  0.00    -0.254 Cl 
HETATM    8  C   UNL     1      -9.579   3.909  71.825  1.00  0.00    -0.227 A  
HETATM    9  C   UNL     1     -10.567   4.800  72.224  1.00  0.00    -0.157 A  
BRANCH   4  10
HETATM   10  C   UNL     1      -9.817   7.852  70.101  1.00  0.00    -0.184 C  
HETATM   11  H   UNL     1     -10.673   7.133  68.338  1.00  0.00     0.000 HD 
HETATM   12  O   UNL     1      -9.381   8.821  70.709  1.00  0.00    -0.174 OA 
HETATM   13  N   UNL     1     -10.427   7.974  68.860  1.00  0.00    -0.213 N  
BRANCH  13  14
HETATM   14  C   UNL     1     -10.722   9.277  68.291  1.00  0.00    -0.145 C  
BRANCH  14  15
HETATM   15  C   UNL     1     -11.585  10.159  69.201  1.00  0.00    -0.094 C  
BRANCH  15  16
HETATM   16  C   UNL     1     -11.216  11.631  69.234  1.00  0.00    -0.328 A  
HETATM   17  C   UNL     1     -12.137  12.647  69.538  1.00  0.00    -0.253 A  
HETATM   18  C   UNL     1     -11.767  13.995  69.483  1.00  0.00    -0.367 A  
HETATM   19  C   UNL     1     -10.464  14.343  69.131  1.00  0.00    -0.189 A  
HETATM   20  C   UNL     1      -9.898  12.001  68.918  1.00  0.00     0.039 A  
HETATM   21  C   UNL     1      -9.525  13.347  68.851  1.00  0.00     0.186 A  
BRANCH  19  22
HETATM   22  S   UNL     1     -10.052  16.057  68.893  1.00  0.00    -0.244 S  
HETATM   23  O   UNL     1      -9.226  16.459  70.015  1.00  0.00     0.481 OA 
HETATM   24  O   UNL     1     -11.253  16.793  68.569  1.00  0.00    -0.319 OA 
BRANCH  22  25
HETATM   25  N   UNL     1      -9.029  16.064  67.583  1.00  0.00    -0.189 N  
HETATM   26  H   UNL     1      -8.066  15.759  67.726  1.00  0.00     0.000 HD 
BRANCH  25  27
HETATM   27  C   UNL     1      -9.404  16.459  66.310  1.00  0.00    -0.315 C  
HETATM   28  O   UNL     1      -8.716  17.173  65.605  1.00  0.00    -0.473 OA 
BRANCH  27  29
HETATM   29  N   UNL     1     -10.630  15.980  65.939  1.00  0.00    -0.335 N  
HETATM   30  H   UNL     1     -11.451  16.179  66.511  1.00  0.00     0.000 HD 
BRANCH  29  31
HETATM   31  C   UNL     1     -10.762  15.185  64.725  1.00  0.00    -0.319 C  
HETATM   32  C   UNL     1      -9.982  13.870  64.823  1.00  0.00    -0.105 C  
HETATM   33  C   UNL     1     -10.660  12.847  65.731  1.00  0.00    -0.293 C  
HETATM   34  C   UNL     1     -12.107  12.608  65.315  1.00  0.00    -0.519 C  
HETATM   35  C   UNL     1     -12.902  13.908  65.270  1.00  0.00    -0.437 C  
HETATM   36  C   UNL     1     -12.234  14.949  64.374  1.00  0.00    -0.399 C  
ENDBRANCH  29  31
ENDBRANCH  27  29
ENDBRANCH  25  27
ENDBRANCH  22  25
ENDBRANCH  19  22
ENDBRANCH  15  16
ENDBRANCH  14  15
ENDBRANCH  13  14
ENDBRANCH   4  10
ENDBRANCH   2   3
TORSDOF 10
ENDMDL
MODEL      253
REMARK 921   NORMALIZED FREE ENERGY PREDICTED BY IDOCK:   -4.08 KCAL/MOL
REMARK 922        TOTAL FREE ENERGY PREDICTED BY IDOCK:   -8.43 KCAL/MOL
REMARK 923 INTER-LIGAND FREE ENERGY PREDICTED BY IDOCK:   -7.68 KCAL/MOL
REMARK 924 INTRA-LIGAND FREE ENERGY PREDICTED BY IDOCK:   -0.75 KCAL/MOL
REMARK 927      BINDING AFFINITY PREDICTED BY RF-SCORE:    0.00 PKD
ROOT
HETATM    1  C   UNL     1      -8.461   4.362  70.947  1.00  0.00    -0.088 C  
HETATM    2  O   UNL     1      -8.697   5.764  71.072  1.00  0.00    -0.132 OA 
ENDROOT
BRANCH   2   3
HETATM    3  C   UNL     1     -10.012   6.142  71.147  1.00  0.00    -0.183 A  
HETATM    4  C   UNL     1     -10.544   6.990  70.153  1.00  0.00    -0.249 A  
HETATM    5  C   UNL     1     -11.891   7.388  70.236  1.00  0.00    -0.037 A  
HETATM    6  C   UNL     1     -10.815   5.777  72.239  1.00  0.00    -0.298 A  
HETATM    7 CL   UNL     1     -14.305   7.530  71.432  1.00  0.00    -0.566 Cl 
HETATM    8  C   UNL     1     -12.138   6.211  72.331  1.00  0.00    -0.186 A  
HETATM    9  C   UNL     1     -12.672   7.004  71.324  1.00  0.00    -0.351 A  
BRANCH   4  10
HETATM   10  C   UNL     1      -9.713   7.469  68.998  1.00  0.00    -0.162 C  
HETATM   11  H   UNL     1     -11.223   6.965  67.648  1.00  0.00     0.000 HD 
HETATM   12  O   UNL     1      -8.572   7.884  69.153  1.00  0.00    -0.135 OA 
HETATM   13  N   UNL     1     -10.317   7.422  67.749  1.00  0.00    -0.198 N  
BRANCH  13  14
HETATM   14  C   UNL     1      -9.683   8.012  66.584  1.00  0.00    -0.243 C  
BRANCH  14  15
HETATM   15  C   UNL     1     -10.146   9.445  66.298  1.00  0.00    -0.328 C  
BRANCH  15  16
HETATM   16  C   UNL     1      -9.292  10.546  66.903  1.00  0.00    -0.181 A  
HETATM   17  C   UNL     1      -9.814  11.781  67.322  1.00  0.00    -0.198 A  
HETATM   18  C   UNL     1      -8.976  12.791  67.804  1.00  0.00    -0.190 A  
HETATM   19  C   UNL     1      -7.602  12.573  67.884  1.00  0.00    -0.133 A  
HETATM   20  C   UNL     1      -7.909  10.332  67.025  1.00  0.00    -0.107 A  
HETATM   21  C   UNL     1      -7.064  11.342  67.498  1.00  0.00    -0.106 A  
BRANCH  19  22
HETATM   22  S   UNL     1      -6.529  13.920  68.331  1.00  0.00    -0.118 S  
HETATM   23  O   UNL     1      -5.446  13.942  67.366  1.00  0.00    -0.345 OA 
HETATM   24  O   UNL     1      -6.246  13.852  69.746  1.00  0.00    -0.124 OA 
BRANCH  22  25
HETATM   25  N   UNL     1      -7.417  15.288  68.010  1.00  0.00    -0.112 N  
HETATM   26  H   UNL     1      -8.423  15.185  67.877  1.00  0.00     0.000 HD 
BRANCH  25  27
HETATM   27  C   UNL     1      -6.875  16.557  67.912  1.00  0.00    -0.139 C  
HETATM   28  O   UNL     1      -5.910  16.920  68.559  1.00  0.00    -0.131 OA 
BRANCH  27  29
HETATM   29  N   UNL     1      -7.544  17.361  67.031  1.00  0.00    -0.193 N  
HETATM   30  H   UNL     1      -8.023  16.952  66.228  1.00  0.00     0.000 HD 
BRANCH  29  31
HETATM   31  C   UNL     1      -7.573  18.802  67.242  1.00  0.00    -0.223 C  
HETATM   32  C   UNL     1      -8.373  19.517  66.149  1.00  0.00    -0.333 C  
HETATM   33  C   UNL     1      -9.881  19.327  66.299  1.00  0.00    -0.456 C  
HETATM   34  C   UNL     1     -10.355  19.728  67.691  1.00  0.00    -0.579 C  
HETATM   35  C   UNL     1      -9.599  18.978  68.782  1.00  0.00    -0.451 C  
HETATM   36  C   UNL     1      -8.088  19.149  68.642  1.00  0.00    -0.405 C  
ENDBRANCH  29  31
ENDBRANCH  27  29
ENDBRANCH  25  27
ENDBRANCH  22  25
ENDBRANCH  19  22
ENDBRANCH  15  16
ENDBRANCH  14  15
ENDBRANCH  13  14
ENDBRANCH   4  10
ENDBRANCH   2   3
TORSDOF 10
ENDMDL
MODEL      254
REMARK 921   NORMALIZED FREE ENERGY PREDICTED BY IDOCK:   -4.07 KCAL/MOL
REMARK 922        TOTAL FREE ENERGY PREDICTED BY IDOCK:   -8.43 KCAL/MOL
REMARK 923 INTER-LIGAND FREE ENERGY PREDICTED BY IDOCK:   -8.43 KCAL/MOL
REMARK 924 INTRA-LIGAND FREE ENERGY PREDICTED BY IDOCK:   -0.00 KCAL/MOL
REMARK 927      BINDING AFFINITY PREDICTED BY RF-SCORE:    0.00 PKD
ROOT
HETATM    1  C   UNL     1      -6.008  13.124  69.684  1.00  0.00    -0.116 C  
HETATM    2  O   UNL     1      -6.917  13.618  68.702  1.00  0.00    -0.091 OA 
ENDROOT
BRANCH   2   3
HETATM    3  C   UNL     1      -7.374  12.696  67.796  1.00  0.00    -0.128 A  
HETATM    4  C   UNL     1      -8.757  12.623  67.523  1.00  0.00    -0.184 A  
HETATM    5  C   UNL     1      -9.227  11.669  66.602  1.00  0.00    -0.196 A  
HETATM    6  C   UNL     1      -6.507  11.765  67.202  1.00  0.00    -0.146 A  
HETATM    7 CL   UNL     1      -8.941   9.577  64.922  1.00  0.00    -0.247 Cl 
HETATM    8  C   UNL     1      -6.991  10.798  66.321  1.00  0.00    -0.134 A  
HETATM    9  C   UNL     1      -8.345  10.762  66.017  1.00  0.00    -0.163 A  
BRANCH   4  10
HETATM   10  C   UNL     1      -9.739  13.547  68.181  1.00  0.00    -0.233 C  
HETATM   11  H   UNL     1     -11.310  12.231  67.779  1.00  0.00     0.000 HD 
HETATM   12  O   UNL     1      -9.403  14.636  68.627  1.00  0.00    -0.199 OA 
HETATM   13  N   UNL     1     -11.048  13.091  68.262  1.00  0.00    -0.249 N  
BRANCH  13  14
HETATM   14  C   UNL     1     -12.052  13.814  69.021  1.00  0.00    -0.322 C  
BRANCH  14  15
HETATM   15  C   UNL     1     -12.133  13.382  70.490  1.00  0.00    -0.399 C  
BRANCH  15  16
HETATM   16  C   UNL     1     -12.364  11.900  70.730  1.00  0.00    -0.416 A  
HETATM   17  C   UNL     1     -13.269  11.408  71.684  1.00  0.00    -0.413 A  
HETATM   18  C   UNL     1     -13.393  10.036  71.920  1.00  0.00    -0.516 A  
HETATM   19  C   UNL     1     -12.617   9.134  71.192  1.00  0.00    -0.233 A  
HETATM   20  C   UNL     1     -11.618  10.975  69.981  1.00  0.00    -0.427 A  
HETATM   21  C   UNL     1     -11.730   9.600  70.219  1.00  0.00    -0.213 A  
BRANCH  19  22
HETATM   22  S   UNL     1     -12.653   7.408  71.620  1.00  0.00    -0.363 S  
HETATM   23  O   UNL     1     -11.827   6.710  70.653  1.00  0.00    -0.382 OA 
HETATM   24  O   UNL     1     -14.022   7.001  71.840  1.00  0.00    -0.305 OA 
BRANCH  22  25
HETATM   25  N   UNL     1     -11.812   7.313  73.051  1.00  0.00    -0.504 N  
HETATM   26  H   UNL     1     -12.346   7.254  73.917  1.00  0.00     0.000 HD 
BRANCH  25  27
HETATM   27  C   UNL     1     -10.431   7.309  73.137  1.00  0.00    -0.339 C  
HETATM   28  O   UNL     1      -9.756   8.318  73.047  1.00  0.00    -0.269 OA 
BRANCH  27  29
HETATM   29  N   UNL     1      -9.907   6.058  73.313  1.00  0.00    -0.160 N  
HETATM   30  H   UNL     1      -9.114   5.919  73.941  1.00  0.00     0.000 HD 
BRANCH  29  31
HETATM   31  C   UNL     1     -10.483   4.923  72.604  1.00  0.00    -0.206 C  
HETATM   32  C   UNL     1      -9.508   4.347  71.573  1.00  0.00    -0.215 C  
HETATM   33  C   UNL     1      -8.375   3.548  72.212  1.00  0.00    -0.085 C  
HETATM   34  C   UNL     1      -8.913   2.463  73.137  1.00  0.00    -0.077 C  
HETATM   35  C   UNL     1      -9.842   3.040  74.200  1.00  0.00    -0.151 C  
HETATM   36  C   UNL     1     -10.977   3.851  73.580  1.00  0.00    -0.343 C  
ENDBRANCH  29  31
ENDBRANCH  27  29
ENDBRANCH  25  27
ENDBRANCH  22  25
ENDBRANCH  19  22
ENDBRANCH  15  16
ENDBRANCH  14  15
ENDBRANCH  13  14
ENDBRANCH   4  10
ENDBRANCH   2   3
TORSDOF 10
ENDMDL
MODEL      255
REMARK 921   NORMALIZED FREE ENERGY PREDICTED BY IDOCK:   -4.05 KCAL/MOL
REMARK 922        TOTAL FREE ENERGY PREDICTED BY IDOCK:   -8.39 KCAL/MOL
REMARK 923 INTER-LIGAND FREE ENERGY PREDICTED BY IDOCK:   -7.57 KCAL/MOL
REMARK 924 INTRA-LIGAND FREE ENERGY PREDICTED BY IDOCK:   -0.82 KCAL/MOL
REMARK 927      BINDING AFFINITY PREDICTED BY RF-SCORE:    0.00 PKD
ROOT
HETATM    1  C   UNL     1     -10.839  10.745  66.887  1.00  0.00    -0.229 C  
HETATM    2  O   UNL     1     -10.415  11.270  68.144  1.00  0.00    -0.177 OA 
ENDROOT
BRANCH   2   3
HETATM    3  C   UNL     1     -11.052  10.761  69.247  1.00  0.00    -0.256 A  
HETATM    4  C   UNL     1     -10.356   9.876  70.097  1.00  0.00    -0.336 A  
HETATM    5  C   UNL     1     -11.013   9.344  71.222  1.00  0.00    -0.440 A  
HETATM    6  C   UNL     1     -12.406  11.032  69.497  1.00  0.00    -0.266 A  
HETATM    7 CL   UNL     1     -13.155   8.949  72.815  1.00  0.00    -0.353 Cl 
HETATM    8  C   UNL     1     -13.057  10.467  70.594  1.00  0.00    -0.293 A  
HETATM    9  C   UNL     1     -12.355   9.636  71.456  1.00  0.00    -0.390 A  
BRANCH   4  10
HETATM   10  C   UNL     1      -8.927   9.496  69.841  1.00  0.00    -0.212 C  
HETATM   11  H   UNL     1      -8.734  11.014  68.421  1.00  0.00     0.000 HD 
HETATM   12  O   UNL     1      -8.404   8.538  70.396  1.00  0.00    -0.111 OA 
HETATM   13  N   UNL     1      -8.232  10.298  68.946  1.00  0.00    -0.121 N  
BRANCH  13  14
HETATM   14  C   UNL     1      -6.803  10.138  68.744  1.00  0.00    -0.061 C  
BRANCH  14  15
HETATM   15  C   UNL     1      -5.956  11.059  69.630  1.00  0.00    -0.070 C  
BRANCH  15  16
HETATM   16  C   UNL     1      -6.062  12.543  69.329  1.00  0.00    -0.099 A  
HETATM   17  C   UNL     1      -5.174  13.499  69.849  1.00  0.00    -0.086 A  
HETATM   18  C   UNL     1      -5.358  14.863  69.604  1.00  0.00    -0.093 A  
HETATM   19  C   UNL     1      -6.431  15.288  68.822  1.00  0.00    -0.097 A  
HETATM   20  C   UNL     1      -7.116  12.989  68.513  1.00  0.00    -0.105 A  
HETATM   21  C   UNL     1      -7.311  14.353  68.272  1.00  0.00    -0.122 A  
BRANCH  19  22
HETATM   22  S   UNL     1      -6.757  17.030  68.661  1.00  0.00    -0.192 S  
HETATM   23  O   UNL     1      -5.581  17.731  69.140  1.00  0.00    -0.182 OA 
HETATM   24  O   UNL     1      -8.059  17.322  69.215  1.00  0.00    -0.077 OA 
BRANCH  22  25
HETATM   25  N   UNL     1      -6.779  17.302  67.021  1.00  0.00    -0.168 N  
HETATM   26  H   UNL     1      -5.901  17.217  66.510  1.00  0.00     0.000 HD 
BRANCH  25  27
HETATM   27  C   UNL     1      -7.918  17.637  66.308  1.00  0.00    -0.257 C  
HETATM   28  O   UNL     1      -8.175  18.775  65.962  1.00  0.00    -0.458 OA 
BRANCH  27  29
HETATM   29  N   UNL     1      -8.727  16.564  66.053  1.00  0.00    -0.288 N  
HETATM   30  H   UNL     1      -8.320  15.639  65.912  1.00  0.00     0.000 HD 
BRANCH  29  31
HETATM   31  C   UNL     1     -10.171  16.744  65.984  1.00  0.00    -0.346 C  
HETATM   32  C   UNL     1     -10.851  15.580  65.256  1.00  0.00    -0.425 C  
HETATM   33  C   UNL     1     -10.912  14.309  66.099  1.00  0.00    -0.313 C  
HETATM   34  C   UNL     1     -11.556  14.572  67.455  1.00  0.00    -0.403 C  
HETATM   35  C   UNL     1     -10.848  15.693  68.208  1.00  0.00    -0.298 C  
HETATM   36  C   UNL     1     -10.769  16.971  67.375  1.00  0.00    -0.240 C  
ENDBRANCH  29  31
ENDBRANCH  27  29
ENDBRANCH  25  27
ENDBRANCH  22  25
ENDBRANCH  19  22
ENDBRANCH  15  16
ENDBRANCH  14  15
ENDBRANCH  13  14
ENDBRANCH   4  10
ENDBRANCH   2   3
TORSDOF 10
ENDMDL
MODEL      256
REMARK 921   NORMALIZED FREE ENERGY PREDICTED BY IDOCK:   -4.04 KCAL/MOL
REMARK 922        TOTAL FREE ENERGY PREDICTED BY IDOCK:   -8.37 KCAL/MOL
REMARK 923 INTER-LIGAND FREE ENERGY PREDICTED BY IDOCK:   -6.33 KCAL/MOL
REMARK 924 INTRA-LIGAND FREE ENERGY PREDICTED BY IDOCK:   -2.04 KCAL/MOL
REMARK 927      BINDING AFFINITY PREDICTED BY RF-SCORE:    0.00 PKD
ROOT
HETATM    1  C   UNL     1     -11.644  12.812  67.014  1.00  0.00    -0.360 C  
HETATM    2  O   UNL     1     -11.031  13.455  68.130  1.00  0.00    -0.239 OA 
ENDROOT
BRANCH   2   3
HETATM    3  C   UNL     1     -10.422  14.655  67.866  1.00  0.00    -0.242 A  
HETATM    4  C   UNL     1      -9.015  14.708  67.767  1.00  0.00    -0.181 A  
HETATM    5  C   UNL     1      -8.390  15.941  67.507  1.00  0.00    -0.180 A  
HETATM    6  C   UNL     1     -11.161  15.845  67.779  1.00  0.00    -0.258 A  
HETATM    7 CL   UNL     1      -8.363  18.613  67.134  1.00  0.00    -0.263 Cl 
HETATM    8  C   UNL     1     -10.526  17.068  67.561  1.00  0.00    -0.334 A  
HETATM    9  C   UNL     1      -9.146  17.108  67.415  1.00  0.00    -0.224 A  
BRANCH   4  10
HETATM   10  C   UNL     1      -8.168  13.479  67.920  1.00  0.00    -0.168 C  
HETATM   11  H   UNL     1      -8.776  12.776  66.050  1.00  0.00     0.000 HD 
HETATM   12  O   UNL     1      -7.529  13.257  68.941  1.00  0.00    -0.089 OA 
HETATM   13  N   UNL     1      -8.143  12.614  66.834  1.00  0.00    -0.074 N  
BRANCH  13  14
HETATM   14  C   UNL     1      -7.234  11.483  66.792  1.00  0.00    -0.111 C  
BRANCH  14  15
HETATM   15  C   UNL     1      -7.627  10.424  65.755  1.00  0.00    -0.147 C  
BRANCH  15  16
HETATM   16  C   UNL     1      -8.097   9.094  66.318  1.00  0.00    -0.111 A  
HETATM   17  C   UNL     1      -7.233   8.169  66.927  1.00  0.00    -0.083 A  
HETATM   18  C   UNL     1      -7.700   6.926  67.363  1.00  0.00    -0.110 A  
HETATM   19  C   UNL     1      -9.045   6.595  67.204  1.00  0.00    -0.128 A  
HETATM   20  C   UNL     1      -9.455   8.757  66.200  1.00  0.00    -0.315 A  
HETATM   21  C   UNL     1      -9.927   7.511  66.626  1.00  0.00    -0.270 A  
BRANCH  19  22
HETATM   22  S   UNL     1      -9.592   4.949  67.601  1.00  0.00    -0.160 S  
HETATM   23  O   UNL     1      -8.464   4.253  68.189  1.00  0.00    -0.092 OA 
HETATM   24  O   UNL     1     -10.282   4.391  66.460  1.00  0.00    -0.232 OA 
BRANCH  22  25
HETATM   25  N   UNL     1     -10.668   5.156  68.851  1.00  0.00     0.016 N  
HETATM   26  H   UNL     1     -11.589   4.727  68.766  1.00  0.00     0.000 HD 
BRANCH  25  27
HETATM   27  C   UNL     1     -10.388   5.873  70.001  1.00  0.00    -0.244 C  
HETATM   28  O   UNL     1      -9.639   5.470  70.871  1.00  0.00    -0.161 OA 
BRANCH  27  29
HETATM   29  N   UNL     1     -11.054   7.067  70.065  1.00  0.00    -0.276 N  
HETATM   30  H   UNL     1     -11.797   7.274  69.397  1.00  0.00     0.000 HD 
BRANCH  29  31
HETATM   31  C   UNL     1     -10.699   8.041  71.088  1.00  0.00    -0.220 C  
HETATM   32  C   UNL     1      -9.255   8.528  70.929  1.00  0.00    -0.213 C  
HETATM   33  C   UNL     1      -9.081   9.490  69.756  1.00  0.00    -0.219 C  
HETATM   34  C   UNL     1     -10.057  10.658  69.846  1.00  0.00     0.053 C  
HETATM   35  C   UNL     1     -11.501  10.179  69.950  1.00  0.00    -0.317 C  
HETATM   36  C   UNL     1     -11.692   9.207  71.111  1.00  0.00    -0.380 C  
ENDBRANCH  29  31
ENDBRANCH  27  29
ENDBRANCH  25  27
ENDBRANCH  22  25
ENDBRANCH  19  22
ENDBRANCH  15  16
ENDBRANCH  14  15
ENDBRANCH  13  14
ENDBRANCH   4  10
ENDBRANCH   2   3
TORSDOF 10
ENDMDL
MODEL      257
REMARK 921   NORMALIZED FREE ENERGY PREDICTED BY IDOCK:   -4.02 KCAL/MOL
REMARK 922        TOTAL FREE ENERGY PREDICTED BY IDOCK:   -8.34 KCAL/MOL
REMARK 923 INTER-LIGAND FREE ENERGY PREDICTED BY IDOCK:   -7.12 KCAL/MOL
REMARK 924 INTRA-LIGAND FREE ENERGY PREDICTED BY IDOCK:   -1.22 KCAL/MOL
REMARK 927      BINDING AFFINITY PREDICTED BY RF-SCORE:    0.00 PKD
ROOT
HETATM    1  C   UNL     1     -13.538  13.597  72.400  1.00  0.00    -0.602 C  
HETATM    2  O   UNL     1     -13.125  13.198  71.094  1.00  0.00    -0.239 OA 
ENDROOT
BRANCH   2   3
HETATM    3  C   UNL     1     -12.641  11.921  70.986  1.00  0.00    -0.283 A  
HETATM    4  C   UNL     1     -11.881  11.564  69.852  1.00  0.00    -0.430 A  
HETATM    5  C   UNL     1     -11.393  10.250  69.736  1.00  0.00    -0.334 A  
HETATM    6  C   UNL     1     -12.960  10.936  71.935  1.00  0.00    -0.502 A  
HETATM    7 CL   UNL     1     -11.143   7.680  70.521  1.00  0.00    -0.263 Cl 
HETATM    8  C   UNL     1     -12.504   9.627  71.788  1.00  0.00    -0.487 A  
HETATM    9  C   UNL     1     -11.714   9.293  70.696  1.00  0.00    -0.222 A  
BRANCH   4  10
HETATM   10  C   UNL     1     -11.566  12.556  68.771  1.00  0.00    -0.322 C  
HETATM   11  H   UNL     1      -9.652  12.859  69.548  1.00  0.00     0.000 HD 
HETATM   12  O   UNL     1     -12.397  12.885  67.934  1.00  0.00    -0.141 OA 
HETATM   13  N   UNL     1     -10.277  13.071  68.769  1.00  0.00    -0.150 N  
BRANCH  13  14
HETATM   14  C   UNL     1      -9.800  13.905  67.681  1.00  0.00    -0.236 C  
BRANCH  14  15
HETATM   15  C   UNL     1      -9.889  13.226  66.309  1.00  0.00    -0.288 C  
BRANCH  15  16
HETATM   16  C   UNL     1      -9.352  11.807  66.240  1.00  0.00    -0.235 A  
HETATM   17  C   UNL     1      -8.055  11.455  66.647  1.00  0.00    -0.155 A  
HETATM   18  C   UNL     1      -7.581  10.149  66.495  1.00  0.00    -0.109 A  
HETATM   19  C   UNL     1      -8.406   9.172  65.941  1.00  0.00    -0.123 A  
HETATM   20  C   UNL     1     -10.181  10.800  65.718  1.00  0.00    -0.319 A  
HETATM   21  C   UNL     1      -9.710   9.493  65.554  1.00  0.00    -0.344 A  
BRANCH  19  22
HETATM   22  S   UNL     1      -7.738   7.561  65.590  1.00  0.00    -0.107 S  
HETATM   23  O   UNL     1      -7.025   7.126  66.776  1.00  0.00    -0.069 OA 
HETATM   24  O   UNL     1      -7.074   7.591  64.308  1.00  0.00    -0.057 OA 
BRANCH  22  25
HETATM   25  N   UNL     1      -9.067   6.566  65.502  1.00  0.00    -0.372 N  
HETATM   26  H   UNL     1      -9.950   6.973  65.192  1.00  0.00     0.000 HD 
BRANCH  25  27
HETATM   27  C   UNL     1      -9.048   5.220  65.822  1.00  0.00    -0.157 C  
HETATM   28  O   UNL     1      -9.616   4.759  66.795  1.00  0.00    -0.145 OA 
BRANCH  27  29
HETATM   29  N   UNL     1      -8.314   4.469  64.946  1.00  0.00    -0.117 N  
HETATM   30  H   UNL     1      -7.785   4.924  64.201  1.00  0.00     0.000 HD 
BRANCH  29  31
HETATM   31  C   UNL     1      -8.287   3.019  65.078  1.00  0.00    -0.095 C  
HETATM   32  C   UNL     1      -8.759   2.326  63.796  1.00  0.00    -0.086 C  
HETATM   33  C   UNL     1      -7.722   2.380  62.677  1.00  0.00    -0.057 C  
HETATM   34  C   UNL     1      -6.375   1.838  63.141  1.00  0.00    -0.013 C  
HETATM   35  C   UNL     1      -5.874   2.562  64.386  1.00  0.00    -0.014 C  
HETATM   36  C   UNL     1      -6.904   2.526  65.513  1.00  0.00    -0.047 C  
ENDBRANCH  29  31
ENDBRANCH  27  29
ENDBRANCH  25  27
ENDBRANCH  22  25
ENDBRANCH  19  22
ENDBRANCH  15  16
ENDBRANCH  14  15
ENDBRANCH  13  14
ENDBRANCH   4  10
ENDBRANCH   2   3
TORSDOF 10
ENDMDL
MODEL      258
REMARK 921   NORMALIZED FREE ENERGY PREDICTED BY IDOCK:   -4.00 KCAL/MOL
REMARK 922        TOTAL FREE ENERGY PREDICTED BY IDOCK:   -8.32 KCAL/MOL
REMARK 923 INTER-LIGAND FREE ENERGY PREDICTED BY IDOCK:   -7.27 KCAL/MOL
REMARK 924 INTRA-LIGAND FREE ENERGY PREDICTED BY IDOCK:   -1.04 KCAL/MOL
REMARK 927      BINDING AFFINITY PREDICTED BY RF-SCORE:    0.00 PKD
ROOT
HETATM    1  C   UNL     1     -11.257   6.190  69.711  1.00  0.00    -0.423 C  
HETATM    2  O   UNL     1     -10.523   4.967  69.694  1.00  0.00    -0.255 OA 
ENDROOT
BRANCH   2   3
HETATM    3  C   UNL     1      -9.676   4.796  68.630  1.00  0.00    -0.157 A  
HETATM    4  C   UNL     1      -8.285   4.730  68.859  1.00  0.00    -0.082 A  
HETATM    5  C   UNL     1      -7.415   4.567  67.766  1.00  0.00    -0.073 A  
HETATM    6  C   UNL     1     -10.156   4.774  67.311  1.00  0.00    -0.192 A  
HETATM    7 CL   UNL     1      -6.836   4.374  65.137  1.00  0.00    -0.052 Cl 
HETATM    8  C   UNL     1      -9.280   4.652  66.233  1.00  0.00    -0.135 A  
HETATM    9  C   UNL     1      -7.916   4.537  66.466  1.00  0.00    -0.103 A  
BRANCH   4  10
HETATM   10  C   UNL     1      -7.709   4.817  70.242  1.00  0.00    -0.058 C  
HETATM   11  H   UNL     1      -6.966   6.730  69.858  1.00  0.00     0.000 HD 
HETATM   12  O   UNL     1      -7.777   3.883  71.030  1.00  0.00    -0.047 OA 
HETATM   13  N   UNL     1      -7.103   6.021  70.578  1.00  0.00    -0.069 N  
BRANCH  13  14
HETATM   14  C   UNL     1      -6.660   6.288  71.934  1.00  0.00    -0.062 C  
BRANCH  14  15
HETATM   15  C   UNL     1      -7.376   7.479  72.585  1.00  0.00    -0.084 C  
BRANCH  15  16
HETATM   16  C   UNL     1      -8.225   8.326  71.653  1.00  0.00    -0.174 A  
HETATM   17  C   UNL     1      -7.680   9.178  70.679  1.00  0.00    -0.152 A  
HETATM   18  C   UNL     1      -8.501   9.994  69.895  1.00  0.00    -0.171 A  
HETATM   19  C   UNL     1      -9.884   9.960  70.070  1.00  0.00    -0.243 A  
HETATM   20  C   UNL     1      -9.623   8.278  71.790  1.00  0.00    -0.274 A  
HETATM   21  C   UNL     1     -10.449   9.100  71.015  1.00  0.00    -0.368 A  
BRANCH  19  22
HETATM   22  S   UNL     1     -10.904  11.125  69.195  1.00  0.00    -0.235 S  
HETATM   23  O   UNL     1     -10.044  12.215  68.774  1.00  0.00    -0.184 OA 
HETATM   24  O   UNL     1     -12.094  11.391  69.970  1.00  0.00    -0.310 OA 
BRANCH  22  25
HETATM   25  N   UNL     1     -11.323  10.342  67.789  1.00  0.00    -0.426 N  
HETATM   26  H   UNL     1     -12.166   9.769  67.793  1.00  0.00     0.000 HD 
BRANCH  25  27
HETATM   27  C   UNL     1     -10.596  10.422  66.614  1.00  0.00    -0.178 C  
HETATM   28  O   UNL     1      -9.870   9.529  66.219  1.00  0.00    -0.226 OA 
BRANCH  27  29
HETATM   29  N   UNL     1     -10.765  11.610  65.957  1.00  0.00    -0.272 N  
HETATM   30  H   UNL     1      -9.989  12.021  65.437  1.00  0.00     0.000 HD 
BRANCH  29  31
HETATM   31  C   UNL     1     -12.053  12.287  66.003  1.00  0.00    -0.152 C  
HETATM   32  C   UNL     1     -11.946  13.661  66.672  1.00  0.00    -0.458 C  
HETATM   33  C   UNL     1     -11.275  14.703  65.780  1.00  0.00    -0.336 C  
HETATM   34  C   UNL     1     -11.961  14.796  64.422  1.00  0.00    -0.433 C  
HETATM   35  C   UNL     1     -12.021  13.440  63.727  1.00  0.00    -0.517 C  
HETATM   36  C   UNL     1     -12.680  12.382  64.609  1.00  0.00    -0.372 C  
ENDBRANCH  29  31
ENDBRANCH  27  29
ENDBRANCH  25  27
ENDBRANCH  22  25
ENDBRANCH  19  22
ENDBRANCH  15  16
ENDBRANCH  14  15
ENDBRANCH  13  14
ENDBRANCH   4  10
ENDBRANCH   2   3
TORSDOF 10
ENDMDL
MODEL      259
REMARK 921   NORMALIZED FREE ENERGY PREDICTED BY IDOCK:   -4.00 KCAL/MOL
REMARK 922        TOTAL FREE ENERGY PREDICTED BY IDOCK:   -8.32 KCAL/MOL
REMARK 923 INTER-LIGAND FREE ENERGY PREDICTED BY IDOCK:   -6.33 KCAL/MOL
REMARK 924 INTRA-LIGAND FREE ENERGY PREDICTED BY IDOCK:   -1.98 KCAL/MOL
REMARK 927      BINDING AFFINITY PREDICTED BY RF-SCORE:    0.00 PKD
ROOT
HETATM    1  C   UNL     1      -7.879   8.363  62.833  1.00  0.00    -0.149 C  
HETATM    2  O   UNL     1      -6.704   8.008  63.561  1.00  0.00    -0.073 OA 
ENDROOT
BRANCH   2   3
HETATM    3  C   UNL     1      -6.494   6.664  63.734  1.00  0.00    -0.037 A  
HETATM    4  C   UNL     1      -6.929   6.046  64.926  1.00  0.00    -0.055 A  
HETATM    5  C   UNL     1      -6.703   4.670  65.109  1.00  0.00    -0.048 A  
HETATM    6  C   UNL     1      -5.777   5.910  62.791  1.00  0.00    -0.018 A  
HETATM    7 CL   UNL     1      -5.697   2.266  64.409  1.00  0.00    -0.009 Cl 
HETATM    8  C   UNL     1      -5.525   4.555  63.003  1.00  0.00    -0.009 A  
HETATM    9  C   UNL     1      -5.998   3.939  64.154  1.00  0.00    -0.014 A  
BRANCH   4  10
HETATM   10  C   UNL     1      -7.639   6.817  66.000  1.00  0.00    -0.086 C  
HETATM   11  H   UNL     1      -9.492   6.135  65.321  1.00  0.00     0.000 HD 
HETATM   12  O   UNL     1      -7.036   7.540  66.782  1.00  0.00    -0.078 OA 
HETATM   13  N   UNL     1      -9.017   6.654  66.059  1.00  0.00    -0.142 N  
BRANCH  13  14
HETATM   14  C   UNL     1      -9.794   7.209  67.153  1.00  0.00    -0.181 C  
BRANCH  14  15
HETATM   15  C   UNL     1     -10.518   8.511  66.786  1.00  0.00    -0.308 C  
BRANCH  15  16
HETATM   16  C   UNL     1      -9.712   9.786  66.965  1.00  0.00    -0.233 A  
HETATM   17  C   UNL     1      -8.993  10.392  65.922  1.00  0.00    -0.182 A  
HETATM   18  C   UNL     1      -8.206  11.524  66.154  1.00  0.00     0.018 A  
HETATM   19  C   UNL     1      -8.137  12.072  67.434  1.00  0.00    -0.168 A  
HETATM   20  C   UNL     1      -9.660  10.373  68.240  1.00  0.00    -0.152 A  
HETATM   21  C   UNL     1      -8.867  11.500  68.480  1.00  0.00    -0.139 A  
BRANCH  19  22
HETATM   22  S   UNL     1      -7.000  13.402  67.755  1.00  0.00    -0.168 S  
HETATM   23  O   UNL     1      -5.740  13.046  67.131  1.00  0.00    -0.349 OA 
HETATM   24  O   UNL     1      -7.051  13.742  69.159  1.00  0.00    -0.108 OA 
BRANCH  22  25
HETATM   25  N   UNL     1      -7.579  14.675  66.857  1.00  0.00    -0.245 N  
HETATM   26  H   UNL     1      -6.926  15.168  66.249  1.00  0.00     0.000 HD 
BRANCH  25  27
HETATM   27  C   UNL     1      -8.895  15.105  66.883  1.00  0.00    -0.256 C  
HETATM   28  O   UNL     1      -9.309  15.927  67.679  1.00  0.00    -0.214 OA 
BRANCH  27  29
HETATM   29  N   UNL     1      -9.678  14.498  65.940  1.00  0.00    -0.418 N  
HETATM   30  H   UNL     1      -9.258  13.867  65.257  1.00  0.00     0.000 HD 
BRANCH  29  31
HETATM   31  C   UNL     1     -11.111  14.754  65.914  1.00  0.00    -0.340 C  
HETATM   32  C   UNL     1     -11.647  14.823  64.480  1.00  0.00    -0.366 C  
HETATM   33  C   UNL     1     -11.740  13.452  63.816  1.00  0.00    -0.426 C  
HETATM   34  C   UNL     1     -12.547  12.477  64.666  1.00  0.00    -0.507 C  
HETATM   35  C   UNL     1     -11.985  12.362  66.079  1.00  0.00    -0.419 C  
HETATM   36  C   UNL     1     -11.874  13.727  66.755  1.00  0.00    -0.454 C  
ENDBRANCH  29  31
ENDBRANCH  27  29
ENDBRANCH  25  27
ENDBRANCH  22  25
ENDBRANCH  19  22
ENDBRANCH  15  16
ENDBRANCH  14  15
ENDBRANCH  13  14
ENDBRANCH   4  10
ENDBRANCH   2   3
TORSDOF 10
ENDMDL
MODEL      260
REMARK 921   NORMALIZED FREE ENERGY PREDICTED BY IDOCK:   -3.99 KCAL/MOL
REMARK 922        TOTAL FREE ENERGY PREDICTED BY IDOCK:   -8.30 KCAL/MOL
REMARK 923 INTER-LIGAND FREE ENERGY PREDICTED BY IDOCK:   -7.34 KCAL/MOL
REMARK 924 INTRA-LIGAND FREE ENERGY PREDICTED BY IDOCK:   -0.96 KCAL/MOL
REMARK 927      BINDING AFFINITY PREDICTED BY RF-SCORE:    0.00 PKD
ROOT
HETATM    1  C   UNL     1      -7.154   6.894  68.222  1.00  0.00    -0.086 C  
HETATM    2  O   UNL     1      -7.136   5.488  67.977  1.00  0.00    -0.064 OA 
ENDROOT
BRANCH   2   3
HETATM    3  C   UNL     1      -7.929   5.053  66.947  1.00  0.00    -0.104 A  
HETATM    4  C   UNL     1      -8.825   3.986  67.169  1.00  0.00    -0.128 A  
HETATM    5  C   UNL     1      -9.630   3.531  66.109  1.00  0.00    -0.106 A  
HETATM    6  C   UNL     1      -7.804   5.586  65.654  1.00  0.00    -0.101 A  
HETATM    7 CL   UNL     1     -10.460   3.491  63.542  1.00  0.00    -0.231 Cl 
HETATM    8  C   UNL     1      -8.579   5.099  64.602  1.00  0.00    -0.142 A  
HETATM    9  C   UNL     1      -9.496   4.084  64.837  1.00  0.00    -0.171 A  
BRANCH   4  10
HETATM   10  C   UNL     1      -8.953   3.331  68.514  1.00  0.00    -0.134 C  
HETATM   11  H   UNL     1      -7.779   4.815  69.395  1.00  0.00     0.000 HD 
HETATM   12  O   UNL     1      -9.550   2.273  68.662  1.00  0.00    -0.173 OA 
HETATM   13  N   UNL     1      -8.363   3.999  69.578  1.00  0.00    -0.057 N  
BRANCH  13  14
HETATM   14  C   UNL     1      -8.560   3.558  70.947  1.00  0.00    -0.071 C  
BRANCH  14  15
HETATM   15  C   UNL     1      -9.812   4.152  71.604  1.00  0.00    -0.254 C  
BRANCH  15  16
HETATM   16  C   UNL     1     -10.166   5.568  71.185  1.00  0.00    -0.285 A  
HETATM   17  C   UNL     1     -11.060   5.859  70.141  1.00  0.00    -0.395 A  
HETATM   18  C   UNL     1     -11.297   7.178  69.742  1.00  0.00    -0.158 A  
HETATM   19  C   UNL     1     -10.650   8.227  70.394  1.00  0.00    -0.224 A  
HETATM   20  C   UNL     1      -9.551   6.640  71.853  1.00  0.00    -0.152 A  
HETATM   21  C   UNL     1      -9.778   7.961  71.453  1.00  0.00    -0.199 A  
BRANCH  19  22
HETATM   22  S   UNL     1     -10.823   9.883  69.768  1.00  0.00    -0.285 S  
HETATM   23  O   UNL     1      -9.487  10.435  69.642  1.00  0.00    -0.187 OA 
HETATM   24  O   UNL     1     -11.832  10.577  70.535  1.00  0.00    -0.291 OA 
BRANCH  22  25
HETATM   25  N   UNL     1     -11.354   9.687  68.205  1.00  0.00    -0.500 N  
HETATM   26  H   UNL     1     -12.359   9.605  68.047  1.00  0.00     0.000 HD 
BRANCH  25  27
HETATM   27  C   UNL     1     -10.516   9.628  67.105  1.00  0.00    -0.249 C  
HETATM   28  O   UNL     1      -9.948   8.610  66.755  1.00  0.00    -0.223 OA 
BRANCH  27  29
HETATM   29  N   UNL     1     -10.380  10.831  66.468  1.00  0.00    -0.238 N  
HETATM   30  H   UNL     1      -9.663  10.952  65.753  1.00  0.00     0.000 HD 
BRANCH  29  31
HETATM   31  C   UNL     1     -11.262  11.938  66.813  1.00  0.00    -0.327 C  
HETATM   32  C   UNL     1     -10.512  13.047  67.558  1.00  0.00    -0.229 C  
HETATM   33  C   UNL     1      -9.610  13.870  66.641  1.00  0.00    -0.297 C  
HETATM   34  C   UNL     1     -10.385  14.423  65.451  1.00  0.00    -0.400 C  
HETATM   35  C   UNL     1     -11.089  13.316  64.673  1.00  0.00    -0.375 C  
HETATM   36  C   UNL     1     -11.988  12.475  65.576  1.00  0.00    -0.500 C  
ENDBRANCH  29  31
ENDBRANCH  27  29
ENDBRANCH  25  27
ENDBRANCH  22  25
ENDBRANCH  19  22
ENDBRANCH  15  16
ENDBRANCH  14  15
ENDBRANCH  13  14
ENDBRANCH   4  10
ENDBRANCH   2   3
TORSDOF 10
ENDMDL
MODEL      261
REMARK 921   NORMALIZED FREE ENERGY PREDICTED BY IDOCK:   -3.98 KCAL/MOL
REMARK 922        TOTAL FREE ENERGY PREDICTED BY IDOCK:   -8.28 KCAL/MOL
REMARK 923 INTER-LIGAND FREE ENERGY PREDICTED BY IDOCK:   -7.41 KCAL/MOL
REMARK 924 INTRA-LIGAND FREE ENERGY PREDICTED BY IDOCK:   -0.87 KCAL/MOL
REMARK 927      BINDING AFFINITY PREDICTED BY RF-SCORE:    0.00 PKD
ROOT
HETATM    1  C   UNL     1     -12.308   7.546  71.303  1.00  0.00    -0.327 C  
HETATM    2  O   UNL     1     -10.915   7.238  71.267  1.00  0.00    -0.239 OA 
ENDROOT
BRANCH   2   3
HETATM    3  C   UNL     1     -10.414   6.888  70.040  1.00  0.00    -0.207 A  
HETATM    4  C   UNL     1      -9.371   7.653  69.477  1.00  0.00    -0.153 A  
HETATM    5  C   UNL     1      -8.864   7.301  68.213  1.00  0.00    -0.127 A  
HETATM    6  C   UNL     1     -10.978   5.841  69.293  1.00  0.00    -0.330 A  
HETATM    7 CL   UNL     1      -8.828   5.856  65.934  1.00  0.00    -0.152 Cl 
HETATM    8  C   UNL     1     -10.493   5.527  68.024  1.00  0.00    -0.240 A  
HETATM    9  C   UNL     1      -9.433   6.250  67.495  1.00  0.00    -0.112 A  
BRANCH   4  10
HETATM   10  C   UNL     1      -8.776   8.826  70.199  1.00  0.00    -0.149 C  
HETATM   11  H   UNL     1      -6.864   8.325  69.525  1.00  0.00     0.000 HD 
HETATM   12  O   UNL     1      -9.455   9.566  70.898  1.00  0.00    -0.239 OA 
HETATM   13  N   UNL     1      -7.414   9.028  70.021  1.00  0.00    -0.056 N  
BRANCH  13  14
HETATM   14  C   UNL     1      -6.756  10.219  70.526  1.00  0.00    -0.068 C  
BRANCH  14  15
HETATM   15  C   UNL     1      -6.124  11.080  69.425  1.00  0.00    -0.060 C  
BRANCH  15  16
HETATM   16  C   UNL     1      -7.070  12.025  68.704  1.00  0.00    -0.103 A  
HETATM   17  C   UNL     1      -7.998  11.596  67.740  1.00  0.00    -0.131 A  
HETATM   18  C   UNL     1      -8.795  12.514  67.050  1.00  0.00    -0.212 A  
HETATM   19  C   UNL     1      -8.681  13.876  67.324  1.00  0.00    -0.217 A  
HETATM   20  C   UNL     1      -6.995  13.398  68.992  1.00  0.00    -0.084 A  
HETATM   21  C   UNL     1      -7.783  14.322  68.298  1.00  0.00    -0.136 A  
BRANCH  19  22
HETATM   22  S   UNL     1      -9.570  15.046  66.321  1.00  0.00    -0.323 S  
HETATM   23  O   UNL     1     -10.364  14.283  65.377  1.00  0.00    -0.327 OA 
HETATM   24  O   UNL     1      -8.655  16.062  65.853  1.00  0.00    -0.270 OA 
BRANCH  22  25
HETATM   25  N   UNL     1     -10.675  15.732  67.356  1.00  0.00    -0.314 N  
HETATM   26  H   UNL     1     -11.661  15.512  67.218  1.00  0.00     0.000 HD 
BRANCH  25  27
HETATM   27  C   UNL     1     -10.337  16.583  68.394  1.00  0.00    -0.294 C  
HETATM   28  O   UNL     1     -10.944  16.620  69.448  1.00  0.00    -0.301 OA 
BRANCH  27  29
HETATM   29  N   UNL     1      -9.268  17.386  68.105  1.00  0.00    -0.263 N  
HETATM   30  H   UNL     1      -8.548  17.064  67.457  1.00  0.00     0.000 HD 
BRANCH  29  31
HETATM   31  C   UNL     1      -9.160  18.700  68.722  1.00  0.00    -0.266 C  
HETATM   32  C   UNL     1      -7.720  19.008  69.147  1.00  0.00    -0.213 C  
HETATM   33  C   UNL     1      -6.812  19.338  67.964  1.00  0.00    -0.267 C  
HETATM   34  C   UNL     1      -7.395  20.459  67.112  1.00  0.00    -0.355 C  
HETATM   35  C   UNL     1      -8.808  20.133  66.641  1.00  0.00    -0.382 C  
HETATM   36  C   UNL     1      -9.729  19.791  67.811  1.00  0.00    -0.495 C  
ENDBRANCH  29  31
ENDBRANCH  27  29
ENDBRANCH  25  27
ENDBRANCH  22  25
ENDBRANCH  19  22
ENDBRANCH  15  16
ENDBRANCH  14  15
ENDBRANCH  13  14
ENDBRANCH   4  10
ENDBRANCH   2   3
TORSDOF 10
ENDMDL
MODEL      262
REMARK 921   NORMALIZED FREE ENERGY PREDICTED BY IDOCK:   -3.98 KCAL/MOL
REMARK 922        TOTAL FREE ENERGY PREDICTED BY IDOCK:   -8.28 KCAL/MOL
REMARK 923 INTER-LIGAND FREE ENERGY PREDICTED BY IDOCK:   -6.96 KCAL/MOL
REMARK 924 INTRA-LIGAND FREE ENERGY PREDICTED BY IDOCK:   -1.32 KCAL/MOL
REMARK 927      BINDING AFFINITY PREDICTED BY RF-SCORE:    0.00 PKD
ROOT
HETATM    1  C   UNL     1      -6.284  17.501  69.045  1.00  0.00    -0.212 C  
HETATM    2  O   UNL     1      -7.599  16.980  68.855  1.00  0.00    -0.236 OA 
ENDROOT
BRANCH   2   3
HETATM    3  C   UNL     1      -8.420  17.718  68.042  1.00  0.00    -0.253 A  
HETATM    4  C   UNL     1      -9.295  17.052  67.158  1.00  0.00    -0.241 A  
HETATM    5  C   UNL     1     -10.129  17.809  66.315  1.00  0.00    -0.345 A  
HETATM    6  C   UNL     1      -8.346  19.119  68.008  1.00  0.00    -0.340 A  
HETATM    7 CL   UNL     1     -11.045  20.110  65.244  1.00  0.00     0.010 Cl 
HETATM    8  C   UNL     1      -9.150  19.857  67.140  1.00  0.00    -0.443 A  
HETATM    9  C   UNL     1     -10.045  19.199  66.307  1.00  0.00    -0.431 A  
BRANCH   4  10
HETATM   10  C   UNL     1      -9.369  15.554  67.101  1.00  0.00    -0.216 C  
HETATM   11  H   UNL     1     -11.237  15.568  68.033  1.00  0.00     0.000 HD 
HETATM   12  O   UNL     1      -8.448  14.878  66.659  1.00  0.00    -0.221 OA 
HETATM   13  N   UNL     1     -10.544  14.981  67.569  1.00  0.00    -0.261 N  
BRANCH  13  14
HETATM   14  C   UNL     1     -10.804  13.562  67.412  1.00  0.00    -0.269 C  
BRANCH  14  15
HETATM   15  C   UNL     1     -10.345  12.722  68.610  1.00  0.00    -0.194 C  
BRANCH  15  16
HETATM   16  C   UNL     1     -10.318  11.219  68.390  1.00  0.00    -0.207 A  
HETATM   17  C   UNL     1     -10.569  10.621  67.144  1.00  0.00    -0.312 A  
HETATM   18  C   UNL     1     -10.607   9.230  67.008  1.00  0.00    -0.263 A  
HETATM   19  C   UNL     1     -10.382   8.417  68.118  1.00  0.00    -0.204 A  
HETATM   20  C   UNL     1     -10.059  10.384  69.490  1.00  0.00    -0.246 A  
HETATM   21  C   UNL     1     -10.104   8.992  69.362  1.00  0.00    -0.198 A  
BRANCH  19  22
HETATM   22  S   UNL     1     -10.605   6.658  67.973  1.00  0.00    -0.269 S  
HETATM   23  O   UNL     1     -11.051   6.395  66.618  1.00  0.00    -0.292 OA 
HETATM   24  O   UNL     1     -11.371   6.182  69.101  1.00  0.00    -0.399 OA 
BRANCH  22  25
HETATM   25  N   UNL     1      -9.066   6.034  68.046  1.00  0.00    -0.118 N  
HETATM   26  H   UNL     1      -8.887   5.276  68.704  1.00  0.00     0.000 HD 
BRANCH  25  27
HETATM   27  C   UNL     1      -8.012   6.481  67.268  1.00  0.00    -0.113 C  
HETATM   28  O   UNL     1      -7.086   7.133  67.713  1.00  0.00    -0.080 OA 
BRANCH  27  29
HETATM   29  N   UNL     1      -8.130   6.131  65.951  1.00  0.00    -0.115 N  
HETATM   30  H   UNL     1      -8.220   6.853  65.236  1.00  0.00     0.000 HD 
BRANCH  29  31
HETATM   31  C   UNL     1      -8.127   4.724  65.571  1.00  0.00    -0.111 C  
HETATM   32  C   UNL     1      -9.051   4.458  64.379  1.00  0.00    -0.152 C  
HETATM   33  C   UNL     1      -8.472   4.958  63.058  1.00  0.00    -0.119 C  
HETATM   34  C   UNL     1      -7.075   4.397  62.817  1.00  0.00    -0.039 C  
HETATM   35  C   UNL     1      -6.135   4.707  63.977  1.00  0.00    -0.022 C  
HETATM   36  C   UNL     1      -6.704   4.223  65.310  1.00  0.00    -0.049 C  
ENDBRANCH  29  31
ENDBRANCH  27  29
ENDBRANCH  25  27
ENDBRANCH  22  25
ENDBRANCH  19  22
ENDBRANCH  15  16
ENDBRANCH  14  15
ENDBRANCH  13  14
ENDBRANCH   4  10
ENDBRANCH   2   3
TORSDOF 10
ENDMDL
MODEL      263
REMARK 921   NORMALIZED FREE ENERGY PREDICTED BY IDOCK:   -3.98 KCAL/MOL
REMARK 922        TOTAL FREE ENERGY PREDICTED BY IDOCK:   -8.27 KCAL/MOL
REMARK 923 INTER-LIGAND FREE ENERGY PREDICTED BY IDOCK:   -6.61 KCAL/MOL
REMARK 924 INTRA-LIGAND FREE ENERGY PREDICTED BY IDOCK:   -1.66 KCAL/MOL
REMARK 927      BINDING AFFINITY PREDICTED BY RF-SCORE:    0.00 PKD
ROOT
HETATM    1  C   UNL     1     -10.985   9.490  68.096  1.00  0.00    -0.089 C  
HETATM    2  O   UNL     1     -10.411  10.207  69.188  1.00  0.00    -0.195 OA 
ENDROOT
BRANCH   2   3
HETATM    3  C   UNL     1     -11.282  10.969  69.923  1.00  0.00    -0.252 A  
HETATM    4  C   UNL     1     -11.420  12.341  69.625  1.00  0.00    -0.285 A  
HETATM    5  C   UNL     1     -12.304  13.126  70.387  1.00  0.00    -0.351 A  
HETATM    6  C   UNL     1     -11.971  10.433  71.023  1.00  0.00    -0.481 A  
HETATM    7 CL   UNL     1     -14.035  13.550  72.413  1.00  0.00    -0.673 Cl 
HETATM    8  C   UNL     1     -12.815  11.231  71.795  1.00  0.00    -0.466 A  
HETATM    9  C   UNL     1     -12.986  12.569  71.467  1.00  0.00    -0.280 A  
BRANCH   4  10
HETATM   10  C   UNL     1     -10.656  12.985  68.504  1.00  0.00    -0.258 C  
HETATM   11  H   UNL     1     -12.070  12.336  67.112  1.00  0.00     0.000 HD 
HETATM   12  O   UNL     1      -9.586  13.548  68.693  1.00  0.00    -0.179 OA 
HETATM   13  N   UNL     1     -11.238  12.911  67.246  1.00  0.00    -0.275 N  
BRANCH  13  14
HETATM   14  C   UNL     1     -10.685  13.636  66.117  1.00  0.00    -0.286 C  
BRANCH  14  15
HETATM   15  C   UNL     1     -10.471  12.761  64.876  1.00  0.00    -0.342 C  
BRANCH  15  16
HETATM   16  C   UNL     1      -9.684  11.482  65.099  1.00  0.00    -0.268 A  
HETATM   17  C   UNL     1      -9.989  10.270  64.458  1.00  0.00    -0.359 A  
HETATM   18  C   UNL     1      -9.282   9.101  64.754  1.00  0.00    -0.085 A  
HETATM   19  C   UNL     1      -8.249   9.132  65.689  1.00  0.00    -0.120 A  
HETATM   20  C   UNL     1      -8.616  11.501  66.012  1.00  0.00    -0.046 A  
HETATM   21  C   UNL     1      -7.911  10.333  66.319  1.00  0.00    -0.118 A  
BRANCH  19  22
HETATM   22  S   UNL     1      -7.473   7.610  66.186  1.00  0.00    -0.084 S  
HETATM   23  O   UNL     1      -6.788   7.867  67.438  1.00  0.00    -0.066 OA 
HETATM   24  O   UNL     1      -6.758   7.053  65.061  1.00  0.00    -0.045 OA 
BRANCH  22  25
HETATM   25  N   UNL     1      -8.738   6.608  66.588  1.00  0.00    -0.121 N  
HETATM   26  H   UNL     1      -9.586   7.033  66.961  1.00  0.00     0.000 HD 
BRANCH  25  27
HETATM   27  C   UNL     1      -8.708   5.231  66.446  1.00  0.00    -0.118 C  
HETATM   28  O   UNL     1      -9.529   4.612  65.795  1.00  0.00    -0.153 OA 
BRANCH  27  29
HETATM   29  N   UNL     1      -7.677   4.643  67.126  1.00  0.00    -0.090 N  
HETATM   30  H   UNL     1      -6.879   4.265  66.616  1.00  0.00     0.000 HD 
BRANCH  29  31
HETATM   31  C   UNL     1      -7.722   4.559  68.580  1.00  0.00    -0.075 C  
HETATM   32  C   UNL     1      -8.997   3.864  69.067  1.00  0.00    -0.175 C  
HETATM   33  C   UNL     1      -8.972   2.354  68.842  1.00  0.00    -0.170 C  
HETATM   34  C   UNL     1      -7.726   1.723  69.452  1.00  0.00    -0.045 C  
HETATM   35  C   UNL     1      -6.451   2.374  68.929  1.00  0.00    -0.029 C  
HETATM   36  C   UNL     1      -6.462   3.887  69.135  1.00  0.00    -0.033 C  
ENDBRANCH  29  31
ENDBRANCH  27  29
ENDBRANCH  25  27
ENDBRANCH  22  25
ENDBRANCH  19  22
ENDBRANCH  15  16
ENDBRANCH  14  15
ENDBRANCH  13  14
ENDBRANCH   4  10
ENDBRANCH   2   3
TORSDOF 10
ENDMDL
MODEL      264
REMARK 921   NORMALIZED FREE ENERGY PREDICTED BY IDOCK:   -3.95 KCAL/MOL
REMARK 922        TOTAL FREE ENERGY PREDICTED BY IDOCK:   -8.24 KCAL/MOL
REMARK 923 INTER-LIGAND FREE ENERGY PREDICTED BY IDOCK:   -6.31 KCAL/MOL
REMARK 924 INTRA-LIGAND FREE ENERGY PREDICTED BY IDOCK:   -1.92 KCAL/MOL
REMARK 927      BINDING AFFINITY PREDICTED BY RF-SCORE:    0.00 PKD
ROOT
HETATM    1  C   UNL     1      -5.975   7.171  69.804  1.00  0.00    -0.024 C  
HETATM    2  O   UNL     1      -6.835   6.062  69.546  1.00  0.00    -0.057 OA 
ENDROOT
BRANCH   2   3
HETATM    3  C   UNL     1      -7.639   5.677  70.587  1.00  0.00    -0.090 A  
HETATM    4  C   UNL     1      -8.440   4.524  70.451  1.00  0.00    -0.096 A  
HETATM    5  C   UNL     1      -9.274   4.135  71.515  1.00  0.00    -0.194 A  
HETATM    6  C   UNL     1      -7.750   6.456  71.750  1.00  0.00    -0.096 A  
HETATM    7 CL   UNL     1     -10.412   4.451  73.941  1.00  0.00    -0.262 Cl 
HETATM    8  C   UNL     1      -8.610   6.082  72.782  1.00  0.00    -0.124 A  
HETATM    9  C   UNL     1      -9.359   4.918  72.664  1.00  0.00    -0.133 A  
BRANCH   4  10
HETATM   10  C   UNL     1      -8.415   3.690  69.203  1.00  0.00    -0.069 C  
HETATM   11  H   UNL     1     -10.322   4.353  68.672  1.00  0.00     0.000 HD 
HETATM   12  O   UNL     1      -7.476   2.950  68.939  1.00  0.00    -0.048 OA 
HETATM   13  N   UNL     1      -9.513   3.815  68.362  1.00  0.00    -0.164 N  
BRANCH  13  14
HETATM   14  C   UNL     1      -9.531   3.194  67.050  1.00  0.00    -0.094 C  
BRANCH  14  15
HETATM   15  C   UNL     1      -9.078   4.134  65.925  1.00  0.00    -0.136 C  
BRANCH  15  16
HETATM   16  C   UNL     1      -9.285   5.616  66.182  1.00  0.00    -0.169 A  
HETATM   17  C   UNL     1     -10.511   6.160  66.601  1.00  0.00    -0.267 A  
HETATM   18  C   UNL     1     -10.673   7.540  66.753  1.00  0.00    -0.169 A  
HETATM   19  C   UNL     1      -9.603   8.396  66.496  1.00  0.00    -0.236 A  
HETATM   20  C   UNL     1      -8.209   6.492  65.964  1.00  0.00    -0.127 A  
HETATM   21  C   UNL     1      -8.367   7.875  66.104  1.00  0.00    -0.127 A  
BRANCH  19  22
HETATM   22  S   UNL     1      -9.867  10.155  66.521  1.00  0.00    -0.223 S  
HETATM   23  O   UNL     1     -10.472  10.515  65.253  1.00  0.00    -0.262 OA 
HETATM   24  O   UNL     1      -8.659  10.810  66.967  1.00  0.00    -0.128 OA 
BRANCH  22  25
HETATM   25  N   UNL     1     -11.067  10.382  67.649  1.00  0.00    -0.322 N  
HETATM   26  H   UNL     1     -11.990  10.660  67.316  1.00  0.00     0.000 HD 
BRANCH  25  27
HETATM   27  C   UNL     1     -10.890  10.217  69.011  1.00  0.00    -0.230 C  
HETATM   28  O   UNL     1      -9.893  10.590  69.602  1.00  0.00    -0.186 OA 
BRANCH  27  29
HETATM   29  N   UNL     1     -11.938   9.579  69.616  1.00  0.00    -0.247 N  
HETATM   30  H   UNL     1     -12.794   9.394  69.093  1.00  0.00     0.000 HD 
BRANCH  29  31
HETATM   31  C   UNL     1     -11.829   9.165  71.009  1.00  0.00    -0.292 C  
HETATM   32  C   UNL     1     -13.121   9.441  71.783  1.00  0.00    -0.488 C  
HETATM   33  C   UNL     1     -14.240   8.462  71.436  1.00  0.00    -0.406 C  
HETATM   34  C   UNL     1     -13.785   7.017  71.606  1.00  0.00    -0.348 C  
HETATM   35  C   UNL     1     -12.529   6.722  70.793  1.00  0.00    -0.212 C  
HETATM   36  C   UNL     1     -11.402   7.699  71.120  1.00  0.00    -0.286 C  
ENDBRANCH  29  31
ENDBRANCH  27  29
ENDBRANCH  25  27
ENDBRANCH  22  25
ENDBRANCH  19  22
ENDBRANCH  15  16
ENDBRANCH  14  15
ENDBRANCH  13  14
ENDBRANCH   4  10
ENDBRANCH   2   3
TORSDOF 10
ENDMDL
MODEL      265
REMARK 921   NORMALIZED FREE ENERGY PREDICTED BY IDOCK:   -3.95 KCAL/MOL
REMARK 922        TOTAL FREE ENERGY PREDICTED BY IDOCK:   -8.23 KCAL/MOL
REMARK 923 INTER-LIGAND FREE ENERGY PREDICTED BY IDOCK:   -7.04 KCAL/MOL
REMARK 924 INTRA-LIGAND FREE ENERGY PREDICTED BY IDOCK:   -1.19 KCAL/MOL
REMARK 927      BINDING AFFINITY PREDICTED BY RF-SCORE:    0.00 PKD
ROOT
HETATM    1  C   UNL     1      -5.256  13.043  68.869  1.00  0.00    -0.068 C  
HETATM    2  O   UNL     1      -6.004  13.300  67.681  1.00  0.00    -0.160 OA 
ENDROOT
BRANCH   2   3
HETATM    3  C   UNL     1      -6.856  12.303  67.286  1.00  0.00    -0.140 A  
HETATM    4  C   UNL     1      -8.154  12.639  66.845  1.00  0.00    -0.015 A  
HETATM    5  C   UNL     1      -9.033  11.614  66.450  1.00  0.00    -0.198 A  
HETATM    6  C   UNL     1      -6.498  10.950  67.395  1.00  0.00    -0.065 A  
HETATM    7 CL   UNL     1      -9.750   9.035  66.107  1.00  0.00    -0.343 Cl 
HETATM    8  C   UNL     1      -7.393   9.941  67.039  1.00  0.00    -0.091 A  
HETATM    9  C   UNL     1      -8.650  10.278  66.557  1.00  0.00    -0.132 A  
BRANCH   4  10
HETATM   10  C   UNL     1      -8.617  14.064  66.772  1.00  0.00    -0.055 C  
HETATM   11  H   UNL     1     -10.468  13.468  66.011  1.00  0.00     0.000 HD 
HETATM   12  O   UNL     1      -7.883  14.998  67.069  1.00  0.00    -0.209 OA 
HETATM   13  N   UNL     1      -9.927  14.261  66.357  1.00  0.00    -0.282 N  
BRANCH  13  14
HETATM   14  C   UNL     1     -10.544  15.575  66.408  1.00  0.00    -0.311 C  
BRANCH  14  15
HETATM   15  C   UNL     1     -11.154  15.909  67.774  1.00  0.00    -0.288 C  
BRANCH  15  16
HETATM   16  C   UNL     1     -11.625  14.721  68.595  1.00  0.00    -0.345 A  
HETATM   17  C   UNL     1     -11.800  14.769  69.987  1.00  0.00    -0.362 A  
HETATM   18  C   UNL     1     -12.163  13.628  70.708  1.00  0.00    -0.424 A  
HETATM   19  C   UNL     1     -12.367  12.421  70.040  1.00  0.00    -0.085 A  
HETATM   20  C   UNL     1     -11.871  13.505  67.935  1.00  0.00    -0.397 A  
HETATM   21  C   UNL     1     -12.225  12.357  68.651  1.00  0.00     0.045 A  
BRANCH  19  22
HETATM   22  S   UNL     1     -12.657  10.940  70.981  1.00  0.00    -0.426 S  
HETATM   23  O   UNL     1     -13.341  10.005  70.108  1.00  0.00     0.097 OA 
HETATM   24  O   UNL     1     -13.225  11.294  72.262  1.00  0.00    -0.402 OA 
BRANCH  22  25
HETATM   25  N   UNL     1     -11.145  10.286  71.209  1.00  0.00    -0.154 N  
HETATM   26  H   UNL     1     -10.785  10.232  72.162  1.00  0.00     0.000 HD 
BRANCH  25  27
HETATM   27  C   UNL     1     -10.346   9.811  70.184  1.00  0.00    -0.282 C  
HETATM   28  O   UNL     1      -9.301  10.341  69.855  1.00  0.00    -0.160 OA 
BRANCH  27  29
HETATM   29  N   UNL     1     -10.860   8.701  69.572  1.00  0.00    -0.376 N  
HETATM   30  H   UNL     1     -11.438   8.800  68.737  1.00  0.00     0.000 HD 
BRANCH  29  31
HETATM   31  C   UNL     1     -10.581   7.379  70.114  1.00  0.00    -0.230 C  
HETATM   32  C   UNL     1     -11.285   6.279  69.313  1.00  0.00    -0.458 C  
HETATM   33  C   UNL     1     -10.624   6.015  67.963  1.00  0.00    -0.330 C  
HETATM   34  C   UNL     1      -9.136   5.725  68.120  1.00  0.00    -0.110 C  
HETATM   35  C   UNL     1      -8.420   6.843  68.869  1.00  0.00    -0.125 C  
HETATM   36  C   UNL     1      -9.074   7.128  70.219  1.00  0.00    -0.156 C  
ENDBRANCH  29  31
ENDBRANCH  27  29
ENDBRANCH  25  27
ENDBRANCH  22  25
ENDBRANCH  19  22
ENDBRANCH  15  16
ENDBRANCH  14  15
ENDBRANCH  13  14
ENDBRANCH   4  10
ENDBRANCH   2   3
TORSDOF 10
ENDMDL
MODEL      266
REMARK 921   NORMALIZED FREE ENERGY PREDICTED BY IDOCK:   -3.94 KCAL/MOL
REMARK 922        TOTAL FREE ENERGY PREDICTED BY IDOCK:   -8.21 KCAL/MOL
REMARK 923 INTER-LIGAND FREE ENERGY PREDICTED BY IDOCK:   -7.21 KCAL/MOL
REMARK 924 INTRA-LIGAND FREE ENERGY PREDICTED BY IDOCK:   -1.00 KCAL/MOL
REMARK 927      BINDING AFFINITY PREDICTED BY RF-SCORE:    0.00 PKD
ROOT
HETATM    1  C   UNL     1     -12.520  14.395  65.361  1.00  0.00    -0.350 C  
HETATM    2  O   UNL     1     -11.284  14.892  64.849  1.00  0.00    -0.378 OA 
ENDROOT
BRANCH   2   3
HETATM    3  C   UNL     1     -10.749  15.961  65.519  1.00  0.00    -0.372 A  
HETATM    4  C   UNL     1     -10.017  15.737  66.704  1.00  0.00    -0.268 A  
HETATM    5  C   UNL     1      -9.477  16.835  67.398  1.00  0.00    -0.236 A  
HETATM    6  C   UNL     1     -10.990  17.279  65.100  1.00  0.00     0.118 A  
HETATM    7 CL   UNL     1      -9.087  19.469  67.837  1.00  0.00    -0.372 Cl 
HETATM    8  C   UNL     1     -10.484  18.362  65.819  1.00  0.00    -0.250 A  
HETATM    9  C   UNL     1      -9.721  18.134  66.957  1.00  0.00    -0.307 A  
BRANCH   4  10
HETATM   10  C   UNL     1      -9.785  14.353  67.237  1.00  0.00    -0.233 C  
HETATM   11  H   UNL     1     -10.912  14.777  68.943  1.00  0.00     0.000 HD 
HETATM   12  O   UNL     1      -9.079  13.545  66.650  1.00  0.00    -0.234 OA 
HETATM   13  N   UNL     1     -10.426  14.042  68.429  1.00  0.00    -0.246 N  
BRANCH  13  14
HETATM   14  C   UNL     1     -10.419  12.690  68.957  1.00  0.00     0.007 C  
BRANCH  14  15
HETATM   15  C   UNL     1     -11.823  12.105  69.152  1.00  0.00    -0.361 C  
BRANCH  15  16
HETATM   16  C   UNL     1     -11.883  10.746  69.828  1.00  0.00    -0.409 A  
HETATM   17  C   UNL     1     -12.814  10.425  70.828  1.00  0.00    -0.450 A  
HETATM   18  C   UNL     1     -12.781   9.185  71.473  1.00  0.00    -0.409 A  
HETATM   19  C   UNL     1     -11.819   8.242  71.114  1.00  0.00    -0.275 A  
HETATM   20  C   UNL     1     -10.943   9.770  69.455  1.00  0.00    -0.241 A  
HETATM   21  C   UNL     1     -10.899   8.530  70.102  1.00  0.00    -0.238 A  
BRANCH  19  22
HETATM   22  S   UNL     1     -11.674   6.740  72.057  1.00  0.00    -0.310 S  
HETATM   23  O   UNL     1     -13.003   6.165  72.152  1.00  0.00    -0.042 OA 
HETATM   24  O   UNL     1     -10.903   7.001  73.251  1.00  0.00    -0.308 OA 
BRANCH  22  25
HETATM   25  N   UNL     1     -10.829   5.705  71.068  1.00  0.00    -0.247 N  
HETATM   26  H   UNL     1     -11.087   5.667  70.082  1.00  0.00     0.000 HD 
BRANCH  25  27
HETATM   27  C   UNL     1      -9.795   4.893  71.502  1.00  0.00    -0.183 C  
HETATM   28  O   UNL     1      -9.895   4.140  72.452  1.00  0.00    -0.146 OA 
BRANCH  27  29
HETATM   29  N   UNL     1      -8.652   5.040  70.766  1.00  0.00    -0.120 N  
HETATM   30  H   UNL     1      -8.259   4.241  70.267  1.00  0.00     0.000 HD 
BRANCH  29  31
HETATM   31  C   UNL     1      -7.996   6.338  70.695  1.00  0.00    -0.112 C  
HETATM   32  C   UNL     1      -7.620   6.859  72.086  1.00  0.00    -0.092 C  
HETATM   33  C   UNL     1      -6.419   6.131  72.685  1.00  0.00    -0.063 C  
HETATM   34  C   UNL     1      -5.225   6.158  71.738  1.00  0.00    -0.022 C  
HETATM   35  C   UNL     1      -5.579   5.590  70.368  1.00  0.00    -0.009 C  
HETATM   36  C   UNL     1      -6.786   6.299  69.757  1.00  0.00    -0.056 C  
ENDBRANCH  29  31
ENDBRANCH  27  29
ENDBRANCH  25  27
ENDBRANCH  22  25
ENDBRANCH  19  22
ENDBRANCH  15  16
ENDBRANCH  14  15
ENDBRANCH  13  14
ENDBRANCH   4  10
ENDBRANCH   2   3
TORSDOF 10
ENDMDL
MODEL      267
REMARK 921   NORMALIZED FREE ENERGY PREDICTED BY IDOCK:   -3.89 KCAL/MOL
REMARK 922        TOTAL FREE ENERGY PREDICTED BY IDOCK:   -8.13 KCAL/MOL
REMARK 923 INTER-LIGAND FREE ENERGY PREDICTED BY IDOCK:   -6.64 KCAL/MOL
REMARK 924 INTRA-LIGAND FREE ENERGY PREDICTED BY IDOCK:   -1.49 KCAL/MOL
REMARK 927      BINDING AFFINITY PREDICTED BY RF-SCORE:    0.00 PKD
ROOT
HETATM    1  C   UNL     1      -9.783  10.457  68.894  1.00  0.00    -0.198 C  
HETATM    2  O   UNL     1     -11.157  10.792  68.708  1.00  0.00    -0.221 OA 
ENDROOT
BRANCH   2   3
HETATM    3  C   UNL     1     -11.590  11.916  69.363  1.00  0.00    -0.325 A  
HETATM    4  C   UNL     1     -12.446  11.779  70.477  1.00  0.00    -0.317 A  
HETATM    5  C   UNL     1     -12.900  12.932  71.142  1.00  0.00    -0.326 A  
HETATM    6  C   UNL     1     -11.272  13.201  68.897  1.00  0.00    -0.324 A  
HETATM    7 CL   UNL     1     -13.155  15.599  71.468  1.00  0.00    -0.551 Cl 
HETATM    8  C   UNL     1     -11.760  14.338  69.541  1.00  0.00    -0.366 A  
HETATM    9  C   UNL     1     -12.562  14.198  70.667  1.00  0.00    -0.351 A  
BRANCH   4  10
HETATM   10  C   UNL     1     -12.876  10.432  70.979  1.00  0.00    -0.401 C  
HETATM   11  H   UNL     1     -11.143  10.261  72.130  1.00  0.00     0.000 HD 
HETATM   12  O   UNL     1     -13.905   9.895  70.589  1.00  0.00    -0.026 OA 
HETATM   13  N   UNL     1     -12.045   9.835  71.917  1.00  0.00    -0.336 N  
BRANCH  13  14
HETATM   14  C   UNL     1     -12.435   8.616  72.602  1.00  0.00    -0.214 C  
BRANCH  14  15
HETATM   15  C   UNL     1     -11.259   7.674  72.886  1.00  0.00    -0.426 C  
BRANCH  15  16
HETATM   16  C   UNL     1     -10.632   7.017  71.668  1.00  0.00    -0.226 A  
HETATM   17  C   UNL     1     -11.386   6.439  70.634  1.00  0.00    -0.419 A  
HETATM   18  C   UNL     1     -10.763   5.780  69.570  1.00  0.00    -0.408 A  
HETATM   19  C   UNL     1      -9.372   5.700  69.522  1.00  0.00    -0.133 A  
HETATM   20  C   UNL     1      -9.231   6.958  71.584  1.00  0.00    -0.146 A  
HETATM   21  C   UNL     1      -8.602   6.292  70.527  1.00  0.00    -0.139 A  
BRANCH  19  22
HETATM   22  S   UNL     1      -8.597   4.712  68.262  1.00  0.00    -0.099 S  
HETATM   23  O   UNL     1      -8.872   3.324  68.578  1.00  0.00    -0.095 OA 
HETATM   24  O   UNL     1      -7.238   5.165  68.073  1.00  0.00    -0.065 OA 
BRANCH  22  25
HETATM   25  N   UNL     1      -9.479   5.021  66.886  1.00  0.00    -0.134 N  
HETATM   26  H   UNL     1     -10.496   5.024  66.960  1.00  0.00     0.000 HD 
BRANCH  25  27
HETATM   27  C   UNL     1      -8.915   5.275  65.648  1.00  0.00    -0.158 C  
HETATM   28  O   UNL     1      -9.155   6.278  65.001  1.00  0.00     0.195 OA 
BRANCH  27  29
HETATM   29  N   UNL     1      -8.081   4.278  65.222  1.00  0.00    -0.100 N  
HETATM   30  H   UNL     1      -7.070   4.389  65.301  1.00  0.00     0.000 HD 
BRANCH  29  31
HETATM   31  C   UNL     1      -8.640   3.057  64.657  1.00  0.00    -0.100 C  
HETATM   32  C   UNL     1      -8.504   3.026  63.132  1.00  0.00    -0.085 C  
HETATM   33  C   UNL     1      -7.075   2.749  62.671  1.00  0.00    -0.036 C  
HETATM   34  C   UNL     1      -6.523   1.478  63.306  1.00  0.00    -0.013 C  
HETATM   35  C   UNL     1      -6.606   1.527  64.828  1.00  0.00    -0.022 C  
HETATM   36  C   UNL     1      -8.027   1.813  65.308  1.00  0.00    -0.074 C  
ENDBRANCH  29  31
ENDBRANCH  27  29
ENDBRANCH  25  27
ENDBRANCH  22  25
ENDBRANCH  19  22
ENDBRANCH  15  16
ENDBRANCH  14  15
ENDBRANCH  13  14
ENDBRANCH   4  10
ENDBRANCH   2   3
TORSDOF 10
ENDMDL
MODEL      268
REMARK 921   NORMALIZED FREE ENERGY PREDICTED BY IDOCK:   -3.88 KCAL/MOL
REMARK 922        TOTAL FREE ENERGY PREDICTED BY IDOCK:   -8.13 KCAL/MOL
REMARK 923 INTER-LIGAND FREE ENERGY PREDICTED BY IDOCK:   -7.03 KCAL/MOL
REMARK 924 INTRA-LIGAND FREE ENERGY PREDICTED BY IDOCK:   -1.09 KCAL/MOL
REMARK 927      BINDING AFFINITY PREDICTED BY RF-SCORE:    0.00 PKD
ROOT
HETATM    1  C   UNL     1     -12.943  14.087  65.103  1.00  0.00    -0.223 C  
HETATM    2  O   UNL     1     -11.730  14.387  64.413  1.00  0.00    -0.402 OA 
ENDROOT
BRANCH   2   3
HETATM    3  C   UNL     1     -10.774  15.039  65.147  1.00  0.00    -0.415 A  
HETATM    4  C   UNL     1      -9.820  14.285  65.864  1.00  0.00    -0.322 A  
HETATM    5  C   UNL     1      -8.846  14.955  66.627  1.00  0.00    -0.287 A  
HETATM    6  C   UNL     1     -10.777  16.438  65.272  1.00  0.00    -0.312 A  
HETATM    7 CL   UNL     1      -7.689  17.146  67.694  1.00  0.00    -0.178 Cl 
HETATM    8  C   UNL     1      -9.830  17.088  66.064  1.00  0.00    -0.263 A  
HETATM    9  C   UNL     1      -8.863  16.344  66.727  1.00  0.00    -0.225 A  
BRANCH   4  10
HETATM   10  C   UNL     1      -9.810  12.785  65.823  1.00  0.00    -0.214 C  
HETATM   11  H   UNL     1      -9.276  12.692  67.840  1.00  0.00     0.000 HD 
HETATM   12  O   UNL     1     -10.020  12.166  64.789  1.00  0.00    -0.255 OA 
HETATM   13  N   UNL     1      -9.558  12.142  67.028  1.00  0.00    -0.201 N  
BRANCH  13  14
HETATM   14  C   UNL     1      -9.687  10.702  67.155  1.00  0.00    -0.171 C  
BRANCH  14  15
HETATM   15  C   UNL     1     -11.014  10.263  67.786  1.00  0.00    -0.360 C  
BRANCH  15  16
HETATM   16  C   UNL     1     -10.898   9.412  69.039  1.00  0.00    -0.161 A  
HETATM   17  C   UNL     1     -11.046   9.931  70.336  1.00  0.00    -0.382 A  
HETATM   18  C   UNL     1     -10.856   9.122  71.460  1.00  0.00    -0.436 A  
HETATM   19  C   UNL     1     -10.526   7.777  71.300  1.00  0.00    -0.206 A  
HETATM   20  C   UNL     1     -10.601   8.046  68.897  1.00  0.00    -0.160 A  
HETATM   21  C   UNL     1     -10.401   7.234  70.018  1.00  0.00    -0.222 A  
BRANCH  19  22
HETATM   22  S   UNL     1     -10.116   6.802  72.731  1.00  0.00    -0.187 S  
HETATM   23  O   UNL     1     -10.418   5.421  72.408  1.00  0.00    -0.201 OA 
HETATM   24  O   UNL     1     -10.687   7.420  73.906  1.00  0.00    -0.319 OA 
BRANCH  22  25
HETATM   25  N   UNL     1      -8.458   6.869  72.822  1.00  0.00    -0.116 N  
HETATM   26  H   UNL     1      -7.943   5.988  72.825  1.00  0.00     0.000 HD 
BRANCH  25  27
HETATM   27  C   UNL     1      -7.734   8.046  72.893  1.00  0.00    -0.134 C  
HETATM   28  O   UNL     1      -7.380   8.547  73.944  1.00  0.00    -0.295 OA 
BRANCH  27  29
HETATM   29  N   UNL     1      -7.477   8.594  71.666  1.00  0.00    -0.104 N  
HETATM   30  H   UNL     1      -8.162   9.209  71.227  1.00  0.00     0.000 HD 
BRANCH  29  31
HETATM   31  C   UNL     1      -6.223   8.297  70.987  1.00  0.00    -0.034 C  
HETATM   32  C   UNL     1      -6.459   7.782  69.564  1.00  0.00    -0.035 C  
HETATM   33  C   UNL     1      -6.879   8.887  68.597  1.00  0.00    -0.063 C  
HETATM   34  C   UNL     1      -5.889  10.047  68.615  1.00  0.00    -0.041 C  
HETATM   35  C   UNL     1      -5.692  10.598  70.023  1.00  0.00    -0.067 C  
HETATM   36  C   UNL     1      -5.281   9.504  71.006  1.00  0.00    -0.042 C  
ENDBRANCH  29  31
ENDBRANCH  27  29
ENDBRANCH  25  27
ENDBRANCH  22  25
ENDBRANCH  19  22
ENDBRANCH  15  16
ENDBRANCH  14  15
ENDBRANCH  13  14
ENDBRANCH   4  10
ENDBRANCH   2   3
TORSDOF 10
ENDMDL
MODEL      269
REMARK 921   NORMALIZED FREE ENERGY PREDICTED BY IDOCK:   -3.87 KCAL/MOL
REMARK 922        TOTAL FREE ENERGY PREDICTED BY IDOCK:   -8.10 KCAL/MOL
REMARK 923 INTER-LIGAND FREE ENERGY PREDICTED BY IDOCK:   -7.43 KCAL/MOL
REMARK 924 INTRA-LIGAND FREE ENERGY PREDICTED BY IDOCK:   -0.68 KCAL/MOL
REMARK 927      BINDING AFFINITY PREDICTED BY RF-SCORE:    0.00 PKD
ROOT
HETATM    1  C   UNL     1      -9.369   3.763  67.376  1.00  0.00    -0.198 C  
HETATM    2  O   UNL     1     -10.155   4.934  67.162  1.00  0.00    -0.191 OA 
ENDROOT
BRANCH   2   3
HETATM    3  C   UNL     1      -9.453   6.102  67.008  1.00  0.00    -0.129 A  
HETATM    4  C   UNL     1      -9.359   6.997  68.095  1.00  0.00    -0.125 A  
HETATM    5  C   UNL     1      -8.649   8.201  67.934  1.00  0.00    -0.132 A  
HETATM    6  C   UNL     1      -8.904   6.466  65.769  1.00  0.00    -0.111 A  
HETATM    7 CL   UNL     1      -7.271  10.029  66.505  1.00  0.00    -0.098 Cl 
HETATM    8  C   UNL     1      -8.237   7.680  65.611  1.00  0.00    -0.136 A  
HETATM    9  C   UNL     1      -8.103   8.536  66.696  1.00  0.00    -0.104 A  
BRANCH   4  10
HETATM   10  C   UNL     1      -9.985   6.693  69.424  1.00  0.00    -0.156 C  
HETATM   11  H   UNL     1     -11.678   7.811  68.930  1.00  0.00     0.000 HD 
HETATM   12  O   UNL     1      -9.399   6.045  70.281  1.00  0.00    -0.156 OA 
HETATM   13  N   UNL     1     -11.270   7.181  69.621  1.00  0.00    -0.178 N  
BRANCH  13  14
HETATM   14  C   UNL     1     -12.044   6.812  70.792  1.00  0.00    -0.347 C  
BRANCH  14  15
HETATM   15  C   UNL     1     -12.135   7.929  71.839  1.00  0.00    -0.352 C  
BRANCH  15  16
HETATM   16  C   UNL     1     -12.124   9.346  71.293  1.00  0.00    -0.424 A  
HETATM   17  C   UNL     1     -11.259   9.769  70.271  1.00  0.00    -0.347 A  
HETATM   18  C   UNL     1     -11.235  11.103  69.854  1.00  0.00    -0.293 A  
HETATM   19  C   UNL     1     -12.088  12.032  70.449  1.00  0.00    -0.321 A  
HETATM   20  C   UNL     1     -13.002  10.288  71.855  1.00  0.00    -0.554 A  
HETATM   21  C   UNL     1     -12.976  11.627  71.449  1.00  0.00    -0.426 A  
BRANCH  19  22
HETATM   22  S   UNL     1     -11.928  13.755  70.036  1.00  0.00    -0.335 S  
HETATM   23  O   UNL     1     -11.880  14.491  71.285  1.00  0.00    -0.337 OA 
HETATM   24  O   UNL     1     -12.902  14.093  69.025  1.00  0.00     0.342 OA 
BRANCH  22  25
HETATM   25  N   UNL     1     -10.398  13.892  69.399  1.00  0.00    -0.430 N  
HETATM   26  H   UNL     1      -9.607  13.861  70.042  1.00  0.00     0.000 HD 
BRANCH  25  27
HETATM   27  C   UNL     1     -10.134  14.046  68.049  1.00  0.00    -0.239 C  
HETATM   28  O   UNL     1     -10.409  13.202  67.217  1.00  0.00    -0.240 OA 
BRANCH  27  29
HETATM   29  N   UNL     1      -9.519  15.232  67.754  1.00  0.00    -0.197 N  
HETATM   30  H   UNL     1      -9.910  16.110  68.097  1.00  0.00     0.000 HD 
BRANCH  29  31
HETATM   31  C   UNL     1      -8.306  15.239  66.948  1.00  0.00    -0.243 C  
HETATM   32  C   UNL     1      -7.931  16.657  66.503  1.00  0.00    -0.342 C  
HETATM   33  C   UNL     1      -7.349  17.498  67.636  1.00  0.00    -0.192 C  
HETATM   34  C   UNL     1      -6.173  16.794  68.303  1.00  0.00    -0.132 C  
HETATM   35  C   UNL     1      -6.556  15.403  68.797  1.00  0.00    -0.106 C  
HETATM   36  C   UNL     1      -7.150  14.550  67.679  1.00  0.00    -0.202 C  
ENDBRANCH  29  31
ENDBRANCH  27  29
ENDBRANCH  25  27
ENDBRANCH  22  25
ENDBRANCH  19  22
ENDBRANCH  15  16
ENDBRANCH  14  15
ENDBRANCH  13  14
ENDBRANCH   4  10
ENDBRANCH   2   3
TORSDOF 10
ENDMDL
MODEL      270
REMARK 921   NORMALIZED FREE ENERGY PREDICTED BY IDOCK:   -3.85 KCAL/MOL
REMARK 922        TOTAL FREE ENERGY PREDICTED BY IDOCK:   -8.06 KCAL/MOL
REMARK 923 INTER-LIGAND FREE ENERGY PREDICTED BY IDOCK:   -6.92 KCAL/MOL
REMARK 924 INTRA-LIGAND FREE ENERGY PREDICTED BY IDOCK:   -1.14 KCAL/MOL
REMARK 927      BINDING AFFINITY PREDICTED BY RF-SCORE:    0.00 PKD
ROOT
HETATM    1  C   UNL     1      -7.046   4.054  69.690  1.00  0.00    -0.046 C  
HETATM    2  O   UNL     1      -7.272   5.201  70.509  1.00  0.00    -0.057 OA 
ENDROOT
BRANCH   2   3
HETATM    3  C   UNL     1      -8.586   5.539  70.710  1.00  0.00    -0.126 A  
HETATM    4  C   UNL     1      -9.120   6.661  70.042  1.00  0.00    -0.151 A  
HETATM    5  C   UNL     1     -10.464   7.015  70.257  1.00  0.00    -0.227 A  
HETATM    6  C   UNL     1      -9.384   4.846  71.635  1.00  0.00    -0.192 A  
HETATM    7 CL   UNL     1     -12.871   6.774  71.453  1.00  0.00    -0.350 Cl 
HETATM    8  C   UNL     1     -10.704   5.231  71.869  1.00  0.00    -0.252 A  
HETATM    9  C   UNL     1     -11.240   6.305  71.172  1.00  0.00    -0.305 A  
BRANCH   4  10
HETATM   10  C   UNL     1      -8.293   7.480  69.094  1.00  0.00    -0.135 C  
HETATM   11  H   UNL     1      -9.439   6.836  67.472  1.00  0.00     0.000 HD 
HETATM   12  O   UNL     1      -7.324   8.124  69.474  1.00  0.00    -0.077 OA 
HETATM   13  N   UNL     1      -8.698   7.473  67.766  1.00  0.00    -0.123 N  
BRANCH  13  14
HETATM   14  C   UNL     1      -8.088   8.355  66.788  1.00  0.00    -0.098 C  
BRANCH  14  15
HETATM   15  C   UNL     1      -9.102   9.219  66.029  1.00  0.00    -0.235 C  
BRANCH  15  16
HETATM   16  C   UNL     1      -9.200  10.667  66.476  1.00  0.00    -0.187 A  
HETATM   17  C   UNL     1     -10.171  11.558  65.990  1.00  0.00    -0.283 A  
HETATM   18  C   UNL     1     -10.173  12.901  66.375  1.00  0.00    -0.273 A  
HETATM   19  C   UNL     1      -9.208  13.370  67.265  1.00  0.00    -0.222 A  
HETATM   20  C   UNL     1      -8.257  11.149  67.399  1.00  0.00    -0.132 A  
HETATM   21  C   UNL     1      -8.249  12.495  67.782  1.00  0.00    -0.166 A  
BRANCH  19  22
HETATM   22  S   UNL     1      -9.112  15.112  67.612  1.00  0.00    -0.183 S  
HETATM   23  O   UNL     1      -8.541  15.253  68.938  1.00  0.00    -0.178 OA 
HETATM   24  O   UNL     1     -10.378  15.730  67.292  1.00  0.00    -0.276 OA 
BRANCH  22  25
HETATM   25  N   UNL     1      -7.942  15.682  66.578  1.00  0.00    -0.301 N  
HETATM   26  H   UNL     1      -8.177  15.767  65.589  1.00  0.00     0.000 HD 
BRANCH  25  27
HETATM   27  C   UNL     1      -6.668  16.047  66.978  1.00  0.00    -0.103 C  
HETATM   28  O   UNL     1      -5.823  15.243  67.325  1.00  0.00    -0.332 OA 
BRANCH  27  29
HETATM   29  N   UNL     1      -6.467  17.400  66.960  1.00  0.00    -0.153 N  
HETATM   30  H   UNL     1      -5.541  17.782  67.153  1.00  0.00     0.000 HD 
BRANCH  29  31
HETATM   31  C   UNL     1      -7.579  18.295  66.666  1.00  0.00    -0.233 C  
HETATM   32  C   UNL     1      -8.137  18.940  67.939  1.00  0.00    -0.300 C  
HETATM   33  C   UNL     1      -7.227  20.031  68.497  1.00  0.00    -0.284 C  
HETATM   34  C   UNL     1      -6.900  21.078  67.438  1.00  0.00    -0.434 C  
HETATM   35  C   UNL     1      -6.293  20.446  66.190  1.00  0.00    -0.247 C  
HETATM   36  C   UNL     1      -7.185  19.344  65.623  1.00  0.00    -0.258 C  
ENDBRANCH  29  31
ENDBRANCH  27  29
ENDBRANCH  25  27
ENDBRANCH  22  25
ENDBRANCH  19  22
ENDBRANCH  15  16
ENDBRANCH  14  15
ENDBRANCH  13  14
ENDBRANCH   4  10
ENDBRANCH   2   3
TORSDOF 10
ENDMDL
MODEL      271
REMARK 921   NORMALIZED FREE ENERGY PREDICTED BY IDOCK:   -3.84 KCAL/MOL
REMARK 922        TOTAL FREE ENERGY PREDICTED BY IDOCK:   -8.06 KCAL/MOL
REMARK 923 INTER-LIGAND FREE ENERGY PREDICTED BY IDOCK:   -7.01 KCAL/MOL
REMARK 924 INTRA-LIGAND FREE ENERGY PREDICTED BY IDOCK:   -1.05 KCAL/MOL
REMARK 927      BINDING AFFINITY PREDICTED BY RF-SCORE:    0.00 PKD
ROOT
HETATM    1  C   UNL     1     -13.889  13.164  72.277  1.00  0.00    -0.490 C  
HETATM    2  O   UNL     1     -12.515  13.111  71.898  1.00  0.00    -0.067 OA 
ENDROOT
BRANCH   2   3
HETATM    3  C   UNL     1     -12.270  12.832  70.578  1.00  0.00    -0.307 A  
HETATM    4  C   UNL     1     -12.201  11.486  70.159  1.00  0.00    -0.387 A  
HETATM    5  C   UNL     1     -11.939  11.200  68.807  1.00  0.00    -0.337 A  
HETATM    6  C   UNL     1     -12.000  13.854  69.654  1.00  0.00    -0.399 A  
HETATM    7 CL   UNL     1     -11.328  11.864  66.264  1.00  0.00    -0.398 Cl 
HETATM    8  C   UNL     1     -11.702  13.555  68.325  1.00  0.00    -0.394 A  
HETATM    9  C   UNL     1     -11.684  12.232  67.906  1.00  0.00    -0.347 A  
BRANCH   4  10
HETATM   10  C   UNL     1     -12.414  10.350  71.116  1.00  0.00    -0.404 C  
HETATM   11  H   UNL     1     -10.379   9.885  71.082  1.00  0.00     0.000 HD 
HETATM   12  O   UNL     1     -13.529  10.045  71.518  1.00  0.00    -0.351 OA 
HETATM   13  N   UNL     1     -11.272   9.674  71.526  1.00  0.00    -0.362 N  
BRANCH  13  14
HETATM   14  C   UNL     1     -11.327   8.672  72.575  1.00  0.00    -0.195 C  
BRANCH  14  15
HETATM   15  C   UNL     1     -11.962   7.351  72.123  1.00  0.00    -0.307 C  
BRANCH  15  16
HETATM   16  C   UNL     1     -11.195   6.579  71.064  1.00  0.00    -0.362 A  
HETATM   17  C   UNL     1     -10.446   5.425  71.346  1.00  0.00    -0.294 A  
HETATM   18  C   UNL     1      -9.696   4.792  70.351  1.00  0.00    -0.289 A  
HETATM   19  C   UNL     1      -9.694   5.301  69.054  1.00  0.00    -0.156 A  
HETATM   20  C   UNL     1     -11.210   7.056  69.743  1.00  0.00    -0.257 A  
HETATM   21  C   UNL     1     -10.454   6.432  68.744  1.00  0.00    -0.260 A  
BRANCH  19  22
HETATM   22  S   UNL     1      -8.603   4.594  67.839  1.00  0.00    -0.103 S  
HETATM   23  O   UNL     1      -9.304   4.616  66.570  1.00  0.00    -0.131 OA 
HETATM   24  O   UNL     1      -8.058   3.358  68.353  1.00  0.00    -0.068 OA 
BRANCH  22  25
HETATM   25  N   UNL     1      -7.381   5.710  67.674  1.00  0.00    -0.076 N  
HETATM   26  H   UNL     1      -7.613   6.617  67.270  1.00  0.00     0.000 HD 
BRANCH  25  27
HETATM   27  C   UNL     1      -6.070   5.482  68.053  1.00  0.00    -0.022 C  
HETATM   28  O   UNL     1      -5.365   4.636  67.535  1.00  0.00    -0.011 OA 
BRANCH  27  29
HETATM   29  N   UNL     1      -5.658   6.291  69.077  1.00  0.00    -0.015 N  
HETATM   30  H   UNL     1      -4.684   6.588  69.133  1.00  0.00     0.000 HD 
BRANCH  29  31
HETATM   31  C   UNL     1      -6.614   6.728  70.085  1.00  0.00    -0.044 C  
HETATM   32  C   UNL     1      -6.449   5.949  71.395  1.00  0.00    -0.049 C  
HETATM   33  C   UNL     1      -5.213   6.374  72.184  1.00  0.00    -0.027 C  
HETATM   34  C   UNL     1      -5.198   7.879  72.424  1.00  0.00    -0.036 C  
HETATM   35  C   UNL     1      -5.306   8.659  71.118  1.00  0.00    -0.033 C  
HETATM   36  C   UNL     1      -6.532   8.240  70.310  1.00  0.00    -0.036 C  
ENDBRANCH  29  31
ENDBRANCH  27  29
ENDBRANCH  25  27
ENDBRANCH  22  25
ENDBRANCH  19  22
ENDBRANCH  15  16
ENDBRANCH  14  15
ENDBRANCH  13  14
ENDBRANCH   4  10
ENDBRANCH   2   3
TORSDOF 10
ENDMDL
MODEL      272
REMARK 921   NORMALIZED FREE ENERGY PREDICTED BY IDOCK:   -3.84 KCAL/MOL
REMARK 922        TOTAL FREE ENERGY PREDICTED BY IDOCK:   -8.06 KCAL/MOL
REMARK 923 INTER-LIGAND FREE ENERGY PREDICTED BY IDOCK:   -6.70 KCAL/MOL
REMARK 924 INTRA-LIGAND FREE ENERGY PREDICTED BY IDOCK:   -1.36 KCAL/MOL
REMARK 927      BINDING AFFINITY PREDICTED BY RF-SCORE:    0.00 PKD
ROOT
HETATM    1  C   UNL     1     -11.562   5.615  72.856  1.00  0.00    -0.194 C  
HETATM    2  O   UNL     1     -11.467   6.929  73.403  1.00  0.00     0.063 OA 
ENDROOT
BRANCH   2   3
HETATM    3  C   UNL     1     -11.528   7.957  72.499  1.00  0.00    -0.398 A  
HETATM    4  C   UNL     1     -10.330   8.474  71.960  1.00  0.00    -0.408 A  
HETATM    5  C   UNL     1     -10.392   9.536  71.040  1.00  0.00    -0.353 A  
HETATM    6  C   UNL     1     -12.749   8.565  72.166  1.00  0.00    -0.423 A  
HETATM    7 CL   UNL     1     -11.673  11.440  69.620  1.00  0.00    -0.378 Cl 
HETATM    8  C   UNL     1     -12.793   9.644  71.283  1.00  0.00    -0.438 A  
HETATM    9  C   UNL     1     -11.617  10.117  70.717  1.00  0.00    -0.357 A  
BRANCH   4  10
HETATM   10  C   UNL     1      -8.990   7.909  72.332  1.00  0.00    -0.163 C  
HETATM   11  H   UNL     1      -8.861   6.902  70.508  1.00  0.00     0.000 HD 
HETATM   12  O   UNL     1      -8.484   8.118  73.427  1.00  0.00    -0.207 OA 
HETATM   13  N   UNL     1      -8.357   7.146  71.360  1.00  0.00    -0.112 N  
BRANCH  13  14
HETATM   14  C   UNL     1      -6.990   6.689  71.535  1.00  0.00    -0.071 C  
BRANCH  14  15
HETATM   15  C   UNL     1      -5.954   7.815  71.440  1.00  0.00    -0.035 C  
BRANCH  15  16
HETATM   16  C   UNL     1      -6.113   8.760  70.262  1.00  0.00    -0.030 A  
HETATM   17  C   UNL     1      -5.658   8.458  68.968  1.00  0.00    -0.039 A  
HETATM   18  C   UNL     1      -5.760   9.391  67.932  1.00  0.00    -0.041 A  
HETATM   19  C   UNL     1      -6.333  10.638  68.176  1.00  0.00    -0.058 A  
HETATM   20  C   UNL     1      -6.719  10.008  70.479  1.00  0.00    -0.118 A  
HETATM   21  C   UNL     1      -6.817  10.950  69.449  1.00  0.00    -0.114 A  
BRANCH  19  22
HETATM   22  S   UNL     1      -6.300  11.878  66.901  1.00  0.00    -0.042 S  
HETATM   23  O   UNL     1      -5.811  11.238  65.694  1.00  0.00    -0.096 OA 
HETATM   24  O   UNL     1      -5.655  13.067  67.410  1.00  0.00    -0.297 OA 
BRANCH  22  25
HETATM   25  N   UNL     1      -7.901  12.206  66.594  1.00  0.00    -0.385 N  
HETATM   26  H   UNL     1      -8.418  11.554  66.005  1.00  0.00     0.000 HD 
BRANCH  25  27
HETATM   27  C   UNL     1      -8.573  13.309  67.090  1.00  0.00    -0.193 C  
HETATM   28  O   UNL     1      -9.729  13.270  67.467  1.00  0.00    -0.214 OA 
BRANCH  27  29
HETATM   29  N   UNL     1      -7.811  14.445  67.094  1.00  0.00    -0.346 N  
HETATM   30  H   UNL     1      -6.862  14.426  66.721  1.00  0.00     0.000 HD 
BRANCH  29  31
HETATM   31  C   UNL     1      -8.358  15.684  67.633  1.00  0.00    -0.155 C  
HETATM   32  C   UNL     1      -7.486  16.242  68.762  1.00  0.00    -0.195 C  
HETATM   33  C   UNL     1      -6.192  16.873  68.254  1.00  0.00    -0.134 C  
HETATM   34  C   UNL     1      -6.469  17.928  67.189  1.00  0.00    -0.188 C  
HETATM   35  C   UNL     1      -7.291  17.363  66.036  1.00  0.00    -0.265 C  
HETATM   36  C   UNL     1      -8.585  16.718  66.526  1.00  0.00    -0.312 C  
ENDBRANCH  29  31
ENDBRANCH  27  29
ENDBRANCH  25  27
ENDBRANCH  22  25
ENDBRANCH  19  22
ENDBRANCH  15  16
ENDBRANCH  14  15
ENDBRANCH  13  14
ENDBRANCH   4  10
ENDBRANCH   2   3
TORSDOF 10
ENDMDL
MODEL      273
REMARK 921   NORMALIZED FREE ENERGY PREDICTED BY IDOCK:   -3.83 KCAL/MOL
REMARK 922        TOTAL FREE ENERGY PREDICTED BY IDOCK:   -8.04 KCAL/MOL
REMARK 923 INTER-LIGAND FREE ENERGY PREDICTED BY IDOCK:   -6.25 KCAL/MOL
REMARK 924 INTRA-LIGAND FREE ENERGY PREDICTED BY IDOCK:   -1.79 KCAL/MOL
REMARK 927      BINDING AFFINITY PREDICTED BY RF-SCORE:    0.00 PKD
ROOT
HETATM    1  C   UNL     1      -6.725  14.713  71.784  1.00  0.00     1.452 C  
HETATM    2  O   UNL     1      -5.528  14.647  71.011  1.00  0.00    -0.137 OA 
ENDROOT
BRANCH   2   3
HETATM    3  C   UNL     1      -5.517  13.714  70.007  1.00  0.00    -0.106 A  
HETATM    4  C   UNL     1      -5.977  14.076  68.723  1.00  0.00    -0.085 A  
HETATM    5  C   UNL     1      -5.978  13.115  67.696  1.00  0.00    -0.136 A  
HETATM    6  C   UNL     1      -5.143  12.383  70.251  1.00  0.00    -0.095 A  
HETATM    7 CL   UNL     1      -5.633  10.630  66.703  1.00  0.00    -0.057 Cl 
HETATM    8  C   UNL     1      -5.185  11.430  69.234  1.00  0.00    -0.044 A  
HETATM    9  C   UNL     1      -5.591  11.803  67.960  1.00  0.00    -0.046 A  
BRANCH   4  10
HETATM   10  C   UNL     1      -6.455  15.466  68.420  1.00  0.00    -0.111 C  
HETATM   11  H   UNL     1      -8.435  14.909  68.775  1.00  0.00     0.000 HD 
HETATM   12  O   UNL     1      -5.687  16.348  68.058  1.00  0.00    -0.099 OA 
HETATM   13  N   UNL     1      -7.814  15.695  68.583  1.00  0.00    -0.143 N  
BRANCH  13  14
HETATM   14  C   UNL     1      -8.370  17.033  68.486  1.00  0.00    -0.260 C  
BRANCH  14  15
HETATM   15  C   UNL     1      -9.833  17.053  68.028  1.00  0.00    -0.275 C  
BRANCH  15  16
HETATM   16  C   UNL     1     -10.272  15.878  67.171  1.00  0.00    -0.278 A  
HETATM   17  C   UNL     1      -9.579  15.466  66.021  1.00  0.00    -0.382 A  
HETATM   18  C   UNL     1     -10.064  14.425  65.223  1.00  0.00    -0.387 A  
HETATM   19  C   UNL     1     -11.246  13.774  65.574  1.00  0.00    -0.299 A  
HETATM   20  C   UNL     1     -11.441  15.187  67.528  1.00  0.00    -0.306 A  
HETATM   21  C   UNL     1     -11.936  14.151  66.729  1.00  0.00    -0.475 A  
BRANCH  19  22
HETATM   22  S   UNL     1     -11.945  12.574  64.462  1.00  0.00    -0.423 S  
HETATM   23  O   UNL     1     -11.372  12.820  63.152  1.00  0.00    -0.360 OA 
HETATM   24  O   UNL     1     -13.378  12.541  64.639  1.00  0.00    -0.804 OA 
BRANCH  22  25
HETATM   25  N   UNL     1     -11.294  11.124  64.949  1.00  0.00     0.040 N  
HETATM   26  H   UNL     1     -11.602  10.276  64.472  1.00  0.00     0.000 HD 
BRANCH  25  27
HETATM   27  C   UNL     1     -10.360  10.997  65.962  1.00  0.00    -0.254 C  
HETATM   28  O   UNL     1      -9.162  11.109  65.781  1.00  0.00    -0.205 OA 
BRANCH  27  29
HETATM   29  N   UNL     1     -10.921  10.714  67.178  1.00  0.00    -0.276 N  
HETATM   30  H   UNL     1     -11.678  10.035  67.245  1.00  0.00     0.000 HD 
BRANCH  29  31
HETATM   31  C   UNL     1     -10.434  11.386  68.375  1.00  0.00    -0.200 C  
HETATM   32  C   UNL     1     -11.554  11.600  69.398  1.00  0.00    -0.392 C  
HETATM   33  C   UNL     1     -11.953  10.313  70.116  1.00  0.00    -0.313 C  
HETATM   34  C   UNL     1     -10.744   9.631  70.746  1.00  0.00    -0.401 C  
HETATM   35  C   UNL     1      -9.648   9.366  69.720  1.00  0.00    -0.216 C  
HETATM   36  C   UNL     1      -9.242  10.641  68.984  1.00  0.00    -0.177 C  
ENDBRANCH  29  31
ENDBRANCH  27  29
ENDBRANCH  25  27
ENDBRANCH  22  25
ENDBRANCH  19  22
ENDBRANCH  15  16
ENDBRANCH  14  15
ENDBRANCH  13  14
ENDBRANCH   4  10
ENDBRANCH   2   3
TORSDOF 10
ENDMDL
MODEL      274
REMARK 921   NORMALIZED FREE ENERGY PREDICTED BY IDOCK:   -3.81 KCAL/MOL
REMARK 922        TOTAL FREE ENERGY PREDICTED BY IDOCK:   -8.00 KCAL/MOL
REMARK 923 INTER-LIGAND FREE ENERGY PREDICTED BY IDOCK:   -6.47 KCAL/MOL
REMARK 924 INTRA-LIGAND FREE ENERGY PREDICTED BY IDOCK:   -1.54 KCAL/MOL
REMARK 927      BINDING AFFINITY PREDICTED BY RF-SCORE:    0.00 PKD
ROOT
HETATM    1  C   UNL     1     -12.360  13.135  65.364  1.00  0.00    -0.481 C  
HETATM    2  O   UNL     1     -12.331  12.148  66.393  1.00  0.00    -0.489 OA 
ENDROOT
BRANCH   2   3
HETATM    3  C   UNL     1     -11.089  11.681  66.737  1.00  0.00    -0.309 A  
HETATM    4  C   UNL     1     -10.782  11.471  68.098  1.00  0.00    -0.242 A  
HETATM    5  C   UNL     1      -9.503  11.003  68.451  1.00  0.00    -0.182 A  
HETATM    6  C   UNL     1     -10.087  11.493  65.771  1.00  0.00    -0.278 A  
HETATM    7 CL   UNL     1      -6.958  10.278  67.924  1.00  0.00    -0.081 Cl 
HETATM    8  C   UNL     1      -8.811  11.067  66.137  1.00  0.00    -0.197 A  
HETATM    9  C   UNL     1      -8.529  10.814  67.473  1.00  0.00    -0.119 A  
BRANCH   4  10
HETATM   10  C   UNL     1     -11.791  11.722  69.181  1.00  0.00    -0.326 C  
HETATM   11  H   UNL     1     -12.380   9.719  69.152  1.00  0.00     0.000 HD 
HETATM   12  O   UNL     1     -11.982  12.840  69.639  1.00  0.00    -0.314 OA 
HETATM   13  N   UNL     1     -12.486  10.610  69.637  1.00  0.00    -0.178 N  
BRANCH  13  14
HETATM   14  C   UNL     1     -13.362  10.692  70.792  1.00  0.00     0.059 C  
BRANCH  14  15
HETATM   15  C   UNL     1     -12.731  10.138  72.075  1.00  0.00    -0.421 C  
BRANCH  15  16
HETATM   16  C   UNL     1     -11.938   8.852  71.918  1.00  0.00    -0.441 A  
HETATM   17  C   UNL     1     -12.540   7.592  71.767  1.00  0.00    -0.359 A  
HETATM   18  C   UNL     1     -11.768   6.429  71.701  1.00  0.00    -0.367 A  
HETATM   19  C   UNL     1     -10.378   6.513  71.773  1.00  0.00    -0.205 A  
HETATM   20  C   UNL     1     -10.535   8.921  71.953  1.00  0.00    -0.415 A  
HETATM   21  C   UNL     1      -9.758   7.759  71.896  1.00  0.00    -0.216 A  
BRANCH  19  22
HETATM   22  S   UNL     1      -9.416   5.019  71.864  1.00  0.00    -0.152 S  
HETATM   23  O   UNL     1      -9.868   4.154  70.791  1.00  0.00    -0.192 OA 
HETATM   24  O   UNL     1      -9.402   4.546  73.229  1.00  0.00    -0.117 OA 
BRANCH  22  25
HETATM   25  N   UNL     1      -7.881   5.482  71.423  1.00  0.00    -0.108 N  
HETATM   26  H   UNL     1      -7.683   6.480  71.356  1.00  0.00     0.000 HD 
BRANCH  25  27
HETATM   27  C   UNL     1      -6.857   4.595  71.143  1.00  0.00    -0.032 C  
HETATM   28  O   UNL     1      -6.412   3.811  71.962  1.00  0.00    -0.014 OA 
BRANCH  27  29
HETATM   29  N   UNL     1      -6.386   4.704  69.863  1.00  0.00    -0.026 N  
HETATM   30  H   UNL     1      -6.340   5.618  69.412  1.00  0.00     0.000 HD 
BRANCH  29  31
HETATM   31  C   UNL     1      -5.952   3.513  69.146  1.00  0.00    -0.024 C  
HETATM   32  C   UNL     1      -7.102   2.521  68.949  1.00  0.00    -0.044 C  
HETATM   33  C   UNL     1      -8.094   2.970  67.879  1.00  0.00    -0.083 C  
HETATM   34  C   UNL     1      -7.390   3.277  66.562  1.00  0.00    -0.075 C  
HETATM   35  C   UNL     1      -6.280   4.306  66.744  1.00  0.00    -0.032 C  
HETATM   36  C   UNL     1      -5.282   3.878  67.818  1.00  0.00    -0.008 C  
ENDBRANCH  29  31
ENDBRANCH  27  29
ENDBRANCH  25  27
ENDBRANCH  22  25
ENDBRANCH  19  22
ENDBRANCH  15  16
ENDBRANCH  14  15
ENDBRANCH  13  14
ENDBRANCH   4  10
ENDBRANCH   2   3
TORSDOF 10
ENDMDL
MODEL      275
REMARK 921   NORMALIZED FREE ENERGY PREDICTED BY IDOCK:   -3.81 KCAL/MOL
REMARK 922        TOTAL FREE ENERGY PREDICTED BY IDOCK:   -8.00 KCAL/MOL
REMARK 923 INTER-LIGAND FREE ENERGY PREDICTED BY IDOCK:   -4.87 KCAL/MOL
REMARK 924 INTRA-LIGAND FREE ENERGY PREDICTED BY IDOCK:   -3.14 KCAL/MOL
REMARK 927      BINDING AFFINITY PREDICTED BY RF-SCORE:    0.00 PKD
ROOT
HETATM    1  C   UNL     1     -10.535   5.539  70.437  1.00  0.00    -0.286 C  
HETATM    2  O   UNL     1      -9.404   4.747  70.796  1.00  0.00    -0.131 OA 
ENDROOT
BRANCH   2   3
HETATM    3  C   UNL     1      -8.737   4.154  69.756  1.00  0.00    -0.074 A  
HETATM    4  C   UNL     1      -7.347   4.359  69.620  1.00  0.00    -0.051 A  
HETATM    5  C   UNL     1      -6.665   3.759  68.546  1.00  0.00    -0.046 A  
HETATM    6  C   UNL     1      -9.422   3.421  68.773  1.00  0.00    -0.201 A  
HETATM    7 CL   UNL     1      -6.523   2.332  66.260  1.00  0.00    -0.024 Cl 
HETATM    8  C   UNL     1      -8.740   2.865  67.691  1.00  0.00    -0.138 A  
HETATM    9  C   UNL     1      -7.365   3.027  67.589  1.00  0.00    -0.054 A  
BRANCH   4  10
HETATM   10  C   UNL     1      -6.574   5.190  70.601  1.00  0.00    -0.035 C  
HETATM   11  H   UNL     1      -6.519   6.793  69.265  1.00  0.00     0.000 HD 
HETATM   12  O   UNL     1      -6.213   4.743  71.682  1.00  0.00    -0.020 OA 
HETATM   13  N   UNL     1      -6.301   6.495  70.216  1.00  0.00    -0.038 N  
BRANCH  13  14
HETATM   14  C   UNL     1      -5.711   7.446  71.141  1.00  0.00    -0.035 C  
BRANCH  14  15
HETATM   15  C   UNL     1      -6.747   8.312  71.868  1.00  0.00    -0.076 C  
BRANCH  15  16
HETATM   16  C   UNL     1      -7.714   9.071  70.975  1.00  0.00    -0.153 A  
HETATM   17  C   UNL     1      -9.081   8.762  70.886  1.00  0.00    -0.256 A  
HETATM   18  C   UNL     1      -9.916   9.441  69.994  1.00  0.00    -0.253 A  
HETATM   19  C   UNL     1      -9.394  10.450  69.186  1.00  0.00    -0.199 A  
HETATM   20  C   UNL     1      -7.214  10.115  70.179  1.00  0.00    -0.162 A  
HETATM   21  C   UNL     1      -8.043  10.792  69.278  1.00  0.00    -0.102 A  
BRANCH  19  22
HETATM   22  S   UNL     1     -10.422  11.186  67.934  1.00  0.00    -0.201 S  
HETATM   23  O   UNL     1     -10.693  12.549  68.350  1.00  0.00    -0.225 OA 
HETATM   24  O   UNL     1     -11.510  10.286  67.624  1.00  0.00    -0.345 OA 
BRANCH  22  25
HETATM   25  N   UNL     1      -9.429  11.330  66.608  1.00  0.00    -0.182 N  
HETATM   26  H   UNL     1      -8.656  11.993  66.660  1.00  0.00     0.000 HD 
BRANCH  25  27
HETATM   27  C   UNL     1      -9.589  10.606  65.440  1.00  0.00    -0.230 C  
HETATM   28  O   UNL     1      -9.696  11.125  64.345  1.00  0.00    -0.238 OA 
BRANCH  27  29
HETATM   29  N   UNL     1      -9.631   9.254  65.648  1.00  0.00    -0.359 N  
HETATM   30  H   UNL     1     -10.457   8.721  65.375  1.00  0.00     0.000 HD 
BRANCH  29  31
HETATM   31  C   UNL     1      -8.495   8.578  66.259  1.00  0.00    -0.124 C  
HETATM   32  C   UNL     1      -8.939   7.391  67.119  1.00  0.00    -0.134 C  
HETATM   33  C   UNL     1      -9.381   6.190  66.286  1.00  0.00    -0.157 C  
HETATM   34  C   UNL     1      -8.307   5.783  65.285  1.00  0.00    -0.146 C  
HETATM   35  C   UNL     1      -7.900   6.948  64.389  1.00  0.00    -0.112 C  
HETATM   36  C   UNL     1      -7.464   8.163  65.206  1.00  0.00    -0.080 C  
ENDBRANCH  29  31
ENDBRANCH  27  29
ENDBRANCH  25  27
ENDBRANCH  22  25
ENDBRANCH  19  22
ENDBRANCH  15  16
ENDBRANCH  14  15
ENDBRANCH  13  14
ENDBRANCH   4  10
ENDBRANCH   2   3
TORSDOF 10
ENDMDL
MODEL      276
REMARK 921   NORMALIZED FREE ENERGY PREDICTED BY IDOCK:   -3.79 KCAL/MOL
REMARK 922        TOTAL FREE ENERGY PREDICTED BY IDOCK:   -7.98 KCAL/MOL
REMARK 923 INTER-LIGAND FREE ENERGY PREDICTED BY IDOCK:   -6.46 KCAL/MOL
REMARK 924 INTRA-LIGAND FREE ENERGY PREDICTED BY IDOCK:   -1.52 KCAL/MOL
REMARK 927      BINDING AFFINITY PREDICTED BY RF-SCORE:    0.00 PKD
ROOT
HETATM    1  C   UNL     1     -10.986   9.484  68.094  1.00  0.00    -0.089 C  
HETATM    2  O   UNL     1     -10.457  10.228  69.190  1.00  0.00    -0.196 OA 
ENDROOT
BRANCH   2   3
HETATM    3  C   UNL     1     -11.367  10.961  69.907  1.00  0.00    -0.305 A  
HETATM    4  C   UNL     1     -11.576  12.316  69.576  1.00  0.00    -0.366 A  
HETATM    5  C   UNL     1     -12.501  13.071  70.320  1.00  0.00    -0.217 A  
HETATM    6  C   UNL     1     -12.028  10.416  71.020  1.00  0.00    -0.481 A  
HETATM    7 CL   UNL     1     -14.254  13.452  72.336  1.00  0.00    -0.530 Cl 
HETATM    8  C   UNL     1     -12.913  11.186  71.773  1.00  0.00    -0.526 A  
HETATM    9  C   UNL     1     -13.154  12.505  71.413  1.00  0.00    -0.210 A  
BRANCH   4  10
HETATM   10  C   UNL     1     -10.847  12.972  68.440  1.00  0.00    -0.258 C  
HETATM   11  H   UNL     1     -12.197  12.179  67.060  1.00  0.00     0.000 HD 
HETATM   12  O   UNL     1      -9.820  13.615  68.618  1.00  0.00    -0.214 OA 
HETATM   13  N   UNL     1     -11.408  12.815  67.180  1.00  0.00    -0.296 N  
BRANCH  13  14
HETATM   14  C   UNL     1     -10.894  13.537  66.031  1.00  0.00    -0.278 C  
BRANCH  14  15
HETATM   15  C   UNL     1     -10.591  12.634  64.829  1.00  0.00    -0.341 C  
BRANCH  15  16
HETATM   16  C   UNL     1      -9.680  11.452  65.108  1.00  0.00    -0.280 A  
HETATM   17  C   UNL     1      -9.861  10.188  64.523  1.00  0.00    -0.334 A  
HETATM   18  C   UNL     1      -9.040   9.110  64.867  1.00  0.00    -0.190 A  
HETATM   19  C   UNL     1      -8.017   9.287  65.797  1.00  0.00    -0.109 A  
HETATM   20  C   UNL     1      -8.620  11.619  66.015  1.00  0.00     0.006 A  
HETATM   21  C   UNL     1      -7.801  10.543  66.371  1.00  0.00    -0.138 A  
BRANCH  19  22
HETATM   22  S   UNL     1      -7.093   7.874  66.359  1.00  0.00    -0.072 S  
HETATM   23  O   UNL     1      -6.437   8.255  67.595  1.00  0.00    -0.055 OA 
HETATM   24  O   UNL     1      -6.325   7.340  65.257  1.00  0.00    -0.037 OA 
BRANCH  22  25
HETATM   25  N   UNL     1      -8.251   6.770  66.811  1.00  0.00    -0.112 N  
HETATM   26  H   UNL     1      -9.137   7.125  67.170  1.00  0.00     0.000 HD 
BRANCH  25  27
HETATM   27  C   UNL     1      -8.085   5.398  66.730  1.00  0.00    -0.105 C  
HETATM   28  O   UNL     1      -7.142   4.811  67.227  1.00  0.00    -0.066 OA 
BRANCH  27  29
HETATM   29  N   UNL     1      -9.077   4.778  66.021  1.00  0.00    -0.128 N  
HETATM   30  H   UNL     1      -9.779   4.218  66.506  1.00  0.00     0.000 HD 
BRANCH  29  31
HETATM   31  C   UNL     1      -9.130   4.919  64.572  1.00  0.00    -0.053 C  
HETATM   32  C   UNL     1      -7.814   4.492  63.914  1.00  0.00    -0.089 C  
HETATM   33  C   UNL     1      -7.625   2.977  63.898  1.00  0.00    -0.068 C  
HETATM   34  C   UNL     1      -8.820   2.276  63.262  1.00  0.00    -0.085 C  
HETATM   35  C   UNL     1     -10.127   2.655  63.949  1.00  0.00    -0.139 C  
HETATM   36  C   UNL     1     -10.328   4.168  63.985  1.00  0.00    -0.097 C  
ENDBRANCH  29  31
ENDBRANCH  27  29
ENDBRANCH  25  27
ENDBRANCH  22  25
ENDBRANCH  19  22
ENDBRANCH  15  16
ENDBRANCH  14  15
ENDBRANCH  13  14
ENDBRANCH   4  10
ENDBRANCH   2   3
TORSDOF 10
ENDMDL
MODEL      277
REMARK 921   NORMALIZED FREE ENERGY PREDICTED BY IDOCK:   -3.79 KCAL/MOL
REMARK 922        TOTAL FREE ENERGY PREDICTED BY IDOCK:   -7.97 KCAL/MOL
REMARK 923 INTER-LIGAND FREE ENERGY PREDICTED BY IDOCK:   -7.43 KCAL/MOL
REMARK 924 INTRA-LIGAND FREE ENERGY PREDICTED BY IDOCK:   -0.54 KCAL/MOL
REMARK 927      BINDING AFFINITY PREDICTED BY RF-SCORE:    0.00 PKD
ROOT
HETATM    1  C   UNL     1     -12.494  14.207  65.309  1.00  0.00    -0.461 C  
HETATM    2  O   UNL     1     -11.216  14.688  64.896  1.00  0.00    -0.360 OA 
ENDROOT
BRANCH   2   3
HETATM    3  C   UNL     1     -10.768  15.814  65.536  1.00  0.00    -0.383 A  
HETATM    4  C   UNL     1     -10.079  15.684  66.761  1.00  0.00    -0.277 A  
HETATM    5  C   UNL     1      -9.630  16.840  67.424  1.00  0.00    -0.236 A  
HETATM    6  C   UNL     1     -11.057  17.097  65.045  1.00  0.00     0.193 A  
HETATM    7 CL   UNL     1      -9.397  19.508  67.754  1.00  0.00    -0.385 Cl 
HETATM    8  C   UNL     1     -10.641  18.237  65.733  1.00  0.00    -0.205 A  
HETATM    9  C   UNL     1      -9.920  18.103  66.912  1.00  0.00    -0.342 A  
BRANCH   4  10
HETATM   10  C   UNL     1      -9.801  14.340  67.370  1.00  0.00    -0.235 C  
HETATM   11  H   UNL     1     -11.160  14.710  68.911  1.00  0.00     0.000 HD 
HETATM   12  O   UNL     1      -8.963  13.581  66.902  1.00  0.00    -0.230 OA 
HETATM   13  N   UNL     1     -10.556  14.006  68.486  1.00  0.00    -0.249 N  
BRANCH  13  14
HETATM   14  C   UNL     1     -10.501  12.675  69.061  1.00  0.00     0.007 C  
BRANCH  14  15
HETATM   15  C   UNL     1     -11.865  12.163  69.542  1.00  0.00    -0.386 C  
BRANCH  15  16
HETATM   16  C   UNL     1     -11.882  10.743  70.083  1.00  0.00    -0.427 A  
HETATM   17  C   UNL     1     -12.945  10.222  70.839  1.00  0.00    -0.456 A  
HETATM   18  C   UNL     1     -12.882   8.934  71.378  1.00  0.00    -0.335 A  
HETATM   19  C   UNL     1     -11.755   8.144  71.157  1.00  0.00    -0.283 A  
HETATM   20  C   UNL     1     -10.770   9.919  69.841  1.00  0.00    -0.318 A  
HETATM   21  C   UNL     1     -10.697   8.633  70.385  1.00  0.00    -0.248 A  
BRANCH  19  22
HETATM   22  S   UNL     1     -11.609   6.579  71.990  1.00  0.00    -0.321 S  
HETATM   23  O   UNL     1     -12.955   6.110  72.259  1.00  0.00    -0.035 OA 
HETATM   24  O   UNL     1     -10.649   6.700  73.063  1.00  0.00    -0.223 OA 
BRANCH  22  25
HETATM   25  N   UNL     1     -11.017   5.542  70.833  1.00  0.00    -0.184 N  
HETATM   26  H   UNL     1     -11.371   5.634  69.881  1.00  0.00     0.000 HD 
BRANCH  25  27
HETATM   27  C   UNL     1     -10.072   4.562  71.083  1.00  0.00    -0.147 C  
HETATM   28  O   UNL     1      -9.930   4.038  72.172  1.00  0.00    -0.160 OA 
BRANCH  27  29
HETATM   29  N   UNL     1      -9.309   4.260  69.989  1.00  0.00    -0.145 N  
HETATM   30  H   UNL     1      -9.012   5.000  69.353  1.00  0.00     0.000 HD 
BRANCH  29  31
HETATM   31  C   UNL     1      -8.919   2.880  69.734  1.00  0.00    -0.104 C  
HETATM   32  C   UNL     1      -9.496   2.364  68.412  1.00  0.00    -0.219 C  
HETATM   33  C   UNL     1      -8.780   2.936  67.191  1.00  0.00    -0.139 C  
HETATM   34  C   UNL     1      -7.275   2.705  67.271  1.00  0.00    -0.053 C  
HETATM   35  C   UNL     1      -6.687   3.265  68.562  1.00  0.00    -0.045 C  
HETATM   36  C   UNL     1      -7.398   2.712  69.794  1.00  0.00    -0.044 C  
ENDBRANCH  29  31
ENDBRANCH  27  29
ENDBRANCH  25  27
ENDBRANCH  22  25
ENDBRANCH  19  22
ENDBRANCH  15  16
ENDBRANCH  14  15
ENDBRANCH  13  14
ENDBRANCH   4  10
ENDBRANCH   2   3
TORSDOF 10
ENDMDL
MODEL      278
REMARK 921   NORMALIZED FREE ENERGY PREDICTED BY IDOCK:   -3.77 KCAL/MOL
REMARK 922        TOTAL FREE ENERGY PREDICTED BY IDOCK:   -7.95 KCAL/MOL
REMARK 923 INTER-LIGAND FREE ENERGY PREDICTED BY IDOCK:   -7.47 KCAL/MOL
REMARK 924 INTRA-LIGAND FREE ENERGY PREDICTED BY IDOCK:   -0.48 KCAL/MOL
REMARK 927      BINDING AFFINITY PREDICTED BY RF-SCORE:    0.00 PKD
ROOT
HETATM    1  C   UNL     1     -10.867  17.029  65.272  1.00  0.00    -0.071 C  
HETATM    2  O   UNL     1     -10.909  17.272  66.677  1.00  0.00    -0.134 OA 
ENDROOT
BRANCH   2   3
HETATM    3  C   UNL     1      -9.838  17.951  67.196  1.00  0.00    -0.308 A  
HETATM    4  C   UNL     1      -9.012  17.314  68.146  1.00  0.00    -0.254 A  
HETATM    5  C   UNL     1      -7.919  18.014  68.687  1.00  0.00    -0.303 A  
HETATM    6  C   UNL     1      -9.597  19.295  66.870  1.00  0.00    -0.398 A  
HETATM    7 CL   UNL     1      -6.376  20.200  69.040  1.00  0.00    -0.354 Cl 
HETATM    8  C   UNL     1      -8.534  19.992  67.444  1.00  0.00    -0.391 A  
HETATM    9  C   UNL     1      -7.694  19.345  68.340  1.00  0.00    -0.328 A  
BRANCH   4  10
HETATM   10  C   UNL     1      -9.261  15.901  68.585  1.00  0.00    -0.209 C  
HETATM   11  H   UNL     1      -9.083  15.215  66.621  1.00  0.00     0.000 HD 
HETATM   12  O   UNL     1      -9.512  15.621  69.750  1.00  0.00    -0.277 OA 
HETATM   13  N   UNL     1      -9.181  14.930  67.596  1.00  0.00    -0.185 N  
BRANCH  13  14
HETATM   14  C   UNL     1      -9.234  13.516  67.922  1.00  0.00    -0.211 C  
BRANCH  14  15
HETATM   15  C   UNL     1     -10.649  13.017  68.238  1.00  0.00    -0.260 C  
BRANCH  15  16
HETATM   16  C   UNL     1     -10.730  11.768  69.099  1.00  0.00    -0.169 A  
HETATM   17  C   UNL     1      -9.869  10.669  68.941  1.00  0.00    -0.210 A  
HETATM   18  C   UNL     1     -10.031   9.511  69.707  1.00  0.00    -0.234 A  
HETATM   19  C   UNL     1     -11.053   9.443  70.653  1.00  0.00    -0.289 A  
HETATM   20  C   UNL     1     -11.730  11.694  70.082  1.00  0.00    -0.381 A  
HETATM   21  C   UNL     1     -11.903  10.535  70.846  1.00  0.00    -0.455 A  
BRANCH  19  22
HETATM   22  S   UNL     1     -11.359   7.907  71.498  1.00  0.00    -0.266 S  
HETATM   23  O   UNL     1     -12.259   7.133  70.664  1.00  0.00    -0.291 OA 
HETATM   24  O   UNL     1     -11.694   8.182  72.876  1.00  0.00    -0.373 OA 
BRANCH  22  25
HETATM   25  N   UNL     1      -9.909   7.096  71.432  1.00  0.00    -0.176 N  
HETATM   26  H   UNL     1      -9.057   7.624  71.620  1.00  0.00     0.000 HD 
BRANCH  25  27
HETATM   27  C   UNL     1      -9.789   5.749  71.139  1.00  0.00    -0.180 C  
HETATM   28  O   UNL     1     -10.648   4.930  71.409  1.00  0.00    -0.148 OA 
BRANCH  27  29
HETATM   29  N   UNL     1      -8.603   5.434  70.535  1.00  0.00    -0.120 N  
HETATM   30  H   UNL     1      -7.867   4.967  71.065  1.00  0.00     0.000 HD 
BRANCH  29  31
HETATM   31  C   UNL     1      -8.392   5.768  69.133  1.00  0.00    -0.105 C  
HETATM   32  C   UNL     1      -6.902   5.879  68.796  1.00  0.00    -0.066 C  
HETATM   33  C   UNL     1      -6.210   4.520  68.719  1.00  0.00    -0.032 C  
HETATM   34  C   UNL     1      -6.931   3.583  67.757  1.00  0.00    -0.051 C  
HETATM   35  C   UNL     1      -8.404   3.426  68.121  1.00  0.00    -0.097 C  
HETATM   36  C   UNL     1      -9.110   4.777  68.212  1.00  0.00    -0.145 C  
ENDBRANCH  29  31
ENDBRANCH  27  29
ENDBRANCH  25  27
ENDBRANCH  22  25
ENDBRANCH  19  22
ENDBRANCH  15  16
ENDBRANCH  14  15
ENDBRANCH  13  14
ENDBRANCH   4  10
ENDBRANCH   2   3
TORSDOF 10
ENDMDL
MODEL      279
REMARK 921   NORMALIZED FREE ENERGY PREDICTED BY IDOCK:   -3.75 KCAL/MOL
REMARK 922        TOTAL FREE ENERGY PREDICTED BY IDOCK:   -7.91 KCAL/MOL
REMARK 923 INTER-LIGAND FREE ENERGY PREDICTED BY IDOCK:   -7.07 KCAL/MOL
REMARK 924 INTRA-LIGAND FREE ENERGY PREDICTED BY IDOCK:   -0.84 KCAL/MOL
REMARK 927      BINDING AFFINITY PREDICTED BY RF-SCORE:    0.00 PKD
ROOT
HETATM    1  C   UNL     1     -11.331  13.094  67.340  1.00  0.00    -0.306 C  
HETATM    2  O   UNL     1     -11.415  12.437  68.604  1.00  0.00    -0.254 OA 
ENDROOT
BRANCH   2   3
HETATM    3  C   UNL     1     -11.891  13.197  69.640  1.00  0.00    -0.324 A  
HETATM    4  C   UNL     1     -12.608  12.572  70.682  1.00  0.00    -0.237 A  
HETATM    5  C   UNL     1     -13.107  13.353  71.740  1.00  0.00    -0.479 A  
HETATM    6  C   UNL     1     -11.758  14.595  69.642  1.00  0.00    -0.358 A  
HETATM    7 CL   UNL     1     -13.602  15.685  73.006  1.00  0.00    -0.635 Cl 
HETATM    8  C   UNL     1     -12.292  15.363  70.676  1.00  0.00    -0.451 A  
HETATM    9  C   UNL     1     -12.953  14.738  71.725  1.00  0.00    -0.332 A  
BRANCH   4  10
HETATM   10  C   UNL     1     -12.842  11.089  70.699  1.00  0.00    -0.220 C  
HETATM   11  H   UNL     1     -12.967  11.090  72.783  1.00  0.00     0.000 HD 
HETATM   12  O   UNL     1     -12.832  10.423  69.672  1.00  0.00    -0.078 OA 
HETATM   13  N   UNL     1     -13.080  10.522  71.943  1.00  0.00    -0.479 N  
BRANCH  13  14
HETATM   14  C   UNL     1     -13.485   9.134  72.073  1.00  0.00    -0.448 C  
BRANCH  14  15
HETATM   15  C   UNL     1     -12.513   8.290  72.907  1.00  0.00     0.115 C  
BRANCH  15  16
HETATM   16  C   UNL     1     -11.649   7.315  72.126  1.00  0.00    -0.324 A  
HETATM   17  C   UNL     1     -10.387   6.884  72.566  1.00  0.00    -0.220 A  
HETATM   18  C   UNL     1      -9.597   6.044  71.776  1.00  0.00    -0.168 A  
HETATM   19  C   UNL     1     -10.067   5.614  70.536  1.00  0.00    -0.217 A  
HETATM   20  C   UNL     1     -12.121   6.842  70.890  1.00  0.00    -0.421 A  
HETATM   21  C   UNL     1     -11.331   6.008  70.091  1.00  0.00    -0.351 A  
BRANCH  19  22
HETATM   22  S   UNL     1      -8.987   4.691  69.466  1.00  0.00    -0.098 S  
HETATM   23  O   UNL     1      -9.734   4.390  68.259  1.00  0.00    -0.150 OA 
HETATM   24  O   UNL     1      -8.362   3.630  70.222  1.00  0.00    -0.056 OA 
BRANCH  22  25
HETATM   25  N   UNL     1      -7.830   5.787  68.992  1.00  0.00    -0.093 N  
HETATM   26  H   UNL     1      -7.932   6.224  68.076  1.00  0.00     0.000 HD 
BRANCH  25  27
HETATM   27  C   UNL     1      -6.738   6.142  69.764  1.00  0.00    -0.052 C  
HETATM   28  O   UNL     1      -6.274   5.423  70.629  1.00  0.00    -0.024 OA 
BRANCH  27  29
HETATM   29  N   UNL     1      -6.252   7.386  69.468  1.00  0.00    -0.031 N  
HETATM   30  H   UNL     1      -5.355   7.484  68.992  1.00  0.00     0.000 HD 
BRANCH  29  31
HETATM   31  C   UNL     1      -7.018   8.570  69.833  1.00  0.00    -0.043 C  
HETATM   32  C   UNL     1      -6.824   8.936  71.308  1.00  0.00    -0.090 C  
HETATM   33  C   UNL     1      -5.460   9.563  71.588  1.00  0.00    -0.073 C  
HETATM   34  C   UNL     1      -5.201  10.757  70.678  1.00  0.00    -0.086 C  
HETATM   35  C   UNL     1      -5.339  10.385  69.206  1.00  0.00    -0.038 C  
HETATM   36  C   UNL     1      -6.694   9.747  68.909  1.00  0.00    -0.050 C  
ENDBRANCH  29  31
ENDBRANCH  27  29
ENDBRANCH  25  27
ENDBRANCH  22  25
ENDBRANCH  19  22
ENDBRANCH  15  16
ENDBRANCH  14  15
ENDBRANCH  13  14
ENDBRANCH   4  10
ENDBRANCH   2   3
TORSDOF 10
ENDMDL
MODEL      280
REMARK 921   NORMALIZED FREE ENERGY PREDICTED BY IDOCK:   -3.73 KCAL/MOL
REMARK 922        TOTAL FREE ENERGY PREDICTED BY IDOCK:   -7.89 KCAL/MOL
REMARK 923 INTER-LIGAND FREE ENERGY PREDICTED BY IDOCK:   -6.10 KCAL/MOL
REMARK 924 INTRA-LIGAND FREE ENERGY PREDICTED BY IDOCK:   -1.79 KCAL/MOL
REMARK 927      BINDING AFFINITY PREDICTED BY RF-SCORE:    0.00 PKD
ROOT
HETATM    1  C   UNL     1      -7.993   9.556  68.989  1.00  0.00    -0.092 C  
HETATM    2  O   UNL     1      -9.186   8.778  69.068  1.00  0.00    -0.141 OA 
ENDROOT
BRANCH   2   3
HETATM    3  C   UNL     1     -10.222   9.345  69.763  1.00  0.00    -0.220 A  
HETATM    4  C   UNL     1     -11.082   8.518  70.517  1.00  0.00    -0.265 A  
HETATM    5  C   UNL     1     -12.153   9.099  71.220  1.00  0.00    -0.392 A  
HETATM    6  C   UNL     1     -10.499  10.718  69.669  1.00  0.00    -0.183 A  
HETATM    7 CL   UNL     1     -13.737  11.156  71.956  1.00  0.00    -0.125 Cl 
HETATM    8  C   UNL     1     -11.588  11.276  70.339  1.00  0.00    -0.319 A  
HETATM    9  C   UNL     1     -12.401  10.466  71.120  1.00  0.00    -0.400 A  
BRANCH   4  10
HETATM   10  C   UNL     1     -10.876   7.034  70.598  1.00  0.00    -0.246 C  
HETATM   11  H   UNL     1      -9.358   7.280  72.010  1.00  0.00     0.000 HD 
HETATM   12  O   UNL     1     -11.505   6.255  69.893  1.00  0.00    -0.422 OA 
HETATM   13  N   UNL     1      -9.940   6.596  71.526  1.00  0.00    -0.176 N  
BRANCH  13  14
HETATM   14  C   UNL     1      -9.773   5.184  71.818  1.00  0.00    -0.161 C  
BRANCH  14  15
HETATM   15  C   UNL     1      -8.540   4.565  71.150  1.00  0.00    -0.125 C  
BRANCH  15  16
HETATM   16  C   UNL     1      -8.610   4.425  69.639  1.00  0.00    -0.101 A  
HETATM   17  C   UNL     1      -9.532   3.589  68.987  1.00  0.00    -0.213 A  
HETATM   18  C   UNL     1      -9.509   3.437  67.598  1.00  0.00    -0.231 A  
HETATM   19  C   UNL     1      -8.566   4.129  66.840  1.00  0.00    -0.108 A  
HETATM   20  C   UNL     1      -7.691   5.142  68.855  1.00  0.00    -0.081 A  
HETATM   21  C   UNL     1      -7.657   4.986  67.465  1.00  0.00    -0.087 A  
BRANCH  19  22
HETATM   22  S   UNL     1      -8.431   3.795  65.097  1.00  0.00    -0.110 S  
HETATM   23  O   UNL     1      -9.490   2.864  64.757  1.00  0.00    -0.153 OA 
HETATM   24  O   UNL     1      -7.056   3.486  64.779  1.00  0.00    -0.058 OA 
BRANCH  22  25
HETATM   25  N   UNL     1      -8.862   5.222  64.362  1.00  0.00    -0.328 N  
HETATM   26  H   UNL     1      -9.817   5.556  64.488  1.00  0.00     0.000 HD 
BRANCH  25  27
HETATM   27  C   UNL     1      -8.003   5.985  63.590  1.00  0.00    -0.108 C  
HETATM   28  O   UNL     1      -7.240   5.505  62.773  1.00  0.00    -0.043 OA 
BRANCH  27  29
HETATM   29  N   UNL     1      -8.089   7.324  63.855  1.00  0.00    -0.312 N  
HETATM   30  H   UNL     1      -8.183   7.991  63.089  1.00  0.00     0.000 HD 
BRANCH  29  31
HETATM   31  C   UNL     1      -8.045   7.796  65.233  1.00  0.00    -0.133 C  
HETATM   32  C   UNL     1      -6.836   8.704  65.481  1.00  0.00    -0.075 C  
HETATM   33  C   UNL     1      -7.003  10.092  64.867  1.00  0.00    -0.136 C  
HETATM   34  C   UNL     1      -8.299  10.750  65.324  1.00  0.00    -0.086 C  
HETATM   35  C   UNL     1      -9.511   9.873  65.030  1.00  0.00    -0.343 C  
HETATM   36  C   UNL     1      -9.358   8.476  65.628  1.00  0.00    -0.122 C  
ENDBRANCH  29  31
ENDBRANCH  27  29
ENDBRANCH  25  27
ENDBRANCH  22  25
ENDBRANCH  19  22
ENDBRANCH  15  16
ENDBRANCH  14  15
ENDBRANCH  13  14
ENDBRANCH   4  10
ENDBRANCH   2   3
TORSDOF 10
ENDMDL
MODEL      281
REMARK 921   NORMALIZED FREE ENERGY PREDICTED BY IDOCK:   -3.72 KCAL/MOL
REMARK 922        TOTAL FREE ENERGY PREDICTED BY IDOCK:   -7.86 KCAL/MOL
REMARK 923 INTER-LIGAND FREE ENERGY PREDICTED BY IDOCK:   -6.65 KCAL/MOL
REMARK 924 INTRA-LIGAND FREE ENERGY PREDICTED BY IDOCK:   -1.21 KCAL/MOL
REMARK 927      BINDING AFFINITY PREDICTED BY RF-SCORE:    0.00 PKD
ROOT
HETATM    1  C   UNL     1      -8.437   8.328  66.704  1.00  0.00    -0.123 C  
HETATM    2  O   UNL     1      -9.304   7.313  67.207  1.00  0.00    -0.126 OA 
ENDROOT
BRANCH   2   3
HETATM    3  C   UNL     1      -8.994   6.029  66.840  1.00  0.00    -0.117 A  
HETATM    4  C   UNL     1      -8.981   5.014  67.821  1.00  0.00    -0.117 A  
HETATM    5  C   UNL     1      -8.652   3.699  67.446  1.00  0.00    -0.114 A  
HETATM    6  C   UNL     1      -8.603   5.720  65.528  1.00  0.00    -0.151 A  
HETATM    7 CL   UNL     1      -7.840   1.809  65.700  1.00  0.00    -0.071 Cl 
HETATM    8  C   UNL     1      -8.240   4.419  65.177  1.00  0.00    -0.104 A  
HETATM    9  C   UNL     1      -8.277   3.414  66.134  1.00  0.00    -0.097 A  
BRANCH   4  10
HETATM   10  C   UNL     1      -9.324   5.299  69.254  1.00  0.00    -0.123 C  
HETATM   11  H   UNL     1      -7.303   5.493  69.742  1.00  0.00     0.000 HD 
HETATM   12  O   UNL     1     -10.479   5.278  69.658  1.00  0.00    -0.281 OA 
HETATM   13  N   UNL     1      -8.257   5.597  70.090  1.00  0.00    -0.112 N  
BRANCH  13  14
HETATM   14  C   UNL     1      -8.471   6.055  71.451  1.00  0.00    -0.128 C  
BRANCH  14  15
HETATM   15  C   UNL     1      -8.061   7.515  71.675  1.00  0.00    -0.105 C  
BRANCH  15  16
HETATM   16  C   UNL     1      -8.743   8.536  70.781  1.00  0.00    -0.183 A  
HETATM   17  C   UNL     1      -8.067   9.619  70.196  1.00  0.00    -0.205 A  
HETATM   18  C   UNL     1      -8.754  10.574  69.441  1.00  0.00    -0.093 A  
HETATM   19  C   UNL     1     -10.130  10.451  69.253  1.00  0.00    -0.230 A  
HETATM   20  C   UNL     1     -10.123   8.409  70.550  1.00  0.00    -0.211 A  
HETATM   21  C   UNL     1     -10.818   9.367  69.803  1.00  0.00    -0.250 A  
BRANCH  19  22
HETATM   22  S   UNL     1     -11.020  11.760  68.442  1.00  0.00    -0.251 S  
HETATM   23  O   UNL     1     -12.433  11.514  68.658  1.00  0.00    -0.335 OA 
HETATM   24  O   UNL     1     -10.504  11.927  67.103  1.00  0.00    -0.214 OA 
BRANCH  22  25
HETATM   25  N   UNL     1     -10.679  13.118  69.339  1.00  0.00    -0.432 N  
HETATM   26  H   UNL     1      -9.753  13.193  69.760  1.00  0.00     0.000 HD 
BRANCH  25  27
HETATM   27  C   UNL     1     -11.575  14.151  69.549  1.00  0.00    -0.295 C  
HETATM   28  O   UNL     1     -12.609  14.018  70.177  1.00  0.00    -0.334 OA 
BRANCH  27  29
HETATM   29  N   UNL     1     -11.187  15.326  68.965  1.00  0.00    -0.262 N  
HETATM   30  H   UNL     1     -11.793  16.145  69.012  1.00  0.00     0.000 HD 
BRANCH  29  31
HETATM   31  C   UNL     1      -9.907  15.404  68.275  1.00  0.00    -0.213 C  
HETATM   32  C   UNL     1     -10.079  15.331  66.754  1.00  0.00    -0.262 C  
HETATM   33  C   UNL     1     -10.635  16.623  66.159  1.00  0.00    -0.218 C  
HETATM   34  C   UNL     1      -9.797  17.829  66.569  1.00  0.00    -0.331 C  
HETATM   35  C   UNL     1      -9.669  17.937  68.084  1.00  0.00    -0.320 C  
HETATM   36  C   UNL     1      -9.123  16.650  68.699  1.00  0.00    -0.245 C  
ENDBRANCH  29  31
ENDBRANCH  27  29
ENDBRANCH  25  27
ENDBRANCH  22  25
ENDBRANCH  19  22
ENDBRANCH  15  16
ENDBRANCH  14  15
ENDBRANCH  13  14
ENDBRANCH   4  10
ENDBRANCH   2   3
TORSDOF 10
ENDMDL
MODEL      282
REMARK 921   NORMALIZED FREE ENERGY PREDICTED BY IDOCK:   -3.71 KCAL/MOL
REMARK 922        TOTAL FREE ENERGY PREDICTED BY IDOCK:   -7.85 KCAL/MOL
REMARK 923 INTER-LIGAND FREE ENERGY PREDICTED BY IDOCK:   -7.14 KCAL/MOL
REMARK 924 INTRA-LIGAND FREE ENERGY PREDICTED BY IDOCK:   -0.71 KCAL/MOL
REMARK 927      BINDING AFFINITY PREDICTED BY RF-SCORE:    0.00 PKD
ROOT
HETATM    1  C   UNL     1     -11.396  14.476  69.144  1.00  0.00    -0.277 C  
HETATM    2  O   UNL     1     -12.151  13.439  68.519  1.00  0.00    -0.352 OA 
ENDROOT
BRANCH   2   3
HETATM    3  C   UNL     1     -11.591  12.890  67.395  1.00  0.00    -0.360 A  
HETATM    4  C   UNL     1     -11.260  11.518  67.388  1.00  0.00    -0.367 A  
HETATM    5  C   UNL     1     -10.675  10.957  66.239  1.00  0.00    -0.241 A  
HETATM    6  C   UNL     1     -11.257  13.682  66.284  1.00  0.00    -0.313 A  
HETATM    7 CL   UNL     1      -9.612  11.068  63.761  1.00  0.00    -0.288 Cl 
HETATM    8  C   UNL     1     -10.640  13.121  65.166  1.00  0.00    -0.332 A  
HETATM    9  C   UNL     1     -10.363  11.761  65.144  1.00  0.00    -0.279 A  
BRANCH   4  10
HETATM   10  C   UNL     1     -11.530  10.637  68.572  1.00  0.00    -0.265 C  
HETATM   11  H   UNL     1     -12.935  11.992  69.314  1.00  0.00     0.000 HD 
HETATM   12  O   UNL     1     -10.913   9.596  68.756  1.00  0.00    -0.200 OA 
HETATM   13  N   UNL     1     -12.526  11.066  69.440  1.00  0.00    -0.162 N  
BRANCH  13  14
HETATM   14  C   UNL     1     -12.995  10.222  70.524  1.00  0.00    -0.186 C  
BRANCH  14  15
HETATM   15  C   UNL     1     -11.982  10.078  71.666  1.00  0.00    -0.369 C  
BRANCH  15  16
HETATM   16  C   UNL     1     -11.287   8.732  71.765  1.00  0.00    -0.409 A  
HETATM   17  C   UNL     1      -9.916   8.593  72.039  1.00  0.00    -0.399 A  
HETATM   18  C   UNL     1      -9.307   7.335  72.045  1.00  0.00    -0.150 A  
HETATM   19  C   UNL     1     -10.067   6.194  71.788  1.00  0.00    -0.185 A  
HETATM   20  C   UNL     1     -12.043   7.568  71.544  1.00  0.00    -0.345 A  
HETATM   21  C   UNL     1     -11.437   6.307  71.540  1.00  0.00    -0.351 A  
BRANCH  19  22
HETATM   22  S   UNL     1      -9.252   4.621  71.626  1.00  0.00    -0.143 S  
HETATM   23  O   UNL     1      -9.981   3.675  72.450  1.00  0.00    -0.151 OA 
HETATM   24  O   UNL     1      -7.830   4.802  71.803  1.00  0.00    -0.093 OA 
BRANCH  22  25
HETATM   25  N   UNL     1      -9.559   4.150  70.061  1.00  0.00    -0.191 N  
HETATM   26  H   UNL     1      -9.802   3.174  69.893  1.00  0.00     0.000 HD 
BRANCH  25  27
HETATM   27  C   UNL     1      -9.503   5.003  68.972  1.00  0.00    -0.137 C  
HETATM   28  O   UNL     1     -10.461   5.235  68.259  1.00  0.00    -0.151 OA 
BRANCH  27  29
HETATM   29  N   UNL     1      -8.260   5.539  68.773  1.00  0.00    -0.101 N  
HETATM   30  H   UNL     1      -7.754   5.959  69.552  1.00  0.00     0.000 HD 
BRANCH  29  31
HETATM   31  C   UNL     1      -7.662   5.509  67.445  1.00  0.00    -0.100 C  
HETATM   32  C   UNL     1      -7.769   6.868  66.746  1.00  0.00    -0.102 C  
HETATM   33  C   UNL     1      -6.798   7.902  67.310  1.00  0.00    -0.070 C  
HETATM   34  C   UNL     1      -5.366   7.382  67.302  1.00  0.00    -0.029 C  
HETATM   35  C   UNL     1      -5.243   6.056  68.045  1.00  0.00    -0.004 C  
HETATM   36  C   UNL     1      -6.215   5.011  67.500  1.00  0.00    -0.039 C  
ENDBRANCH  29  31
ENDBRANCH  27  29
ENDBRANCH  25  27
ENDBRANCH  22  25
ENDBRANCH  19  22
ENDBRANCH  15  16
ENDBRANCH  14  15
ENDBRANCH  13  14
ENDBRANCH   4  10
ENDBRANCH   2   3
TORSDOF 10
ENDMDL
MODEL      283
REMARK 921   NORMALIZED FREE ENERGY PREDICTED BY IDOCK:   -3.71 KCAL/MOL
REMARK 922        TOTAL FREE ENERGY PREDICTED BY IDOCK:   -7.85 KCAL/MOL
REMARK 923 INTER-LIGAND FREE ENERGY PREDICTED BY IDOCK:   -6.18 KCAL/MOL
REMARK 924 INTRA-LIGAND FREE ENERGY PREDICTED BY IDOCK:   -1.67 KCAL/MOL
REMARK 927      BINDING AFFINITY PREDICTED BY RF-SCORE:    0.00 PKD
ROOT
HETATM    1  C   UNL     1      -8.790   8.696  66.075  1.00  0.00    -0.178 C  
HETATM    2  O   UNL     1      -8.350   9.993  65.676  1.00  0.00    -0.135 OA 
ENDROOT
BRANCH   2   3
HETATM    3  C   UNL     1      -9.296  10.985  65.726  1.00  0.00    -0.211 A  
HETATM    4  C   UNL     1      -9.135  12.045  66.643  1.00  0.00    -0.205 A  
HETATM    5  C   UNL     1     -10.111  13.057  66.703  1.00  0.00    -0.251 A  
HETATM    6  C   UNL     1     -10.463  10.920  64.948  1.00  0.00    -0.352 A  
HETATM    7 CL   UNL     1     -12.459  14.201  66.025  1.00  0.00    -0.486 Cl 
HETATM    8  C   UNL     1     -11.442  11.908  65.046  1.00  0.00    -0.306 A  
HETATM    9  C   UNL     1     -11.257  12.977  65.913  1.00  0.00    -0.289 A  
BRANCH   4  10
HETATM   10  C   UNL     1      -7.942  12.130  67.549  1.00  0.00    -0.163 C  
HETATM   11  H   UNL     1      -8.834  10.829  68.916  1.00  0.00     0.000 HD 
HETATM   12  O   UNL     1      -6.989  12.857  67.295  1.00  0.00    -0.145 OA 
HETATM   13  N   UNL     1      -7.977  11.331  68.683  1.00  0.00    -0.140 N  
BRANCH  13  14
HETATM   14  C   UNL     1      -6.817  11.197  69.546  1.00  0.00    -0.127 C  
BRANCH  14  15
HETATM   15  C   UNL     1      -5.948   9.978  69.212  1.00  0.00    -0.037 C  
BRANCH  15  16
HETATM   16  C   UNL     1      -6.445   8.647  69.749  1.00  0.00    -0.038 A  
HETATM   17  C   UNL     1      -6.619   8.387  71.118  1.00  0.00    -0.050 A  
HETATM   18  C   UNL     1      -7.008   7.122  71.567  1.00  0.00    -0.064 A  
HETATM   19  C   UNL     1      -7.241   6.100  70.648  1.00  0.00    -0.077 A  
HETATM   20  C   UNL     1      -6.720   7.616  68.835  1.00  0.00    -0.050 A  
HETATM   21  C   UNL     1      -7.100   6.345  69.279  1.00  0.00    -0.080 A  
BRANCH  19  22
HETATM   22  S   UNL     1      -7.564   4.453  71.236  1.00  0.00    -0.065 S  
HETATM   23  O   UNL     1      -7.333   4.457  72.668  1.00  0.00    -0.073 OA 
HETATM   24  O   UNL     1      -6.880   3.503  70.389  1.00  0.00    -0.033 OA 
BRANCH  22  25
HETATM   25  N   UNL     1      -9.206   4.262  71.067  1.00  0.00    -0.130 N  
HETATM   26  H   UNL     1      -9.582   4.163  70.124  1.00  0.00     0.000 HD 
BRANCH  25  27
HETATM   27  C   UNL     1     -10.095   4.230  72.128  1.00  0.00    -0.185 C  
HETATM   28  O   UNL     1     -10.287   3.237  72.804  1.00  0.00    -0.159 OA 
BRANCH  27  29
HETATM   29  N   UNL     1     -10.743   5.419  72.322  1.00  0.00    -0.225 N  
HETATM   30  H   UNL     1     -11.247   5.590  73.192  1.00  0.00     0.000 HD 
BRANCH  29  31
HETATM   31  C   UNL     1     -10.711   6.440  71.283  1.00  0.00    -0.241 C  
HETATM   32  C   UNL     1     -12.033   6.502  70.510  1.00  0.00    -0.322 C  
HETATM   33  C   UNL     1     -13.157   7.155  71.311  1.00  0.00    -0.361 C  
HETATM   34  C   UNL     1     -12.746   8.530  71.824  1.00  0.00    -0.385 C  
HETATM   35  C   UNL     1     -11.460   8.466  72.641  1.00  0.00    -0.359 C  
HETATM   36  C   UNL     1     -10.326   7.806  71.860  1.00  0.00    -0.256 C  
ENDBRANCH  29  31
ENDBRANCH  27  29
ENDBRANCH  25  27
ENDBRANCH  22  25
ENDBRANCH  19  22
ENDBRANCH  15  16
ENDBRANCH  14  15
ENDBRANCH  13  14
ENDBRANCH   4  10
ENDBRANCH   2   3
TORSDOF 10
ENDMDL
MODEL      284
REMARK 921   NORMALIZED FREE ENERGY PREDICTED BY IDOCK:   -3.71 KCAL/MOL
REMARK 922        TOTAL FREE ENERGY PREDICTED BY IDOCK:   -7.84 KCAL/MOL
REMARK 923 INTER-LIGAND FREE ENERGY PREDICTED BY IDOCK:   -6.54 KCAL/MOL
REMARK 924 INTRA-LIGAND FREE ENERGY PREDICTED BY IDOCK:   -1.31 KCAL/MOL
REMARK 927      BINDING AFFINITY PREDICTED BY RF-SCORE:    0.00 PKD
ROOT
HETATM    1  C   UNL     1     -11.609  12.541  65.499  1.00  0.00    -0.386 C  
HETATM    2  O   UNL     1     -10.838  13.008  66.605  1.00  0.00    -0.271 OA 
ENDROOT
BRANCH   2   3
HETATM    3  C   UNL     1     -10.224  14.222  66.432  1.00  0.00    -0.291 A  
HETATM    4  C   UNL     1      -8.918  14.412  66.931  1.00  0.00    -0.263 A  
HETATM    5  C   UNL     1      -8.292  15.660  66.764  1.00  0.00    -0.313 A  
HETATM    6  C   UNL     1     -10.900  15.305  65.849  1.00  0.00    -0.345 A  
HETATM    7 CL   UNL     1      -8.215  18.250  66.009  1.00  0.00    -0.160 Cl 
HETATM    8  C   UNL     1     -10.283  16.550  65.725  1.00  0.00    -0.350 A  
HETATM    9  C   UNL     1      -8.980  16.718  66.172  1.00  0.00    -0.260 A  
BRANCH   4  10
HETATM   10  C   UNL     1      -8.172  13.310  67.625  1.00  0.00    -0.179 C  
HETATM   11  H   UNL     1      -7.309  12.703  65.824  1.00  0.00     0.000 HD 
HETATM   12  O   UNL     1      -8.310  13.090  68.821  1.00  0.00    -0.024 OA 
HETATM   13  N   UNL     1      -7.310  12.563  66.834  1.00  0.00     0.034 N  
BRANCH  13  14
HETATM   14  C   UNL     1      -6.409  11.585  67.418  1.00  0.00    -0.091 C  
BRANCH  14  15
HETATM   15  C   UNL     1      -6.106  10.404  66.487  1.00  0.00    -0.072 C  
BRANCH  15  16
HETATM   16  C   UNL     1      -6.698   9.069  66.902  1.00  0.00    -0.072 A  
HETATM   17  C   UNL     1      -6.606   8.560  68.208  1.00  0.00    -0.061 A  
HETATM   18  C   UNL     1      -7.103   7.292  68.523  1.00  0.00    -0.085 A  
HETATM   19  C   UNL     1      -7.709   6.518  67.534  1.00  0.00    -0.106 A  
HETATM   20  C   UNL     1      -7.344   8.290  65.928  1.00  0.00    -0.076 A  
HETATM   21  C   UNL     1      -7.834   7.016  66.235  1.00  0.00    -0.104 A  
BRANCH  19  22
HETATM   22  S   UNL     1      -8.178   4.842  67.902  1.00  0.00    -0.095 S  
HETATM   23  O   UNL     1      -7.728   4.559  69.252  1.00  0.00    -0.055 OA 
HETATM   24  O   UNL     1      -7.784   3.987  66.806  1.00  0.00    -0.087 OA 
BRANCH  22  25
HETATM   25  N   UNL     1      -9.836   4.883  68.003  1.00  0.00    -0.152 N  
HETATM   26  H   UNL     1     -10.346   4.008  67.882  1.00  0.00     0.000 HD 
BRANCH  25  27
HETATM   27  C   UNL     1     -10.568   6.034  68.240  1.00  0.00    -0.261 C  
HETATM   28  O   UNL     1     -11.258   6.571  67.393  1.00  0.00    -0.359 OA 
BRANCH  27  29
HETATM   29  N   UNL     1     -10.420   6.511  69.513  1.00  0.00    -0.205 N  
HETATM   30  H   UNL     1      -9.725   7.231  69.712  1.00  0.00     0.000 HD 
BRANCH  29  31
HETATM   31  C   UNL     1     -11.258   5.990  70.585  1.00  0.00    -0.277 C  
HETATM   32  C   UNL     1     -10.445   5.714  71.854  1.00  0.00    -0.279 C  
HETATM   33  C   UNL     1     -10.053   6.990  72.595  1.00  0.00    -0.204 C  
HETATM   34  C   UNL     1     -11.271   7.857  72.891  1.00  0.00    -0.429 C  
HETATM   35  C   UNL     1     -12.053   8.181  71.622  1.00  0.00    -0.342 C  
HETATM   36  C   UNL     1     -12.446   6.916  70.862  1.00  0.00    -0.314 C  
ENDBRANCH  29  31
ENDBRANCH  27  29
ENDBRANCH  25  27
ENDBRANCH  22  25
ENDBRANCH  19  22
ENDBRANCH  15  16
ENDBRANCH  14  15
ENDBRANCH  13  14
ENDBRANCH   4  10
ENDBRANCH   2   3
TORSDOF 10
ENDMDL
MODEL      285
REMARK 921   NORMALIZED FREE ENERGY PREDICTED BY IDOCK:   -3.59 KCAL/MOL
REMARK 922        TOTAL FREE ENERGY PREDICTED BY IDOCK:   -7.66 KCAL/MOL
REMARK 923 INTER-LIGAND FREE ENERGY PREDICTED BY IDOCK:   -6.16 KCAL/MOL
REMARK 924 INTRA-LIGAND FREE ENERGY PREDICTED BY IDOCK:   -1.50 KCAL/MOL
REMARK 927      BINDING AFFINITY PREDICTED BY RF-SCORE:    0.00 PKD
ROOT
HETATM    1  C   UNL     1     -12.432  14.423  64.503  1.00  0.00    -0.339 C  
HETATM    2  O   UNL     1     -11.375  13.570  64.939  1.00  0.00    -0.315 OA 
ENDROOT
BRANCH   2   3
HETATM    3  C   UNL     1     -10.397  14.169  65.689  1.00  0.00    -0.333 A  
HETATM    4  C   UNL     1      -9.716  13.413  66.667  1.00  0.00    -0.275 A  
HETATM    5  C   UNL     1      -8.720  14.031  67.445  1.00  0.00    -0.212 A  
HETATM    6  C   UNL     1     -10.120  15.541  65.568  1.00  0.00    -0.406 A  
HETATM    7 CL   UNL     1      -7.263  16.141  68.284  1.00  0.00    -0.132 Cl 
HETATM    8  C   UNL     1      -9.159  16.151  66.373  1.00  0.00    -0.339 A  
HETATM    9  C   UNL     1      -8.456  15.391  67.299  1.00  0.00    -0.192 A  
BRANCH   4  10
HETATM   10  C   UNL     1     -10.017  11.960  66.889  1.00  0.00    -0.200 C  
HETATM   11  H   UNL     1      -8.806  11.418  65.277  1.00  0.00     0.000 HD 
HETATM   12  O   UNL     1     -10.795  11.587  67.758  1.00  0.00    -0.199 OA 
HETATM   13  N   UNL     1      -9.356  11.064  66.060  1.00  0.00    -0.194 N  
BRANCH  13  14
HETATM   14  C   UNL     1      -9.431   9.632  66.285  1.00  0.00    -0.199 C  
BRANCH  14  15
HETATM   15  C   UNL     1      -8.089   8.914  66.100  1.00  0.00    -0.114 C  
BRANCH  15  16
HETATM   16  C   UNL     1      -7.908   7.638  66.904  1.00  0.00    -0.111 A  
HETATM   17  C   UNL     1      -8.981   6.911  67.443  1.00  0.00    -0.116 A  
HETATM   18  C   UNL     1      -8.760   5.783  68.239  1.00  0.00    -0.111 A  
HETATM   19  C   UNL     1      -7.456   5.361  68.496  1.00  0.00    -0.076 A  
HETATM   20  C   UNL     1      -6.603   7.176  67.144  1.00  0.00    -0.059 A  
HETATM   21  C   UNL     1      -6.374   6.054  67.947  1.00  0.00    -0.037 A  
BRANCH  19  22
HETATM   22  S   UNL     1      -7.180   4.034  69.649  1.00  0.00    -0.049 S  
HETATM   23  O   UNL     1      -5.841   4.201  70.181  1.00  0.00    -0.016 OA 
HETATM   24  O   UNL     1      -7.574   2.785  69.039  1.00  0.00    -0.047 OA 
BRANCH  22  25
HETATM   25  N   UNL     1      -8.192   4.370  70.924  1.00  0.00    -0.078 N  
HETATM   26  H   UNL     1      -8.968   3.732  71.101  1.00  0.00     0.000 HD 
BRANCH  25  27
HETATM   27  C   UNL     1      -8.045   5.462  71.761  1.00  0.00    -0.118 C  
HETATM   28  O   UNL     1      -7.107   5.594  72.525  1.00  0.00    -0.081 OA 
BRANCH  27  29
HETATM   29  N   UNL     1      -9.069   6.363  71.653  1.00  0.00    -0.144 N  
HETATM   30  H   UNL     1      -9.969   6.070  71.272  1.00  0.00     0.000 HD 
BRANCH  29  31
HETATM   31  C   UNL     1      -8.872   7.740  72.084  1.00  0.00    -0.133 C  
HETATM   32  C   UNL     1      -8.934   8.716  70.905  1.00  0.00    -0.227 C  
HETATM   33  C   UNL     1     -10.355   8.935  70.391  1.00  0.00    -0.240 C  
HETATM   34  C   UNL     1     -11.293   9.359  71.515  1.00  0.00    -0.464 C  
HETATM   35  C   UNL     1     -11.276   8.362  72.669  1.00  0.00    -0.339 C  
HETATM   36  C   UNL     1      -9.861   8.123  73.190  1.00  0.00    -0.267 C  
ENDBRANCH  29  31
ENDBRANCH  27  29
ENDBRANCH  25  27
ENDBRANCH  22  25
ENDBRANCH  19  22
ENDBRANCH  15  16
ENDBRANCH  14  15
ENDBRANCH  13  14
ENDBRANCH   4  10
ENDBRANCH   2   3
TORSDOF 10
ENDMDL
MODEL      286
REMARK 921   NORMALIZED FREE ENERGY PREDICTED BY IDOCK:   -3.57 KCAL/MOL
REMARK 922        TOTAL FREE ENERGY PREDICTED BY IDOCK:   -7.63 KCAL/MOL
REMARK 923 INTER-LIGAND FREE ENERGY PREDICTED BY IDOCK:   -7.53 KCAL/MOL
REMARK 924 INTRA-LIGAND FREE ENERGY PREDICTED BY IDOCK:   -0.09 KCAL/MOL
REMARK 927      BINDING AFFINITY PREDICTED BY RF-SCORE:    0.00 PKD
ROOT
HETATM    1  C   UNL     1      -7.927   9.141  70.730  1.00  0.00    -0.163 C  
HETATM    2  O   UNL     1      -7.164   8.057  70.202  1.00  0.00    -0.055 OA 
ENDROOT
BRANCH   2   3
HETATM    3  C   UNL     1      -7.348   7.793  68.870  1.00  0.00    -0.086 A  
HETATM    4  C   UNL     1      -8.526   7.137  68.453  1.00  0.00    -0.124 A  
HETATM    5  C   UNL     1      -8.710   6.855  67.087  1.00  0.00    -0.120 A  
HETATM    6  C   UNL     1      -6.352   8.081  67.924  1.00  0.00    -0.052 A  
HETATM    7 CL   UNL     1      -7.934   6.775  64.504  1.00  0.00    -0.120 Cl 
HETATM    8  C   UNL     1      -6.529   7.761  66.578  1.00  0.00    -0.047 A  
HETATM    9  C   UNL     1      -7.710   7.160  66.165  1.00  0.00    -0.098 A  
BRANCH   4  10
HETATM   10  C   UNL     1      -9.596   6.742  69.428  1.00  0.00    -0.146 C  
HETATM   11  H   UNL     1     -10.688   8.468  68.992  1.00  0.00     0.000 HD 
HETATM   12  O   UNL     1      -9.502   5.735  70.117  1.00  0.00    -0.154 OA 
HETATM   13  N   UNL     1     -10.700   7.581  69.497  1.00  0.00    -0.235 N  
BRANCH  13  14
HETATM   14  C   UNL     1     -11.873   7.221  70.273  1.00  0.00    -0.070 C  
BRANCH  14  15
HETATM   15  C   UNL     1     -12.039   8.056  71.549  1.00  0.00    -0.330 C  
BRANCH  15  16
HETATM   16  C   UNL     1     -12.254   9.544  71.338  1.00  0.00    -0.455 A  
HETATM   17  C   UNL     1     -11.576  10.288  70.358  1.00  0.00    -0.411 A  
HETATM   18  C   UNL     1     -11.753  11.670  70.252  1.00  0.00    -0.355 A  
HETATM   19  C   UNL     1     -12.623  12.327  71.121  1.00  0.00    -0.253 A  
HETATM   20  C   UNL     1     -13.154  10.218  72.181  1.00  0.00    -0.444 A  
HETATM   21  C   UNL     1     -13.329  11.603  72.086  1.00  0.00    -0.310 A  
BRANCH  19  22
HETATM   22  S   UNL     1     -12.708  14.104  71.094  1.00  0.00    -0.379 S  
HETATM   23  O   UNL     1     -11.560  14.599  71.829  1.00  0.00    -0.270 OA 
HETATM   24  O   UNL     1     -14.043  14.521  71.455  1.00  0.00    -0.409 OA 
BRANCH  22  25
HETATM   25  N   UNL     1     -12.411  14.513  69.510  1.00  0.00    -0.557 N  
HETATM   26  H   UNL     1     -13.053  14.166  68.797  1.00  0.00     0.000 HD 
BRANCH  25  27
HETATM   27  C   UNL     1     -11.346  15.296  69.100  1.00  0.00    -0.297 C  
HETATM   28  O   UNL     1     -11.472  16.259  68.367  1.00  0.00    -0.357 OA 
BRANCH  27  29
HETATM   29  N   UNL     1     -10.143  14.865  69.588  1.00  0.00    -0.416 N  
HETATM   30  H   UNL     1     -10.092  14.003  70.131  1.00  0.00     0.000 HD 
BRANCH  29  31
HETATM   31  C   UNL     1      -8.936  15.638  69.329  1.00  0.00    -0.267 C  
HETATM   32  C   UNL     1      -7.690  14.944  69.888  1.00  0.00     0.116 C  
HETATM   33  C   UNL     1      -7.261  13.738  69.056  1.00  0.00    -0.063 C  
HETATM   34  C   UNL     1      -7.081  14.111  67.589  1.00  0.00    -0.199 C  
HETATM   35  C   UNL     1      -8.339  14.752  67.012  1.00  0.00    -0.228 C  
HETATM   36  C   UNL     1      -8.789  15.955  67.838  1.00  0.00    -0.179 C  
ENDBRANCH  29  31
ENDBRANCH  27  29
ENDBRANCH  25  27
ENDBRANCH  22  25
ENDBRANCH  19  22
ENDBRANCH  15  16
ENDBRANCH  14  15
ENDBRANCH  13  14
ENDBRANCH   4  10
ENDBRANCH   2   3
TORSDOF 10
ENDMDL
MODEL      287
REMARK 921   NORMALIZED FREE ENERGY PREDICTED BY IDOCK:   -3.55 KCAL/MOL
REMARK 922        TOTAL FREE ENERGY PREDICTED BY IDOCK:   -7.60 KCAL/MOL
REMARK 923 INTER-LIGAND FREE ENERGY PREDICTED BY IDOCK:   -5.92 KCAL/MOL
REMARK 924 INTRA-LIGAND FREE ENERGY PREDICTED BY IDOCK:   -1.68 KCAL/MOL
REMARK 927      BINDING AFFINITY PREDICTED BY RF-SCORE:    0.00 PKD
ROOT
HETATM    1  C   UNL     1      -8.566   7.731  65.754  1.00  0.00    -0.143 C  
HETATM    2  O   UNL     1      -7.579   6.711  65.609  1.00  0.00    -0.079 OA 
ENDROOT
BRANCH   2   3
HETATM    3  C   UNL     1      -7.945   5.632  64.847  1.00  0.00    -0.117 A  
HETATM    4  C   UNL     1      -8.194   4.395  65.478  1.00  0.00    -0.110 A  
HETATM    5  C   UNL     1      -8.559   3.285  64.695  1.00  0.00    -0.098 A  
HETATM    6  C   UNL     1      -7.991   5.710  63.446  1.00  0.00    -0.105 A  
HETATM    7 CL   UNL     1      -9.019   2.012  62.360  1.00  0.00    -0.073 Cl 
HETATM    8  C   UNL     1      -8.315   4.591  62.678  1.00  0.00    -0.092 A  
HETATM    9  C   UNL     1      -8.609   3.389  63.306  1.00  0.00    -0.090 A  
BRANCH   4  10
HETATM   10  C   UNL     1      -8.093   4.235  66.967  1.00  0.00    -0.101 C  
HETATM   11  H   UNL     1     -10.173   4.244  67.151  1.00  0.00     0.000 HD 
HETATM   12  O   UNL     1      -7.013   4.212  67.542  1.00  0.00    -0.054 OA 
HETATM   13  N   UNL     1      -9.294   4.105  67.651  1.00  0.00    -0.157 N  
BRANCH  13  14
HETATM   14  C   UNL     1      -9.324   3.777  69.065  1.00  0.00    -0.171 C  
BRANCH  14  15
HETATM   15  C   UNL     1     -10.213   4.715  69.890  1.00  0.00    -0.156 C  
BRANCH  15  16
HETATM   16  C   UNL     1      -9.962   6.200  69.697  1.00  0.00    -0.210 A  
HETATM   17  C   UNL     1     -10.941   7.091  69.228  1.00  0.00    -0.211 A  
HETATM   18  C   UNL     1     -10.639   8.436  68.996  1.00  0.00    -0.172 A  
HETATM   19  C   UNL     1      -9.352   8.911  69.243  1.00  0.00    -0.149 A  
HETATM   20  C   UNL     1      -8.680   6.705  69.974  1.00  0.00    -0.141 A  
HETATM   21  C   UNL     1      -8.369   8.048  69.735  1.00  0.00    -0.122 A  
BRANCH  19  22
HETATM   22  S   UNL     1      -8.932  10.577  68.780  1.00  0.00    -0.172 S  
HETATM   23  O   UNL     1      -9.142  10.689  67.350  1.00  0.00    -0.139 OA 
HETATM   24  O   UNL     1      -7.656  10.924  69.362  1.00  0.00    -0.142 OA 
BRANCH  22  25
HETATM   25  N   UNL     1     -10.124  11.514  69.463  1.00  0.00    -0.325 N  
HETATM   26  H   UNL     1     -10.038  11.752  70.451  1.00  0.00     0.000 HD 
BRANCH  25  27
HETATM   27  C   UNL     1     -11.225  11.989  68.773  1.00  0.00    -0.263 C  
HETATM   28  O   UNL     1     -12.323  11.468  68.832  1.00  0.00    -0.400 OA 
BRANCH  27  29
HETATM   29  N   UNL     1     -10.946  13.087  68.007  1.00  0.00    -0.241 N  
HETATM   30  H   UNL     1     -10.133  13.088  67.391  1.00  0.00     0.000 HD 
BRANCH  29  31
HETATM   31  C   UNL     1     -11.812  14.256  68.072  1.00  0.00    -0.344 C  
HETATM   32  C   UNL     1     -11.736  14.941  69.441  1.00  0.00    -0.349 C  
HETATM   33  C   UNL     1     -10.439  15.720  69.641  1.00  0.00    -0.289 C  
HETATM   34  C   UNL     1     -10.206  16.712  68.508  1.00  0.00    -0.282 C  
HETATM   35  C   UNL     1     -10.227  16.027  67.146  1.00  0.00    -0.278 C  
HETATM   36  C   UNL     1     -11.514  15.233  66.932  1.00  0.00    -0.143 C  
ENDBRANCH  29  31
ENDBRANCH  27  29
ENDBRANCH  25  27
ENDBRANCH  22  25
ENDBRANCH  19  22
ENDBRANCH  15  16
ENDBRANCH  14  15
ENDBRANCH  13  14
ENDBRANCH   4  10
ENDBRANCH   2   3
TORSDOF 10
ENDMDL
MODEL      288
REMARK 921   NORMALIZED FREE ENERGY PREDICTED BY IDOCK:   -3.51 KCAL/MOL
REMARK 922        TOTAL FREE ENERGY PREDICTED BY IDOCK:   -7.53 KCAL/MOL
REMARK 923 INTER-LIGAND FREE ENERGY PREDICTED BY IDOCK:   -6.12 KCAL/MOL
REMARK 924 INTRA-LIGAND FREE ENERGY PREDICTED BY IDOCK:   -1.41 KCAL/MOL
REMARK 927      BINDING AFFINITY PREDICTED BY RF-SCORE:    0.00 PKD
ROOT
HETATM    1  C   UNL     1     -10.669   9.662  69.878  1.00  0.00    -0.252 C  
HETATM    2  O   UNL     1      -9.527   9.359  70.677  1.00  0.00    -0.251 OA 
ENDROOT
BRANCH   2   3
HETATM    3  C   UNL     1      -8.594   8.539  70.097  1.00  0.00    -0.132 A  
HETATM    4  C   UNL     1      -7.410   9.102  69.574  1.00  0.00    -0.068 A  
HETATM    5  C   UNL     1      -6.458   8.262  68.968  1.00  0.00    -0.047 A  
HETATM    6  C   UNL     1      -8.832   7.165  69.932  1.00  0.00    -0.142 A  
HETATM    7 CL   UNL     1      -5.555   5.891  68.047  1.00  0.00    -0.008 Cl 
HETATM    8  C   UNL     1      -7.898   6.349  69.293  1.00  0.00    -0.106 A  
HETATM    9  C   UNL     1      -6.712   6.899  68.825  1.00  0.00    -0.056 A  
BRANCH   4  10
HETATM   10  C   UNL     1      -7.133  10.574  69.660  1.00  0.00    -0.141 C  
HETATM   11  H   UNL     1      -5.703  10.261  71.149  1.00  0.00     0.000 HD 
HETATM   12  O   UNL     1      -7.759  11.389  68.994  1.00  0.00    -0.125 OA 
HETATM   13  N   UNL     1      -6.121  10.956  70.530  1.00  0.00    -0.131 N  
BRANCH  13  14
HETATM   14  C   UNL     1      -5.645  12.327  70.577  1.00  0.00    -0.168 C  
BRANCH  14  15
HETATM   15  C   UNL     1      -5.223  12.872  69.207  1.00  0.00    -0.073 C  
BRANCH  15  16
HETATM   16  C   UNL     1      -5.932  14.136  68.754  1.00  0.00    -0.085 A  
HETATM   17  C   UNL     1      -5.702  14.742  67.508  1.00  0.00     0.118 A  
HETATM   18  C   UNL     1      -6.324  15.947  67.167  1.00  0.00    -0.059 A  
HETATM   19  C   UNL     1      -7.196  16.557  68.067  1.00  0.00    -0.143 A  
HETATM   20  C   UNL     1      -6.843  14.747  69.633  1.00  0.00    -0.173 A  
HETATM   21  C   UNL     1      -7.461  15.957  69.301  1.00  0.00    -0.219 A  
BRANCH  19  22
HETATM   22  S   UNL     1      -7.845  18.172  67.697  1.00  0.00    -0.227 S  
HETATM   23  O   UNL     1      -7.096  18.684  66.565  1.00  0.00    -0.203 OA 
HETATM   24  O   UNL     1      -7.937  18.937  68.919  1.00  0.00    -0.325 OA 
BRANCH  22  25
HETATM   25  N   UNL     1      -9.372  17.885  67.107  1.00  0.00    -0.260 N  
HETATM   26  H   UNL     1      -9.563  18.124  66.134  1.00  0.00     0.000 HD 
BRANCH  25  27
HETATM   27  C   UNL     1     -10.401  17.341  67.857  1.00  0.00    -0.360 C  
HETATM   28  O   UNL     1     -10.740  17.781  68.939  1.00  0.00    -0.173 OA 
BRANCH  27  29
HETATM   29  N   UNL     1     -10.980  16.252  67.264  1.00  0.00    -0.211 N  
HETATM   30  H   UNL     1     -11.989  16.115  67.321  1.00  0.00     0.000 HD 
BRANCH  29  31
HETATM   31  C   UNL     1     -10.152  15.288  66.551  1.00  0.00    -0.270 C  
HETATM   32  C   UNL     1      -9.924  14.019  67.378  1.00  0.00    -0.243 C  
HETATM   33  C   UNL     1     -11.158  13.122  67.437  1.00  0.00    -0.301 C  
HETATM   34  C   UNL     1     -11.674  12.794  66.041  1.00  0.00    -0.470 C  
HETATM   35  C   UNL     1     -11.955  14.056  65.233  1.00  0.00    -0.384 C  
HETATM   36  C   UNL     1     -10.734  14.971  65.171  1.00  0.00    -0.434 C  
ENDBRANCH  29  31
ENDBRANCH  27  29
ENDBRANCH  25  27
ENDBRANCH  22  25
ENDBRANCH  19  22
ENDBRANCH  15  16
ENDBRANCH  14  15
ENDBRANCH  13  14
ENDBRANCH   4  10
ENDBRANCH   2   3
TORSDOF 10
ENDMDL
MODEL      289
REMARK 921   NORMALIZED FREE ENERGY PREDICTED BY IDOCK:   -3.49 KCAL/MOL
REMARK 922        TOTAL FREE ENERGY PREDICTED BY IDOCK:   -7.51 KCAL/MOL
REMARK 923 INTER-LIGAND FREE ENERGY PREDICTED BY IDOCK:   -6.28 KCAL/MOL
REMARK 924 INTRA-LIGAND FREE ENERGY PREDICTED BY IDOCK:   -1.23 KCAL/MOL
REMARK 927      BINDING AFFINITY PREDICTED BY RF-SCORE:    0.00 PKD
ROOT
HETATM    1  C   UNL     1      -6.054   7.680  67.761  1.00  0.00    -0.045 C  
HETATM    2  O   UNL     1      -6.039   6.562  68.647  1.00  0.00    -0.023 OA 
ENDROOT
BRANCH   2   3
HETATM    3  C   UNL     1      -6.823   5.499  68.278  1.00  0.00    -0.060 A  
HETATM    4  C   UNL     1      -7.828   5.044  69.158  1.00  0.00    -0.080 A  
HETATM    5  C   UNL     1      -8.624   3.947  68.785  1.00  0.00    -0.117 A  
HETATM    6  C   UNL     1      -6.589   4.800  67.084  1.00  0.00    -0.050 A  
HETATM    7 CL   UNL     1      -9.338   1.911  67.164  1.00  0.00    -0.073 Cl 
HETATM    8  C   UNL     1      -7.359   3.688  66.743  1.00  0.00    -0.068 A  
HETATM    9  C   UNL     1      -8.380   3.275  67.589  1.00  0.00    -0.086 A  
BRANCH   4  10
HETATM   10  C   UNL     1      -8.078   5.710  70.480  1.00  0.00    -0.105 C  
HETATM   11  H   UNL     1      -9.150   7.243  69.552  1.00  0.00     0.000 HD 
HETATM   12  O   UNL     1      -7.612   5.271  71.523  1.00  0.00    -0.096 OA 
HETATM   13  N   UNL     1      -8.877   6.846  70.451  1.00  0.00    -0.151 N  
BRANCH  13  14
HETATM   14  C   UNL     1      -9.330   7.480  71.676  1.00  0.00    -0.145 C  
BRANCH  14  15
HETATM   15  C   UNL     1      -9.982   8.849  71.448  1.00  0.00    -0.378 C  
BRANCH  15  16
HETATM   16  C   UNL     1      -9.869   9.406  70.040  1.00  0.00    -0.253 A  
HETATM   17  C   UNL     1     -10.846   9.203  69.052  1.00  0.00    -0.115 A  
HETATM   18  C   UNL     1     -10.662   9.673  67.749  1.00  0.00    -0.316 A  
HETATM   19  C   UNL     1      -9.498  10.366  67.419  1.00  0.00    -0.149 A  
HETATM   20  C   UNL     1      -8.719  10.138  69.698  1.00  0.00    -0.176 A  
HETATM   21  C   UNL     1      -8.525  10.603  68.393  1.00  0.00    -0.132 A  
BRANCH  19  22
HETATM   22  S   UNL     1      -9.194  10.806  65.722  1.00  0.00    -0.198 S  
HETATM   23  O   UNL     1     -10.363  10.407  64.961  1.00  0.00    -0.306 OA 
HETATM   24  O   UNL     1      -7.880  10.344  65.340  1.00  0.00    -0.147 OA 
BRANCH  22  25
HETATM   25  N   UNL     1      -9.222  12.468  65.709  1.00  0.00    -0.444 N  
HETATM   26  H   UNL     1      -8.376  12.959  65.419  1.00  0.00     0.000 HD 
BRANCH  25  27
HETATM   27  C   UNL     1     -10.322  13.226  66.069  1.00  0.00    -0.289 C  
HETATM   28  O   UNL     1     -11.375  13.202  65.459  1.00  0.00    -0.294 OA 
BRANCH  27  29
HETATM   29  N   UNL     1     -10.097  14.015  67.164  1.00  0.00    -0.256 N  
HETATM   30  H   UNL     1      -9.609  13.635  67.975  1.00  0.00     0.000 HD 
BRANCH  29  31
HETATM   31  C   UNL     1     -10.555  15.398  67.169  1.00  0.00    -0.305 C  
HETATM   32  C   UNL     1     -10.343  16.058  68.535  1.00  0.00    -0.241 C  
HETATM   33  C   UNL     1      -8.880  16.398  68.808  1.00  0.00    -0.246 C  
HETATM   34  C   UNL     1      -8.285  17.238  67.684  1.00  0.00    -0.198 C  
HETATM   35  C   UNL     1      -8.445  16.559  66.328  1.00  0.00    -0.363 C  
HETATM   36  C   UNL     1      -9.902  16.203  66.041  1.00  0.00    -0.375 C  
ENDBRANCH  29  31
ENDBRANCH  27  29
ENDBRANCH  25  27
ENDBRANCH  22  25
ENDBRANCH  19  22
ENDBRANCH  15  16
ENDBRANCH  14  15
ENDBRANCH  13  14
ENDBRANCH   4  10
ENDBRANCH   2   3
TORSDOF 10
ENDMDL
MODEL      290
REMARK 921   NORMALIZED FREE ENERGY PREDICTED BY IDOCK:   -3.49 KCAL/MOL
REMARK 922        TOTAL FREE ENERGY PREDICTED BY IDOCK:   -7.50 KCAL/MOL
REMARK 923 INTER-LIGAND FREE ENERGY PREDICTED BY IDOCK:   -5.81 KCAL/MOL
REMARK 924 INTRA-LIGAND FREE ENERGY PREDICTED BY IDOCK:   -1.69 KCAL/MOL
REMARK 927      BINDING AFFINITY PREDICTED BY RF-SCORE:    0.00 PKD
ROOT
HETATM    1  C   UNL     1     -10.804   5.780  70.766  1.00  0.00    -0.260 C  
HETATM    2  O   UNL     1      -9.770   4.946  71.287  1.00  0.00    -0.159 OA 
ENDROOT
BRANCH   2   3
HETATM    3  C   UNL     1      -9.028   4.265  70.357  1.00  0.00    -0.090 A  
HETATM    4  C   UNL     1      -7.681   4.629  70.147  1.00  0.00    -0.054 A  
HETATM    5  C   UNL     1      -6.924   3.937  69.184  1.00  0.00    -0.046 A  
HETATM    6  C   UNL     1      -9.606   3.273  69.549  1.00  0.00    -0.127 A  
HETATM    7 CL   UNL     1      -6.587   2.138  67.202  1.00  0.00    -0.037 Cl 
HETATM    8  C   UNL     1      -8.855   2.621  68.570  1.00  0.00    -0.158 A  
HETATM    9  C   UNL     1      -7.516   2.948  68.401  1.00  0.00    -0.049 A  
BRANCH   4  10
HETATM   10  C   UNL     1      -7.030   5.728  70.934  1.00  0.00    -0.066 C  
HETATM   11  H   UNL     1      -7.131   7.018  69.295  1.00  0.00     0.000 HD 
HETATM   12  O   UNL     1      -6.643   5.558  72.082  1.00  0.00    -0.053 OA 
HETATM   13  N   UNL     1      -6.901   6.950  70.287  1.00  0.00    -0.056 N  
BRANCH  13  14
HETATM   14  C   UNL     1      -6.445   8.132  70.994  1.00  0.00    -0.038 C  
BRANCH  14  15
HETATM   15  C   UNL     1      -7.555   9.162  71.239  1.00  0.00    -0.064 C  
BRANCH  15  16
HETATM   16  C   UNL     1      -8.277   9.660  70.000  1.00  0.00    -0.197 A  
HETATM   17  C   UNL     1      -9.602   9.315  69.691  1.00  0.00    -0.192 A  
HETATM   18  C   UNL     1     -10.199   9.739  68.500  1.00  0.00    -0.209 A  
HETATM   19  C   UNL     1      -9.477  10.526  67.605  1.00  0.00    -0.149 A  
HETATM   20  C   UNL     1      -7.577  10.485  69.102  1.00  0.00    -0.123 A  
HETATM   21  C   UNL     1      -8.166  10.905  67.904  1.00  0.00    -0.114 A  
BRANCH  19  22
HETATM   22  S   UNL     1     -10.182  10.913  66.017  1.00  0.00    -0.253 S  
HETATM   23  O   UNL     1     -10.534   9.655  65.388  1.00  0.00     0.084 OA 
HETATM   24  O   UNL     1      -9.327  11.858  65.336  1.00  0.00    -0.164 OA 
BRANCH  22  25
HETATM   25  N   UNL     1     -11.636  11.638  66.370  1.00  0.00    -0.181 N  
HETATM   26  H   UNL     1     -12.304  11.119  66.940  1.00  0.00     0.000 HD 
BRANCH  25  27
HETATM   27  C   UNL     1     -11.994  12.903  65.938  1.00  0.00    -0.448 C  
HETATM   28  O   UNL     1     -12.878  13.103  65.126  1.00  0.00    -0.669 OA 
BRANCH  27  29
HETATM   29  N   UNL     1     -11.242  13.897  66.503  1.00  0.00    -0.315 N  
HETATM   30  H   UNL     1     -10.976  14.712  65.951  1.00  0.00     0.000 HD 
BRANCH  29  31
HETATM   31  C   UNL     1     -10.824  13.788  67.894  1.00  0.00    -0.244 C  
HETATM   32  C   UNL     1      -9.382  14.267  68.089  1.00  0.00    -0.206 C  
HETATM   33  C   UNL     1      -9.249  15.787  68.025  1.00  0.00    -0.188 C  
HETATM   34  C   UNL     1     -10.201  16.469  69.001  1.00  0.00    -0.285 C  
HETATM   35  C   UNL     1     -11.646  16.036  68.775  1.00  0.00    -0.352 C  
HETATM   36  C   UNL     1     -11.796  14.517  68.825  1.00  0.00    -0.350 C  
ENDBRANCH  29  31
ENDBRANCH  27  29
ENDBRANCH  25  27
ENDBRANCH  22  25
ENDBRANCH  19  22
ENDBRANCH  15  16
ENDBRANCH  14  15
ENDBRANCH  13  14
ENDBRANCH   4  10
ENDBRANCH   2   3
TORSDOF 10
ENDMDL
MODEL      291
REMARK 921   NORMALIZED FREE ENERGY PREDICTED BY IDOCK:   -3.47 KCAL/MOL
REMARK 922        TOTAL FREE ENERGY PREDICTED BY IDOCK:   -7.47 KCAL/MOL
REMARK 923 INTER-LIGAND FREE ENERGY PREDICTED BY IDOCK:   -6.22 KCAL/MOL
REMARK 924 INTRA-LIGAND FREE ENERGY PREDICTED BY IDOCK:   -1.24 KCAL/MOL
REMARK 927      BINDING AFFINITY PREDICTED BY RF-SCORE:    0.00 PKD
ROOT
HETATM    1  C   UNL     1     -10.018   8.338  66.542  1.00  0.00    -0.250 C  
HETATM    2  O   UNL     1      -8.866   7.594  66.148  1.00  0.00    -0.155 OA 
ENDROOT
BRANCH   2   3
HETATM    3  C   UNL     1      -8.871   6.266  66.485  1.00  0.00    -0.138 A  
HETATM    4  C   UNL     1      -7.688   5.674  66.975  1.00  0.00    -0.101 A  
HETATM    5  C   UNL     1      -7.689   4.308  67.311  1.00  0.00    -0.081 A  
HETATM    6  C   UNL     1     -10.002   5.462  66.270  1.00  0.00    -0.199 A  
HETATM    7 CL   UNL     1      -8.802   1.855  67.478  1.00  0.00    -0.134 Cl 
HETATM    8  C   UNL     1      -9.979   4.100  66.569  1.00  0.00    -0.165 A  
HETATM    9  C   UNL     1      -8.828   3.533  67.099  1.00  0.00    -0.131 A  
BRANCH   4  10
HETATM   10  C   UNL     1      -6.428   6.468  67.161  1.00  0.00    -0.042 C  
HETATM   11  H   UNL     1      -7.366   7.709  68.553  1.00  0.00     0.000 HD 
HETATM   12  O   UNL     1      -5.416   6.236  66.512  1.00  0.00    -0.012 OA 
HETATM   13  N   UNL     1      -6.474   7.474  68.117  1.00  0.00    -0.048 N  
BRANCH  13  14
HETATM   14  C   UNL     1      -5.278   8.197  68.509  1.00  0.00    -0.032 C  
BRANCH  14  15
HETATM   15  C   UNL     1      -5.533   9.261  69.582  1.00  0.00    -0.034 C  
BRANCH  15  16
HETATM   16  C   UNL     1      -6.265  10.507  69.114  1.00  0.00    -0.045 A  
HETATM   17  C   UNL     1      -6.153  11.751  69.757  1.00  0.00    -0.136 A  
HETATM   18  C   UNL     1      -6.905  12.851  69.333  1.00  0.00     0.040 A  
HETATM   19  C   UNL     1      -7.772  12.722  68.249  1.00  0.00    -0.136 A  
HETATM   20  C   UNL     1      -7.117  10.407  68.001  1.00  0.00    -0.082 A  
HETATM   21  C   UNL     1      -7.878  11.501  67.578  1.00  0.00    -0.133 A  
BRANCH  19  22
HETATM   22  S   UNL     1      -8.850  14.074  67.828  1.00  0.00    -0.200 S  
HETATM   23  O   UNL     1      -9.474  13.745  66.560  1.00  0.00    -0.276 OA 
HETATM   24  O   UNL     1      -8.136  15.319  67.991  1.00  0.00    -0.131 OA 
BRANCH  22  25
HETATM   25  N   UNL     1     -10.080  13.991  68.944  1.00  0.00    -0.383 N  
HETATM   26  H   UNL     1     -10.043  14.623  69.744  1.00  0.00     0.000 HD 
BRANCH  25  27
HETATM   27  C   UNL     1     -11.150  13.118  68.853  1.00  0.00    -0.266 C  
HETATM   28  O   UNL     1     -12.031  13.230  68.022  1.00  0.00    -0.350 OA 
BRANCH  27  29
HETATM   29  N   UNL     1     -11.121  12.133  69.802  1.00  0.00    -0.477 N  
HETATM   30  H   UNL     1     -10.764  12.333  70.736  1.00  0.00     0.000 HD 
BRANCH  29  31
HETATM   31  C   UNL     1     -11.601  10.797  69.475  1.00  0.00    -0.303 C  
HETATM   32  C   UNL     1     -10.528   9.733  69.729  1.00  0.00    -0.278 C  
HETATM   33  C   UNL     1     -10.320   9.444  71.214  1.00  0.00    -0.363 C  
HETATM   34  C   UNL     1     -11.633   9.087  71.899  1.00  0.00    -0.441 C  
HETATM   35  C   UNL     1     -12.688  10.169  71.696  1.00  0.00    -0.549 C  
HETATM   36  C   UNL     1     -12.902  10.478  70.216  1.00  0.00    -0.192 C  
ENDBRANCH  29  31
ENDBRANCH  27  29
ENDBRANCH  25  27
ENDBRANCH  22  25
ENDBRANCH  19  22
ENDBRANCH  15  16
ENDBRANCH  14  15
ENDBRANCH  13  14
ENDBRANCH   4  10
ENDBRANCH   2   3
TORSDOF 10
ENDMDL
MODEL      292
REMARK 921   NORMALIZED FREE ENERGY PREDICTED BY IDOCK:   -3.46 KCAL/MOL
REMARK 922        TOTAL FREE ENERGY PREDICTED BY IDOCK:   -7.45 KCAL/MOL
REMARK 923 INTER-LIGAND FREE ENERGY PREDICTED BY IDOCK:   -7.11 KCAL/MOL
REMARK 924 INTRA-LIGAND FREE ENERGY PREDICTED BY IDOCK:   -0.34 KCAL/MOL
REMARK 927      BINDING AFFINITY PREDICTED BY RF-SCORE:    0.00 PKD
ROOT
HETATM    1  C   UNL     1     -11.001  14.360  69.560  1.00  0.00    -0.197 C  
HETATM    2  O   UNL     1     -12.015  13.531  68.995  1.00  0.00    -0.327 OA 
ENDROOT
BRANCH   2   3
HETATM    3  C   UNL     1     -11.971  13.381  67.633  1.00  0.00    -0.322 A  
HETATM    4  C   UNL     1     -11.646  12.120  67.088  1.00  0.00    -0.405 A  
HETATM    5  C   UNL     1     -11.589  11.969  65.691  1.00  0.00    -0.356 A  
HETATM    6  C   UNL     1     -12.154  14.474  66.771  1.00  0.00    -0.313 A  
HETATM    7 CL   UNL     1     -11.675  12.874  63.150  1.00  0.00    -0.407 Cl 
HETATM    8  C   UNL     1     -12.056  14.319  65.389  1.00  0.00    -0.396 A  
HETATM    9  C   UNL     1     -11.786  13.066  64.855  1.00  0.00    -0.341 A  
BRANCH   4  10
HETATM   10  C   UNL     1     -11.371  10.931  67.961  1.00  0.00    -0.312 C  
HETATM   11  H   UNL     1     -11.482  12.114  69.678  1.00  0.00     0.000 HD 
HETATM   12  O   UNL     1     -11.142   9.824  67.492  1.00  0.00    -0.234 OA 
HETATM   13  N   UNL     1     -11.401  11.158  69.331  1.00  0.00    -0.257 N  
BRANCH  13  14
HETATM   14  C   UNL     1     -11.320  10.061  70.278  1.00  0.00    -0.308 C  
BRANCH  14  15
HETATM   15  C   UNL     1      -9.887   9.574  70.525  1.00  0.00    -0.331 C  
BRANCH  15  16
HETATM   16  C   UNL     1      -9.631   8.105  70.237  1.00  0.00    -0.171 A  
HETATM   17  C   UNL     1      -8.356   7.588  69.959  1.00  0.00    -0.136 A  
HETATM   18  C   UNL     1      -8.181   6.241  69.627  1.00  0.00    -0.124 A  
HETATM   19  C   UNL     1      -9.284   5.390  69.578  1.00  0.00    -0.117 A  
HETATM   20  C   UNL     1     -10.726   7.224  70.219  1.00  0.00    -0.252 A  
HETATM   21  C   UNL     1     -10.559   5.878  69.878  1.00  0.00    -0.370 A  
BRANCH  19  22
HETATM   22  S   UNL     1      -9.077   3.725  68.985  1.00  0.00    -0.151 S  
HETATM   23  O   UNL     1      -9.722   2.847  69.943  1.00  0.00    -0.085 OA 
HETATM   24  O   UNL     1      -7.695   3.520  68.620  1.00  0.00    -0.056 OA 
BRANCH  22  25
HETATM   25  N   UNL     1     -10.027   3.645  67.623  1.00  0.00    -0.103 N  
HETATM   26  H   UNL     1     -10.789   2.967  67.610  1.00  0.00     0.000 HD 
BRANCH  25  27
HETATM   27  C   UNL     1      -9.846   4.442  66.506  1.00  0.00    -0.229 C  
HETATM   28  O   UNL     1     -10.567   5.385  66.238  1.00  0.00    -0.260 OA 
BRANCH  27  29
HETATM   29  N   UNL     1      -8.790   4.049  65.731  1.00  0.00    -0.119 N  
HETATM   30  H   UNL     1      -7.859   3.964  66.140  1.00  0.00     0.000 HD 
BRANCH  29  31
HETATM   31  C   UNL     1      -8.997   3.751  64.320  1.00  0.00    -0.124 C  
HETATM   32  C   UNL     1      -8.659   4.954  63.433  1.00  0.00    -0.128 C  
HETATM   33  C   UNL     1      -7.157   5.191  63.305  1.00  0.00    -0.047 C  
HETATM   34  C   UNL     1      -6.434   3.933  62.837  1.00  0.00    -0.022 C  
HETATM   35  C   UNL     1      -6.723   2.745  63.749  1.00  0.00    -0.032 C  
HETATM   36  C   UNL     1      -8.222   2.499  63.898  1.00  0.00    -0.082 C  
ENDBRANCH  29  31
ENDBRANCH  27  29
ENDBRANCH  25  27
ENDBRANCH  22  25
ENDBRANCH  19  22
ENDBRANCH  15  16
ENDBRANCH  14  15
ENDBRANCH  13  14
ENDBRANCH   4  10
ENDBRANCH   2   3
TORSDOF 10
ENDMDL
MODEL      293
REMARK 921   NORMALIZED FREE ENERGY PREDICTED BY IDOCK:   -3.36 KCAL/MOL
REMARK 922        TOTAL FREE ENERGY PREDICTED BY IDOCK:   -7.30 KCAL/MOL
REMARK 923 INTER-LIGAND FREE ENERGY PREDICTED BY IDOCK:   -5.83 KCAL/MOL
REMARK 924 INTRA-LIGAND FREE ENERGY PREDICTED BY IDOCK:   -1.47 KCAL/MOL
REMARK 927      BINDING AFFINITY PREDICTED BY RF-SCORE:    0.00 PKD
ROOT
HETATM    1  C   UNL     1     -10.398   7.867  66.895  1.00  0.00    -0.330 C  
HETATM    2  O   UNL     1      -9.758   9.123  66.673  1.00  0.00    -0.184 OA 
ENDROOT
BRANCH   2   3
HETATM    3  C   UNL     1      -8.781   9.132  65.712  1.00  0.00    -0.165 A  
HETATM    4  C   UNL     1      -7.828  10.173  65.707  1.00  0.00    -0.139 A  
HETATM    5  C   UNL     1      -6.831  10.189  64.714  1.00  0.00    -0.121 A  
HETATM    6  C   UNL     1      -8.761   8.179  64.681  1.00  0.00     0.133 A  
HETATM    7 CL   UNL     1      -5.624   9.281  62.478  1.00  0.00    -0.085 Cl 
HETATM    8  C   UNL     1      -7.792   8.229  63.680  1.00  0.00    -0.152 A  
HETATM    9  C   UNL     1      -6.826   9.226  63.707  1.00  0.00    -0.092 A  
BRANCH   4  10
HETATM   10  C   UNL     1      -7.841  11.258  66.744  1.00  0.00    -0.155 C  
HETATM   11  H   UNL     1      -9.667  11.976  66.030  1.00  0.00     0.000 HD 
HETATM   12  O   UNL     1      -6.912  11.415  67.526  1.00  0.00    -0.088 OA 
HETATM   13  N   UNL     1      -8.970  12.066  66.770  1.00  0.00    -0.195 N  
BRANCH  13  14
HETATM   14  C   UNL     1      -9.177  13.037  67.828  1.00  0.00    -0.200 C  
BRANCH  14  15
HETATM   15  C   UNL     1     -10.550  12.920  68.502  1.00  0.00    -0.270 C  
BRANCH  15  16
HETATM   16  C   UNL     1     -10.806  11.627  69.255  1.00  0.00    -0.203 A  
HETATM   17  C   UNL     1     -12.071  11.260  69.744  1.00  0.00    -0.394 A  
HETATM   18  C   UNL     1     -12.242  10.094  70.496  1.00  0.00    -0.352 A  
HETATM   19  C   UNL     1     -11.147   9.272  70.761  1.00  0.00    -0.285 A  
HETATM   20  C   UNL     1      -9.722  10.767  69.502  1.00  0.00    -0.015 A  
HETATM   21  C   UNL     1      -9.885   9.605  70.262  1.00  0.00    -0.321 A  
BRANCH  19  22
HETATM   22  S   UNL     1     -11.340   7.889  71.863  1.00  0.00    -0.295 S  
HETATM   23  O   UNL     1     -12.707   7.917  72.349  1.00  0.00    -0.207 OA 
HETATM   24  O   UNL     1     -10.234   7.864  72.792  1.00  0.00    -0.262 OA 
BRANCH  22  25
HETATM   25  N   UNL     1     -11.264   6.553  70.876  1.00  0.00    -0.293 N  
HETATM   26  H   UNL     1     -12.070   6.346  70.287  1.00  0.00     0.000 HD 
BRANCH  25  27
HETATM   27  C   UNL     1     -10.172   5.706  70.805  1.00  0.00    -0.227 C  
HETATM   28  O   UNL     1      -9.706   5.139  71.775  1.00  0.00    -0.151 OA 
BRANCH  27  29
HETATM   29  N   UNL     1      -9.665   5.588  69.540  1.00  0.00    -0.149 N  
HETATM   30  H   UNL     1     -10.052   6.148  68.780  1.00  0.00     0.000 HD 
BRANCH  29  31
HETATM   31  C   UNL     1      -8.571   4.662  69.280  1.00  0.00    -0.082 C  
HETATM   32  C   UNL     1      -8.952   3.619  68.224  1.00  0.00    -0.173 C  
HETATM   33  C   UNL     1      -8.984   4.193  66.810  1.00  0.00    -0.131 C  
HETATM   34  C   UNL     1      -7.671   4.886  66.462  1.00  0.00    -0.095 C  
HETATM   35  C   UNL     1      -7.315   5.963  67.481  1.00  0.00    -0.077 C  
HETATM   36  C   UNL     1      -7.288   5.409  68.904  1.00  0.00    -0.070 C  
ENDBRANCH  29  31
ENDBRANCH  27  29
ENDBRANCH  25  27
ENDBRANCH  22  25
ENDBRANCH  19  22
ENDBRANCH  15  16
ENDBRANCH  14  15
ENDBRANCH  13  14
ENDBRANCH   4  10
ENDBRANCH   2   3
TORSDOF 10
ENDMDL
MODEL      294
REMARK 921   NORMALIZED FREE ENERGY PREDICTED BY IDOCK:   -3.36 KCAL/MOL
REMARK 922        TOTAL FREE ENERGY PREDICTED BY IDOCK:   -7.30 KCAL/MOL
REMARK 923 INTER-LIGAND FREE ENERGY PREDICTED BY IDOCK:   -6.32 KCAL/MOL
REMARK 924 INTRA-LIGAND FREE ENERGY PREDICTED BY IDOCK:   -0.97 KCAL/MOL
REMARK 927      BINDING AFFINITY PREDICTED BY RF-SCORE:    0.00 PKD
ROOT
HETATM    1  C   UNL     1      -7.688   7.978  63.579  1.00  0.00    -0.140 C  
HETATM    2  O   UNL     1      -7.237   6.628  63.685  1.00  0.00    -0.055 OA 
ENDROOT
BRANCH   2   3
HETATM    3  C   UNL     1      -8.212   5.667  63.609  1.00  0.00    -0.090 A  
HETATM    4  C   UNL     1      -8.881   5.269  64.786  1.00  0.00    -0.066 A  
HETATM    5  C   UNL     1      -9.874   4.274  64.710  1.00  0.00    -0.167 A  
HETATM    6  C   UNL     1      -8.496   5.009  62.402  1.00  0.00    -0.108 A  
HETATM    7 CL   UNL     1     -11.335   2.403  63.428  1.00  0.00    -0.005 Cl 
HETATM    8  C   UNL     1      -9.454   3.997  62.347  1.00  0.00    -0.116 A  
HETATM    9  C   UNL     1     -10.146   3.643  63.498  1.00  0.00    -0.194 A  
BRANCH   4  10
HETATM   10  C   UNL     1      -8.571   5.888  66.117  1.00  0.00    -0.137 C  
HETATM   11  H   UNL     1     -10.097   7.291  65.867  1.00  0.00     0.000 HD 
HETATM   12  O   UNL     1      -7.640   5.498  66.809  1.00  0.00    -0.086 OA 
HETATM   13  N   UNL     1      -9.407   6.921  66.520  1.00  0.00    -0.163 N  
BRANCH  13  14
HETATM   14  C   UNL     1      -9.316   7.485  67.855  1.00  0.00    -0.138 C  
BRANCH  14  15
HETATM   15  C   UNL     1      -7.984   8.194  68.127  1.00  0.00    -0.127 C  
BRANCH  15  16
HETATM   16  C   UNL     1      -7.980   9.697  67.907  1.00  0.00    -0.098 A  
HETATM   17  C   UNL     1      -6.879  10.395  67.384  1.00  0.00    -0.076 A  
HETATM   18  C   UNL     1      -6.897  11.788  67.270  1.00  0.00    -0.134 A  
HETATM   19  C   UNL     1      -8.026  12.502  67.668  1.00  0.00    -0.170 A  
HETATM   20  C   UNL     1      -9.122  10.431  68.269  1.00  0.00    -0.145 A  
HETATM   21  C   UNL     1      -9.143  11.826  68.166  1.00  0.00    -0.185 A  
BRANCH  19  22
HETATM   22  S   UNL     1      -7.973  14.280  67.683  1.00  0.00    -0.195 S  
HETATM   23  O   UNL     1      -6.586  14.669  67.514  1.00  0.00    -0.220 OA 
HETATM   24  O   UNL     1      -8.737  14.769  68.808  1.00  0.00    -0.172 OA 
BRANCH  22  25
HETATM   25  N   UNL     1      -8.721  14.733  66.269  1.00  0.00    -0.449 N  
HETATM   26  H   UNL     1      -8.917  14.009  65.578  1.00  0.00     0.000 HD 
BRANCH  25  27
HETATM   27  C   UNL     1      -9.093  16.033  65.973  1.00  0.00    -0.326 C  
HETATM   28  O   UNL     1     -10.072  16.309  65.305  1.00  0.00    -0.528 OA 
BRANCH  27  29
HETATM   29  N   UNL     1      -8.239  16.968  66.492  1.00  0.00    -0.252 N  
HETATM   30  H   UNL     1      -7.231  16.857  66.379  1.00  0.00     0.000 HD 
BRANCH  29  31
HETATM   31  C   UNL     1      -8.772  18.121  67.205  1.00  0.00    -0.248 C  
HETATM   32  C   UNL     1      -7.877  18.521  68.382  1.00  0.00    -0.332 C  
HETATM   33  C   UNL     1      -6.592  19.216  67.938  1.00  0.00    -0.244 C  
HETATM   34  C   UNL     1      -6.888  20.406  67.033  1.00  0.00    -0.311 C  
HETATM   35  C   UNL     1      -7.734  20.002  65.830  1.00  0.00    -0.298 C  
HETATM   36  C   UNL     1      -9.020  19.295  66.254  1.00  0.00    -0.347 C  
ENDBRANCH  29  31
ENDBRANCH  27  29
ENDBRANCH  25  27
ENDBRANCH  22  25
ENDBRANCH  19  22
ENDBRANCH  15  16
ENDBRANCH  14  15
ENDBRANCH  13  14
ENDBRANCH   4  10
ENDBRANCH   2   3
TORSDOF 10
ENDMDL
MODEL      295
REMARK 921   NORMALIZED FREE ENERGY PREDICTED BY IDOCK:   -3.36 KCAL/MOL
REMARK 922        TOTAL FREE ENERGY PREDICTED BY IDOCK:   -7.29 KCAL/MOL
REMARK 923 INTER-LIGAND FREE ENERGY PREDICTED BY IDOCK:   -6.22 KCAL/MOL
REMARK 924 INTRA-LIGAND FREE ENERGY PREDICTED BY IDOCK:   -1.07 KCAL/MOL
REMARK 927      BINDING AFFINITY PREDICTED BY RF-SCORE:    0.00 PKD
ROOT
HETATM    1  C   UNL     1      -8.345   8.896  66.005  1.00  0.00    -0.124 C  
HETATM    2  O   UNL     1      -8.062  10.233  65.593  1.00  0.00    -0.142 OA 
ENDROOT
BRANCH   2   3
HETATM    3  C   UNL     1      -9.135  11.084  65.557  1.00  0.00    -0.207 A  
HETATM    4  C   UNL     1      -9.125  12.242  66.364  1.00  0.00    -0.158 A  
HETATM    5  C   UNL     1     -10.231  13.110  66.335  1.00  0.00    -0.286 A  
HETATM    6  C   UNL     1     -10.281  10.784  64.803  1.00  0.00    -0.403 A  
HETATM    7 CL   UNL     1     -12.713  13.848  65.576  1.00  0.00    -0.559 Cl 
HETATM    8  C   UNL     1     -11.388  11.632  64.814  1.00  0.00    -0.270 A  
HETATM    9  C   UNL     1     -11.353  12.796  65.570  1.00  0.00    -0.312 A  
BRANCH   4  10
HETATM   10  C   UNL     1      -7.957  12.580  67.243  1.00  0.00    -0.173 C  
HETATM   11  H   UNL     1      -8.864  11.651  68.877  1.00  0.00     0.000 HD 
HETATM   12  O   UNL     1      -7.009  13.238  66.833  1.00  0.00     0.101 OA 
HETATM   13  N   UNL     1      -8.009  12.095  68.543  1.00  0.00    -0.141 N  
BRANCH  13  14
HETATM   14  C   UNL     1      -6.870  12.208  69.435  1.00  0.00    -0.010 C  
BRANCH  14  15
HETATM   15  C   UNL     1      -6.123  10.885  69.642  1.00  0.00    -0.075 C  
BRANCH  15  16
HETATM   16  C   UNL     1      -6.840   9.850  70.491  1.00  0.00    -0.122 A  
HETATM   17  C   UNL     1      -8.204   9.547  70.344  1.00  0.00    -0.220 A  
HETATM   18  C   UNL     1      -8.836   8.640  71.200  1.00  0.00    -0.249 A  
HETATM   19  C   UNL     1      -8.106   8.013  72.209  1.00  0.00    -0.138 A  
HETATM   20  C   UNL     1      -6.113   9.181  71.490  1.00  0.00    -0.076 A  
HETATM   21  C   UNL     1      -6.742   8.279  72.355  1.00  0.00    -0.095 A  
BRANCH  19  22
HETATM   22  S   UNL     1      -8.955   6.998  73.398  1.00  0.00    -0.153 S  
HETATM   23  O   UNL     1     -10.240   7.620  73.653  1.00  0.00    -0.320 OA 
HETATM   24  O   UNL     1      -8.058   6.697  74.491  1.00  0.00    -0.120 OA 
BRANCH  22  25
HETATM   25  N   UNL     1      -9.312   5.598  72.575  1.00  0.00    -0.143 N  
HETATM   26  H   UNL     1      -8.554   4.938  72.402  1.00  0.00     0.000 HD 
BRANCH  25  27
HETATM   27  C   UNL     1     -10.575   5.276  72.110  1.00  0.00    -0.221 C  
HETATM   28  O   UNL     1     -11.507   5.011  72.845  1.00  0.00    -0.281 OA 
BRANCH  27  29
HETATM   29  N   UNL     1     -10.659   5.269  70.744  1.00  0.00    -0.225 N  
HETATM   30  H   UNL     1     -11.557   5.107  70.288  1.00  0.00     0.000 HD 
BRANCH  29  31
HETATM   31  C   UNL     1      -9.463   5.493  69.943  1.00  0.00    -0.157 C  
HETATM   32  C   UNL     1      -8.833   4.173  69.486  1.00  0.00    -0.139 C  
HETATM   33  C   UNL     1      -9.622   3.496  68.369  1.00  0.00    -0.154 C  
HETATM   34  C   UNL     1      -9.847   4.442  67.195  1.00  0.00    -0.217 C  
HETATM   35  C   UNL     1     -10.524   5.735  67.635  1.00  0.00    -0.299 C  
HETATM   36  C   UNL     1      -9.754   6.422  68.761  1.00  0.00    -0.135 C  
ENDBRANCH  29  31
ENDBRANCH  27  29
ENDBRANCH  25  27
ENDBRANCH  22  25
ENDBRANCH  19  22
ENDBRANCH  15  16
ENDBRANCH  14  15
ENDBRANCH  13  14
ENDBRANCH   4  10
ENDBRANCH   2   3
TORSDOF 10
ENDMDL
MODEL      296
REMARK 921   NORMALIZED FREE ENERGY PREDICTED BY IDOCK:   -3.32 KCAL/MOL
REMARK 922        TOTAL FREE ENERGY PREDICTED BY IDOCK:   -7.23 KCAL/MOL
REMARK 923 INTER-LIGAND FREE ENERGY PREDICTED BY IDOCK:   -6.28 KCAL/MOL
REMARK 924 INTRA-LIGAND FREE ENERGY PREDICTED BY IDOCK:   -0.95 KCAL/MOL
REMARK 927      BINDING AFFINITY PREDICTED BY RF-SCORE:    0.00 PKD
ROOT
HETATM    1  C   UNL     1      -6.750   9.681  70.087  1.00  0.00    -0.089 C  
HETATM    2  O   UNL     1      -5.812   9.142  69.156  1.00  0.00    -0.036 OA 
ENDROOT
BRANCH   2   3
HETATM    3  C   UNL     1      -6.320   8.800  67.930  1.00  0.00    -0.056 A  
HETATM    4  C   UNL     1      -6.678   7.458  67.680  1.00  0.00    -0.066 A  
HETATM    5  C   UNL     1      -7.188   7.106  66.418  1.00  0.00    -0.078 A  
HETATM    6  C   UNL     1      -6.408   9.739  66.889  1.00  0.00    -0.065 A  
HETATM    7 CL   UNL     1      -7.865   7.602  63.853  1.00  0.00    -0.129 Cl 
HETATM    8  C   UNL     1      -6.877   9.368  65.629  1.00  0.00    -0.078 A  
HETATM    9  C   UNL     1      -7.276   8.057  65.403  1.00  0.00    -0.064 A  
BRANCH   4  10
HETATM   10  C   UNL     1      -6.541   6.397  68.733  1.00  0.00    -0.051 C  
HETATM   11  H   UNL     1      -8.514   6.695  69.348  1.00  0.00     0.000 HD 
HETATM   12  O   UNL     1      -5.483   5.815  68.929  1.00  0.00    -0.009 OA 
HETATM   13  N   UNL     1      -7.686   6.110  69.464  1.00  0.00    -0.097 N  
BRANCH  13  14
HETATM   14  C   UNL     1      -7.728   4.992  70.389  1.00  0.00    -0.070 C  
BRANCH  14  15
HETATM   15  C   UNL     1      -8.753   5.172  71.515  1.00  0.00    -0.141 C  
BRANCH  15  16
HETATM   16  C   UNL     1      -9.681   6.366  71.377  1.00  0.00    -0.187 A  
HETATM   17  C   UNL     1      -9.575   7.518  72.173  1.00  0.00    -0.190 A  
HETATM   18  C   UNL     1     -10.500   8.560  72.059  1.00  0.00    -0.407 A  
HETATM   19  C   UNL     1     -11.539   8.467  71.135  1.00  0.00    -0.281 A  
HETATM   20  C   UNL     1     -10.714   6.307  70.426  1.00  0.00    -0.329 A  
HETATM   21  C   UNL     1     -11.648   7.342  70.314  1.00  0.00    -0.155 A  
BRANCH  19  22
HETATM   22  S   UNL     1     -12.808   9.715  71.119  1.00  0.00    -0.289 S  
HETATM   23  O   UNL     1     -12.391  10.760  72.036  1.00  0.00    -0.070 OA 
HETATM   24  O   UNL     1     -14.098   9.082  71.269  1.00  0.00    -0.302 OA 
BRANCH  22  25
HETATM   25  N   UNL     1     -12.701  10.402  69.609  1.00  0.00    -0.456 N  
HETATM   26  H   UNL     1     -13.531  10.388  69.017  1.00  0.00     0.000 HD 
BRANCH  25  27
HETATM   27  C   UNL     1     -11.553  10.991  69.107  1.00  0.00    -0.319 C  
HETATM   28  O   UNL     1     -10.502  11.027  69.719  1.00  0.00    -0.115 OA 
BRANCH  27  29
HETATM   29  N   UNL     1     -11.730  11.541  67.867  1.00  0.00    -0.281 N  
HETATM   30  H   UNL     1     -11.713  10.947  67.038  1.00  0.00     0.000 HD 
BRANCH  29  31
HETATM   31  C   UNL     1     -11.942  12.976  67.734  1.00  0.00    -0.295 C  
HETATM   32  C   UNL     1     -10.765  13.776  68.300  1.00  0.00    -0.264 C  
HETATM   33  C   UNL     1      -9.533  13.735  67.398  1.00  0.00    -0.224 C  
HETATM   34  C   UNL     1      -9.871  14.169  65.976  1.00  0.00    -0.329 C  
HETATM   35  C   UNL     1     -11.006  13.339  65.388  1.00  0.00    -0.299 C  
HETATM   36  C   UNL     1     -12.244  13.360  66.282  1.00  0.00    -0.456 C  
ENDBRANCH  29  31
ENDBRANCH  27  29
ENDBRANCH  25  27
ENDBRANCH  22  25
ENDBRANCH  19  22
ENDBRANCH  15  16
ENDBRANCH  14  15
ENDBRANCH  13  14
ENDBRANCH   4  10
ENDBRANCH   2   3
TORSDOF 10
ENDMDL
MODEL      297
REMARK 921   NORMALIZED FREE ENERGY PREDICTED BY IDOCK:   -3.32 KCAL/MOL
REMARK 922        TOTAL FREE ENERGY PREDICTED BY IDOCK:   -7.23 KCAL/MOL
REMARK 923 INTER-LIGAND FREE ENERGY PREDICTED BY IDOCK:   -5.63 KCAL/MOL
REMARK 924 INTRA-LIGAND FREE ENERGY PREDICTED BY IDOCK:   -1.60 KCAL/MOL
REMARK 927      BINDING AFFINITY PREDICTED BY RF-SCORE:    0.00 PKD
ROOT
HETATM    1  C   UNL     1      -8.214  14.123  67.292  1.00  0.00    -0.181 C  
HETATM    2  O   UNL     1      -8.786  12.894  66.845  1.00  0.00    -0.213 OA 
ENDROOT
BRANCH   2   3
HETATM    3  C   UNL     1      -8.170  11.754  67.290  1.00  0.00    -0.163 A  
HETATM    4  C   UNL     1      -8.841  10.922  68.211  1.00  0.00    -0.140 A  
HETATM    5  C   UNL     1      -8.205   9.757  68.677  1.00  0.00    -0.106 A  
HETATM    6  C   UNL     1      -6.852  11.443  66.919  1.00  0.00    -0.142 A  
HETATM    7 CL   UNL     1      -6.121   8.056  68.894  1.00  0.00    -0.038 Cl 
HETATM    8  C   UNL     1      -6.217  10.306  67.419  1.00  0.00    -0.058 A  
HETATM    9  C   UNL     1      -6.900   9.464  68.285  1.00  0.00    -0.063 A  
BRANCH   4  10
HETATM   10  C   UNL     1     -10.225  11.240  68.698  1.00  0.00    -0.203 C  
HETATM   11  H   UNL     1     -10.641   9.212  68.969  1.00  0.00     0.000 HD 
HETATM   12  O   UNL     1     -10.651  12.387  68.729  1.00  0.00    -0.227 OA 
HETATM   13  N   UNL     1     -10.989  10.159  69.118  1.00  0.00    -0.226 N  
BRANCH  13  14
HETATM   14  C   UNL     1     -12.274  10.352  69.765  1.00  0.00    -0.097 C  
BRANCH  14  15
HETATM   15  C   UNL     1     -12.264   9.998  71.257  1.00  0.00    -0.498 C  
BRANCH  15  16
HETATM   16  C   UNL     1     -11.295   8.904  71.668  1.00  0.00    -0.407 A  
HETATM   17  C   UNL     1     -11.709   7.630  72.091  1.00  0.00    -0.355 A  
HETATM   18  C   UNL     1     -10.781   6.681  72.531  1.00  0.00    -0.259 A  
HETATM   19  C   UNL     1      -9.422   6.991  72.541  1.00  0.00    -0.142 A  
HETATM   20  C   UNL     1      -9.919   9.185  71.651  1.00  0.00    -0.319 A  
HETATM   21  C   UNL     1      -8.987   8.243  72.098  1.00  0.00    -0.274 A  
BRANCH  19  22
HETATM   22  S   UNL     1      -8.270   5.844  73.264  1.00  0.00    -0.115 S  
HETATM   23  O   UNL     1      -9.038   4.924  74.081  1.00  0.00    -0.112 OA 
HETATM   24  O   UNL     1      -7.164   6.578  73.834  1.00  0.00    -0.085 OA 
BRANCH  22  25
HETATM   25  N   UNL     1      -7.728   4.932  71.984  1.00  0.00    -0.097 N  
HETATM   26  H   UNL     1      -6.767   5.069  71.672  1.00  0.00     0.000 HD 
BRANCH  25  27
HETATM   27  C   UNL     1      -8.502   3.999  71.317  1.00  0.00    -0.081 C  
HETATM   28  O   UNL     1      -9.356   3.328  71.866  1.00  0.00    -0.109 OA 
BRANCH  27  29
HETATM   29  N   UNL     1      -8.196   3.899  69.987  1.00  0.00    -0.056 N  
HETATM   30  H   UNL     1      -7.223   3.810  69.693  1.00  0.00     0.000 HD 
BRANCH  29  31
HETATM   31  C   UNL     1      -9.261   3.919  68.994  1.00  0.00    -0.153 C  
HETATM   32  C   UNL     1     -10.256   5.054  69.254  1.00  0.00    -0.245 C  
HETATM   33  C   UNL     1      -9.698   6.426  68.885  1.00  0.00    -0.134 C  
HETATM   34  C   UNL     1      -9.188   6.450  67.449  1.00  0.00    -0.117 C  
HETATM   35  C   UNL     1      -8.156   5.355  67.199  1.00  0.00    -0.101 C  
HETATM   36  C   UNL     1      -8.693   3.976  67.573  1.00  0.00    -0.116 C  
ENDBRANCH  29  31
ENDBRANCH  27  29
ENDBRANCH  25  27
ENDBRANCH  22  25
ENDBRANCH  19  22
ENDBRANCH  15  16
ENDBRANCH  14  15
ENDBRANCH  13  14
ENDBRANCH   4  10
ENDBRANCH   2   3
TORSDOF 10
ENDMDL
MODEL      298
REMARK 921   NORMALIZED FREE ENERGY PREDICTED BY IDOCK:   -3.27 KCAL/MOL
REMARK 922        TOTAL FREE ENERGY PREDICTED BY IDOCK:   -7.16 KCAL/MOL
REMARK 923 INTER-LIGAND FREE ENERGY PREDICTED BY IDOCK:   -6.29 KCAL/MOL
REMARK 924 INTRA-LIGAND FREE ENERGY PREDICTED BY IDOCK:   -0.87 KCAL/MOL
REMARK 927      BINDING AFFINITY PREDICTED BY RF-SCORE:    0.00 PKD
ROOT
HETATM    1  C   UNL     1      -5.140  12.507  68.695  1.00  0.00    -0.056 C  
HETATM    2  O   UNL     1      -6.350  12.657  67.954  1.00  0.00    -0.082 OA 
ENDROOT
BRANCH   2   3
HETATM    3  C   UNL     1      -6.957  11.492  67.563  1.00  0.00    -0.102 A  
HETATM    4  C   UNL     1      -8.300  11.525  67.130  1.00  0.00    -0.160 A  
HETATM    5  C   UNL     1      -8.927  10.327  66.740  1.00  0.00    -0.147 A  
HETATM    6  C   UNL     1      -6.301  10.255  67.669  1.00  0.00    -0.058 A  
HETATM    7 CL   UNL     1      -9.043   7.653  66.400  1.00  0.00    -0.201 Cl 
HETATM    8  C   UNL     1      -6.946   9.070  67.317  1.00  0.00    -0.078 A  
HETATM    9  C   UNL     1      -8.251   9.113  66.844  1.00  0.00    -0.116 A  
BRANCH   4  10
HETATM   10  C   UNL     1      -9.074  12.808  67.062  1.00  0.00    -0.220 C  
HETATM   11  H   UNL     1     -10.627  11.866  66.032  1.00  0.00     0.000 HD 
HETATM   12  O   UNL     1      -8.623  13.859  67.499  1.00  0.00    -0.169 OA 
HETATM   13  N   UNL     1     -10.335  12.732  66.485  1.00  0.00    -0.248 N  
BRANCH  13  14
HETATM   14  C   UNL     1     -11.245  13.862  66.513  1.00  0.00    -0.321 C  
BRANCH  14  15
HETATM   15  C   UNL     1     -11.818  14.149  67.906  1.00  0.00    -0.405 C  
BRANCH  15  16
HETATM   16  C   UNL     1     -11.933  12.950  68.831  1.00  0.00    -0.291 A  
HETATM   17  C   UNL     1     -12.053  13.064  70.225  1.00  0.00    -0.388 A  
HETATM   18  C   UNL     1     -12.080  11.929  71.041  1.00  0.00    -0.119 A  
HETATM   19  C   UNL     1     -11.999  10.660  70.468  1.00  0.00    -0.352 A  
HETATM   20  C   UNL     1     -11.888  11.663  68.269  1.00  0.00    -0.335 A  
HETATM   21  C   UNL     1     -11.906  10.523  69.081  1.00  0.00    -0.218 A  
BRANCH  19  22
HETATM   22  S   UNL     1     -11.858   9.234  71.522  1.00  0.00    -0.398 S  
HETATM   23  O   UNL     1     -12.186   8.073  70.717  1.00  0.00    -0.178 OA 
HETATM   24  O   UNL     1     -12.559   9.487  72.760  1.00  0.00    -0.059 OA 
BRANCH  22  25
HETATM   25  N   UNL     1     -10.229   9.098  71.827  1.00  0.00    -0.316 N  
HETATM   26  H   UNL     1      -9.921   9.110  72.799  1.00  0.00     0.000 HD 
BRANCH  25  27
HETATM   27  C   UNL     1      -9.266   8.969  70.841  1.00  0.00    -0.259 C  
HETATM   28  O   UNL     1      -8.508   9.869  70.530  1.00  0.00    -0.153 OA 
BRANCH  27  29
HETATM   29  N   UNL     1      -9.269   7.738  70.245  1.00  0.00    -0.156 N  
HETATM   30  H   UNL     1     -10.128   7.370  69.835  1.00  0.00     0.000 HD 
BRANCH  29  31
HETATM   31  C   UNL     1      -8.043   6.952  70.197  1.00  0.00    -0.127 C  
HETATM   32  C   UNL     1      -7.609   6.495  71.594  1.00  0.00    -0.094 C  
HETATM   33  C   UNL     1      -8.476   5.364  72.142  1.00  0.00    -0.126 C  
HETATM   34  C   UNL     1      -8.542   4.193  71.167  1.00  0.00    -0.112 C  
HETATM   35  C   UNL     1      -9.026   4.634  69.790  1.00  0.00    -0.140 C  
HETATM   36  C   UNL     1      -8.177   5.773  69.230  1.00  0.00    -0.105 C  
ENDBRANCH  29  31
ENDBRANCH  27  29
ENDBRANCH  25  27
ENDBRANCH  22  25
ENDBRANCH  19  22
ENDBRANCH  15  16
ENDBRANCH  14  15
ENDBRANCH  13  14
ENDBRANCH   4  10
ENDBRANCH   2   3
TORSDOF 10
ENDMDL
MODEL      299
REMARK 921   NORMALIZED FREE ENERGY PREDICTED BY IDOCK:   -3.14 KCAL/MOL
REMARK 922        TOTAL FREE ENERGY PREDICTED BY IDOCK:   -6.95 KCAL/MOL
REMARK 923 INTER-LIGAND FREE ENERGY PREDICTED BY IDOCK:   -5.17 KCAL/MOL
REMARK 924 INTRA-LIGAND FREE ENERGY PREDICTED BY IDOCK:   -1.78 KCAL/MOL
REMARK 927      BINDING AFFINITY PREDICTED BY RF-SCORE:    0.00 PKD
ROOT
HETATM    1  C   UNL     1     -11.100   6.595  67.196  1.00  0.00    -0.357 C  
HETATM    2  O   UNL     1      -9.961   7.231  66.618  1.00  0.00    -0.211 OA 
ENDROOT
BRANCH   2   3
HETATM    3  C   UNL     1      -9.851   8.578  66.848  1.00  0.00    -0.242 A  
HETATM    4  C   UNL     1      -8.623   9.224  66.590  1.00  0.00    -0.135 A  
HETATM    5  C   UNL     1      -8.506  10.603  66.837  1.00  0.00    -0.127 A  
HETATM    6  C   UNL     1     -10.905   9.310  67.416  1.00  0.00    -0.165 A  
HETATM    7 CL   UNL     1      -9.400  12.991  67.723  1.00  0.00    -0.192 Cl 
HETATM    8  C   UNL     1     -10.764  10.670  67.693  1.00  0.00    -0.315 A  
HETATM    9  C   UNL     1      -9.570  11.312  67.392  1.00  0.00    -0.169 A  
BRANCH   4  10
HETATM   10  C   UNL     1      -7.439   8.478  66.047  1.00  0.00    -0.085 C  
HETATM   11  H   UNL     1      -8.684   7.242  64.915  1.00  0.00     0.000 HD 
HETATM   12  O   UNL     1      -6.297   8.728  66.409  1.00  0.00    -0.059 OA 
HETATM   13  N   UNL     1      -7.714   7.497  65.105  1.00  0.00    -0.103 N  
BRANCH  13  14
HETATM   14  C   UNL     1      -6.648   6.825  64.383  1.00  0.00    -0.042 C  
BRANCH  14  15
HETATM   15  C   UNL     1      -6.463   5.360  64.795  1.00  0.00    -0.038 C  
BRANCH  15  16
HETATM   16  C   UNL     1      -6.596   5.071  66.280  1.00  0.00    -0.049 A  
HETATM   17  C   UNL     1      -7.758   4.534  66.857  1.00  0.00    -0.094 A  
HETATM   18  C   UNL     1      -7.859   4.356  68.240  1.00  0.00    -0.079 A  
HETATM   19  C   UNL     1      -6.789   4.702  69.064  1.00  0.00    -0.050 A  
HETATM   20  C   UNL     1      -5.515   5.380  67.123  1.00  0.00    -0.012 A  
HETATM   21  C   UNL     1      -5.613   5.212  68.508  1.00  0.00    -0.015 A  
BRANCH  19  22
HETATM   22  S   UNL     1      -6.991   4.636  70.831  1.00  0.00    -0.037 S  
HETATM   23  O   UNL     1      -6.539   5.908  71.361  1.00  0.00    -0.047 OA 
HETATM   24  O   UNL     1      -6.435   3.398  71.326  1.00  0.00    -0.018 OA 
BRANCH  22  25
HETATM   25  N   UNL     1      -8.637   4.636  71.065  1.00  0.00    -0.108 N  
HETATM   26  H   UNL     1      -9.227   4.267  70.319  1.00  0.00     0.000 HD 
BRANCH  25  27
HETATM   27  C   UNL     1      -9.256   5.105  72.210  1.00  0.00    -0.138 C  
HETATM   28  O   UNL     1      -8.780   4.977  73.323  1.00  0.00    -0.112 OA 
BRANCH  27  29
HETATM   29  N   UNL     1     -10.458   5.709  71.963  1.00  0.00    -0.212 N  
HETATM   30  H   UNL     1     -11.247   5.552  72.590  1.00  0.00     0.000 HD 
BRANCH  29  31
HETATM   31  C   UNL     1     -10.610   6.575  70.801  1.00  0.00    -0.231 C  
HETATM   32  C   UNL     1     -12.065   7.016  70.611  1.00  0.00    -0.332 C  
HETATM   33  C   UNL     1     -12.502   8.069  71.626  1.00  0.00    -0.347 C  
HETATM   34  C   UNL     1     -11.554   9.262  71.631  1.00  0.00    -0.463 C  
HETATM   35  C   UNL     1     -10.111   8.835  71.875  1.00  0.00    -0.409 C  
HETATM   36  C   UNL     1      -9.659   7.773  70.875  1.00  0.00    -0.173 C  
ENDBRANCH  29  31
ENDBRANCH  27  29
ENDBRANCH  25  27
ENDBRANCH  22  25
ENDBRANCH  19  22
ENDBRANCH  15  16
ENDBRANCH  14  15
ENDBRANCH  13  14
ENDBRANCH   4  10
ENDBRANCH   2   3
TORSDOF 10
ENDMDL
MODEL      300
REMARK 921   NORMALIZED FREE ENERGY PREDICTED BY IDOCK:   -3.13 KCAL/MOL
REMARK 922        TOTAL FREE ENERGY PREDICTED BY IDOCK:   -6.93 KCAL/MOL
REMARK 923 INTER-LIGAND FREE ENERGY PREDICTED BY IDOCK:   -5.88 KCAL/MOL
REMARK 924 INTRA-LIGAND FREE ENERGY PREDICTED BY IDOCK:   -1.05 KCAL/MOL
REMARK 927      BINDING AFFINITY PREDICTED BY RF-SCORE:    0.00 PKD
ROOT
HETATM    1  C   UNL     1     -12.549  14.696  64.353  1.00  0.00    -0.132 C  
HETATM    2  O   UNL     1     -11.259  14.176  64.034  1.00  0.00    -0.136 OA 
ENDROOT
BRANCH   2   3
HETATM    3  C   UNL     1     -10.452  13.888  65.104  1.00  0.00    -0.393 A  
HETATM    4  C   UNL     1      -9.937  12.582  65.249  1.00  0.00    -0.226 A  
HETATM    5  C   UNL     1      -9.118  12.284  66.353  1.00  0.00    -0.158 A  
HETATM    6  C   UNL     1     -10.200  14.840  66.105  1.00  0.00    -0.310 A  
HETATM    7 CL   UNL     1      -7.901  12.858  68.692  1.00  0.00    -0.090 Cl 
HETATM    8  C   UNL     1      -9.419  14.521  67.216  1.00  0.00    -0.218 A  
HETATM    9  C   UNL     1      -8.873  13.249  67.328  1.00  0.00    -0.216 A  
BRANCH   4  10
HETATM   10  C   UNL     1     -10.229  11.504  64.247  1.00  0.00    -0.311 C  
HETATM   11  H   UNL     1      -8.318  11.689  63.428  1.00  0.00     0.000 HD 
HETATM   12  O   UNL     1     -11.328  10.970  64.176  1.00  0.00    -0.056 OA 
HETATM   13  N   UNL     1      -9.179  11.143  63.413  1.00  0.00    -0.229 N  
BRANCH  13  14
HETATM   14  C   UNL     1      -9.284  10.003  62.521  1.00  0.00    -0.296 C  
BRANCH  14  15
HETATM   15  C   UNL     1      -8.316   8.865  62.870  1.00  0.00    -0.198 C  
BRANCH  15  16
HETATM   16  C   UNL     1      -7.947   8.742  64.338  1.00  0.00    -0.144 A  
HETATM   17  C   UNL     1      -8.695   7.989  65.258  1.00  0.00    -0.062 A  
HETATM   18  C   UNL     1      -8.357   7.966  66.614  1.00  0.00    -0.125 A  
HETATM   19  C   UNL     1      -7.256   8.690  67.067  1.00  0.00    -0.076 A  
HETATM   20  C   UNL     1      -6.819   9.435  64.807  1.00  0.00    -0.094 A  
HETATM   21  C   UNL     1      -6.481   9.424  66.165  1.00  0.00    -0.069 A  
BRANCH  19  22
HETATM   22  S   UNL     1      -6.939   8.796  68.815  1.00  0.00    -0.063 S  
HETATM   23  O   UNL     1      -6.597  10.176  69.105  1.00  0.00    -0.050 OA 
HETATM   24  O   UNL     1      -6.048   7.726  69.201  1.00  0.00    -0.033 OA 
BRANCH  22  25
HETATM   25  N   UNL     1      -8.424   8.563  69.524  1.00  0.00    -0.125 N  
HETATM   26  H   UNL     1      -9.240   8.496  68.916  1.00  0.00     0.000 HD 
BRANCH  25  27
HETATM   27  C   UNL     1      -8.620   8.456  70.890  1.00  0.00    -0.146 C  
HETATM   28  O   UNL     1      -8.002   7.678  71.592  1.00  0.00    -0.087 OA 
BRANCH  27  29
HETATM   29  N   UNL     1      -9.588   9.300  71.362  1.00  0.00    -0.232 N  
HETATM   30  H   UNL     1      -9.340  10.060  71.994  1.00  0.00     0.000 HD 
BRANCH  29  31
HETATM   31  C   UNL     1     -10.975   9.109  70.959  1.00  0.00    -0.305 C  
HETATM   32  C   UNL     1     -11.833  10.334  71.289  1.00  0.00    -0.425 C  
HETATM   33  C   UNL     1     -11.577  11.508  70.347  1.00  0.00    -0.216 C  
HETATM   34  C   UNL     1     -11.734  11.094  68.889  1.00  0.00    -0.406 C  
HETATM   35  C   UNL     1     -10.840   9.909  68.540  1.00  0.00    -0.257 C  
HETATM   36  C   UNL     1     -11.076   8.728  69.479  1.00  0.00     0.006 C  
ENDBRANCH  29  31
ENDBRANCH  27  29
ENDBRANCH  25  27
ENDBRANCH  22  25
ENDBRANCH  19  22
ENDBRANCH  15  16
ENDBRANCH  14  15
ENDBRANCH  13  14
ENDBRANCH   4  10
ENDBRANCH   2   3
TORSDOF 10
ENDMDL
MODEL      301
REMARK 921   NORMALIZED FREE ENERGY PREDICTED BY IDOCK:   -3.13 KCAL/MOL
REMARK 922        TOTAL FREE ENERGY PREDICTED BY IDOCK:   -6.92 KCAL/MOL
REMARK 923 INTER-LIGAND FREE ENERGY PREDICTED BY IDOCK:   -7.20 KCAL/MOL
REMARK 924 INTRA-LIGAND FREE ENERGY PREDICTED BY IDOCK:    0.28 KCAL/MOL
REMARK 927      BINDING AFFINITY PREDICTED BY RF-SCORE:    0.00 PKD
ROOT
HETATM    1  C   UNL     1     -10.955  10.731  66.844  1.00  0.00    -0.190 C  
HETATM    2  O   UNL     1     -10.500  11.291  68.075  1.00  0.00    -0.177 OA 
ENDROOT
BRANCH   2   3
HETATM    3  C   UNL     1     -11.080  10.786  69.210  1.00  0.00    -0.256 A  
HETATM    4  C   UNL     1     -10.387   9.818  69.967  1.00  0.00    -0.307 A  
HETATM    5  C   UNL     1     -10.987   9.292  71.126  1.00  0.00    -0.409 A  
HETATM    6  C   UNL     1     -12.384  11.146  69.584  1.00  0.00    -0.287 A  
HETATM    7 CL   UNL     1     -13.014   8.991  72.881  1.00  0.00    -0.188 Cl 
HETATM    8  C   UNL     1     -12.984  10.587  70.712  1.00  0.00    -0.413 A  
HETATM    9  C   UNL     1     -12.279   9.672  71.483  1.00  0.00    -0.399 A  
BRANCH   4  10
HETATM   10  C   UNL     1      -9.017   9.345  69.577  1.00  0.00    -0.164 C  
HETATM   11  H   UNL     1      -8.886  10.810  68.096  1.00  0.00     0.000 HD 
HETATM   12  O   UNL     1      -8.496   8.372  70.106  1.00  0.00    -0.120 OA 
HETATM   13  N   UNL     1      -8.374  10.079  68.590  1.00  0.00    -0.112 N  
BRANCH  13  14
HETATM   14  C   UNL     1      -6.987   9.826  68.246  1.00  0.00    -0.073 C  
BRANCH  14  15
HETATM   15  C   UNL     1      -5.995  10.674  69.052  1.00  0.00    -0.040 C  
BRANCH  15  16
HETATM   16  C   UNL     1      -6.048  12.170  68.797  1.00  0.00    -0.067 A  
HETATM   17  C   UNL     1      -5.129  13.076  69.350  1.00  0.00    -0.074 A  
HETATM   18  C   UNL     1      -5.263  14.453  69.146  1.00  0.00    -0.078 A  
HETATM   19  C   UNL     1      -6.316  14.940  68.373  1.00  0.00    -0.105 A  
HETATM   20  C   UNL     1      -7.080  12.677  67.990  1.00  0.00    -0.103 A  
HETATM   21  C   UNL     1      -7.225  14.054  67.790  1.00  0.00    -0.175 A  
BRANCH  19  22
HETATM   22  S   UNL     1      -6.579  16.696  68.264  1.00  0.00    -0.141 S  
HETATM   23  O   UNL     1      -5.472  17.338  68.948  1.00  0.00    -0.145 OA 
HETATM   24  O   UNL     1      -7.942  16.996  68.637  1.00  0.00    -0.238 OA 
BRANCH  22  25
HETATM   25  N   UNL     1      -6.355  17.054  66.656  1.00  0.00    -0.206 N  
HETATM   26  H   UNL     1      -5.971  16.327  66.052  1.00  0.00     0.000 HD 
BRANCH  25  27
HETATM   27  C   UNL     1      -6.657  18.280  66.087  1.00  0.00    -0.246 C  
HETATM   28  O   UNL     1      -5.809  19.092  65.768  1.00  0.00    -0.156 OA 
BRANCH  27  29
HETATM   29  N   UNL     1      -8.001  18.486  65.939  1.00  0.00    -0.105 N  
HETATM   30  H   UNL     1      -8.620  17.699  65.742  1.00  0.00     0.000 HD 
BRANCH  29  31
HETATM   31  C   UNL     1      -8.547  19.831  66.064  1.00  0.00    -0.266 C  
HETATM   32  C   UNL     1     -10.043  19.866  65.739  1.00  0.00    -0.442 C  
HETATM   33  C   UNL     1     -10.904  19.266  66.848  1.00  0.00    -0.479 C  
HETATM   34  C   UNL     1     -10.609  19.918  68.194  1.00  0.00    -0.357 C  
HETATM   35  C   UNL     1      -9.128  19.837  68.547  1.00  0.00    -0.307 C  
HETATM   36  C   UNL     1      -8.251  20.424  67.444  1.00  0.00    -0.376 C  
ENDBRANCH  29  31
ENDBRANCH  27  29
ENDBRANCH  25  27
ENDBRANCH  22  25
ENDBRANCH  19  22
ENDBRANCH  15  16
ENDBRANCH  14  15
ENDBRANCH  13  14
ENDBRANCH   4  10
ENDBRANCH   2   3
TORSDOF 10
ENDMDL
MODEL      302
REMARK 921   NORMALIZED FREE ENERGY PREDICTED BY IDOCK:   -3.11 KCAL/MOL
REMARK 922        TOTAL FREE ENERGY PREDICTED BY IDOCK:   -6.90 KCAL/MOL
REMARK 923 INTER-LIGAND FREE ENERGY PREDICTED BY IDOCK:   -5.72 KCAL/MOL
REMARK 924 INTRA-LIGAND FREE ENERGY PREDICTED BY IDOCK:   -1.19 KCAL/MOL
REMARK 927      BINDING AFFINITY PREDICTED BY RF-SCORE:    0.00 PKD
ROOT
HETATM    1  C   UNL     1      -7.465   8.296  69.292  1.00  0.00    -0.085 C  
HETATM    2  O   UNL     1      -8.807   8.508  68.855  1.00  0.00    -0.137 OA 
ENDROOT
BRANCH   2   3
HETATM    3  C   UNL     1      -9.143   9.807  68.574  1.00  0.00    -0.128 A  
HETATM    4  C   UNL     1     -10.184  10.423  69.301  1.00  0.00    -0.248 A  
HETATM    5  C   UNL     1     -10.537  11.752  69.005  1.00  0.00    -0.172 A  
HETATM    6  C   UNL     1      -8.535  10.506  67.519  1.00  0.00    -0.118 A  
HETATM    7 CL   UNL     1     -10.380  14.041  67.585  1.00  0.00    -0.240 Cl 
HETATM    8  C   UNL     1      -8.921  11.810  67.209  1.00  0.00    -0.172 A  
HETATM    9  C   UNL     1      -9.911  12.430  67.960  1.00  0.00    -0.207 A  
BRANCH   4  10
HETATM   10  C   UNL     1     -10.916   9.701  70.394  1.00  0.00    -0.299 C  
HETATM   11  H   UNL     1      -9.190   8.647  70.913  1.00  0.00     0.000 HD 
HETATM   12  O   UNL     1     -12.114   9.866  70.586  1.00  0.00    -0.275 OA 
HETATM   13  N   UNL     1     -10.156   8.843  71.177  1.00  0.00    -0.245 N  
BRANCH  13  14
HETATM   14  C   UNL     1     -10.709   8.219  72.366  1.00  0.00    -0.341 C  
BRANCH  14  15
HETATM   15  C   UNL     1     -11.098   6.751  72.158  1.00  0.00    -0.284 C  
BRANCH  15  16
HETATM   16  C   UNL     1     -10.610   6.116  70.867  1.00  0.00    -0.298 A  
HETATM   17  C   UNL     1     -11.265   6.280  69.635  1.00  0.00    -0.506 A  
HETATM   18  C   UNL     1     -10.820   5.615  68.489  1.00  0.00    -0.173 A  
HETATM   19  C   UNL     1      -9.703   4.783  68.559  1.00  0.00    -0.151 A  
HETATM   20  C   UNL     1      -9.465   5.303  70.910  1.00  0.00    -0.216 A  
HETATM   21  C   UNL     1      -9.020   4.627  69.768  1.00  0.00    -0.140 A  
BRANCH  19  22
HETATM   22  S   UNL     1      -9.250   3.808  67.141  1.00  0.00    -0.195 S  
HETATM   23  O   UNL     1     -10.011   4.313  66.014  1.00  0.00    -0.213 OA 
HETATM   24  O   UNL     1      -9.305   2.407  67.492  1.00  0.00    -0.173 OA 
BRANCH  22  25
HETATM   25  N   UNL     1      -7.676   4.237  66.823  1.00  0.00    -0.092 N  
HETATM   26  H   UNL     1      -6.961   3.512  66.883  1.00  0.00     0.000 HD 
BRANCH  25  27
HETATM   27  C   UNL     1      -7.278   5.518  66.481  1.00  0.00    -0.077 C  
HETATM   28  O   UNL     1      -6.512   6.179  67.158  1.00  0.00    -0.046 OA 
BRANCH  27  29
HETATM   29  N   UNL     1      -7.847   5.966  65.321  1.00  0.00    -0.098 N  
HETATM   30  H   UNL     1      -8.637   6.609  65.354  1.00  0.00     0.000 HD 
BRANCH  29  31
HETATM   31  C   UNL     1      -7.321   5.522  64.037  1.00  0.00    -0.058 C  
HETATM   32  C   UNL     1      -8.016   6.226  62.867  1.00  0.00    -0.096 C  
HETATM   33  C   UNL     1      -7.573   7.677  62.702  1.00  0.00    -0.112 C  
HETATM   34  C   UNL     1      -6.056   7.786  62.597  1.00  0.00    -0.072 C  
HETATM   35  C   UNL     1      -5.360   7.134  63.787  1.00  0.00    -0.029 C  
HETATM   36  C   UNL     1      -5.800   5.683  63.974  1.00  0.00    -0.021 C  
ENDBRANCH  29  31
ENDBRANCH  27  29
ENDBRANCH  25  27
ENDBRANCH  22  25
ENDBRANCH  19  22
ENDBRANCH  15  16
ENDBRANCH  14  15
ENDBRANCH  13  14
ENDBRANCH   4  10
ENDBRANCH   2   3
TORSDOF 10
ENDMDL
MODEL      303
REMARK 921   NORMALIZED FREE ENERGY PREDICTED BY IDOCK:   -3.11 KCAL/MOL
REMARK 922        TOTAL FREE ENERGY PREDICTED BY IDOCK:   -6.90 KCAL/MOL
REMARK 923 INTER-LIGAND FREE ENERGY PREDICTED BY IDOCK:   -5.61 KCAL/MOL
REMARK 924 INTRA-LIGAND FREE ENERGY PREDICTED BY IDOCK:   -1.29 KCAL/MOL
REMARK 927      BINDING AFFINITY PREDICTED BY RF-SCORE:    0.00 PKD
ROOT
HETATM    1  C   UNL     1      -8.488   9.528  67.916  1.00  0.00    -0.119 C  
HETATM    2  O   UNL     1      -8.058  10.097  66.680  1.00  0.00    -0.117 OA 
ENDROOT
BRANCH   2   3
HETATM    3  C   UNL     1      -9.050  10.592  65.875  1.00  0.00    -0.180 A  
HETATM    4  C   UNL     1      -9.007  10.334  64.488  1.00  0.00    -0.247 A  
HETATM    5  C   UNL     1     -10.019  10.852  63.660  1.00  0.00    -0.415 A  
HETATM    6  C   UNL     1     -10.059  11.424  66.387  1.00  0.00    -0.255 A  
HETATM    7 CL   UNL     1     -12.225  12.324  63.162  1.00  0.00    -0.470 Cl 
HETATM    8  C   UNL     1     -11.034  11.964  65.550  1.00  0.00    -0.347 A  
HETATM    9  C   UNL     1     -11.016  11.667  64.194  1.00  0.00    -0.376 A  
BRANCH   4  10
HETATM   10  C   UNL     1      -7.915   9.509  63.874  1.00  0.00    -0.141 C  
HETATM   11  H   UNL     1      -9.273   8.001  63.384  1.00  0.00     0.000 HD 
HETATM   12  O   UNL     1      -6.745   9.870  63.892  1.00  0.00    -0.116 OA 
HETATM   13  N   UNL     1      -8.309   8.319  63.277  1.00  0.00    -0.097 N  
BRANCH  13  14
HETATM   14  C   UNL     1      -7.377   7.519  62.505  1.00  0.00    -0.093 C  
BRANCH  14  15
HETATM   15  C   UNL     1      -7.047   6.169  63.155  1.00  0.00    -0.052 C  
BRANCH  15  16
HETATM   16  C   UNL     1      -7.684   5.919  64.511  1.00  0.00    -0.098 A  
HETATM   17  C   UNL     1      -8.895   5.227  64.675  1.00  0.00    -0.040 A  
HETATM   18  C   UNL     1      -9.480   5.086  65.937  1.00  0.00    -0.171 A  
HETATM   19  C   UNL     1      -8.851   5.628  67.057  1.00  0.00    -0.111 A  
HETATM   20  C   UNL     1      -7.048   6.427  65.656  1.00  0.00    -0.065 A  
HETATM   21  C   UNL     1      -7.632   6.298  66.920  1.00  0.00    -0.099 A  
BRANCH  19  22
HETATM   22  S   UNL     1      -9.686   5.597  68.628  1.00  0.00    -0.145 S  
HETATM   23  O   UNL     1     -11.106   5.488  68.355  1.00  0.00     0.001 OA 
HETATM   24  O   UNL     1      -9.180   6.668  69.455  1.00  0.00    -0.143 OA 
BRANCH  22  25
HETATM   25  N   UNL     1      -9.265   4.135  69.297  1.00  0.00    -0.132 N  
HETATM   26  H   UNL     1      -8.805   3.449  68.698  1.00  0.00     0.000 HD 
BRANCH  25  27
HETATM   27  C   UNL     1      -9.500   3.792  70.617  1.00  0.00    -0.170 C  
HETATM   28  O   UNL     1      -9.893   2.692  70.959  1.00  0.00    -0.130 OA 
BRANCH  27  29
HETATM   29  N   UNL     1      -9.263   4.819  71.489  1.00  0.00    -0.138 N  
HETATM   30  H   UNL     1      -8.721   5.629  71.189  1.00  0.00     0.000 HD 
BRANCH  29  31
HETATM   31  C   UNL     1      -9.787   4.753  72.846  1.00  0.00    -0.151 C  
HETATM   32  C   UNL     1      -8.677   4.485  73.868  1.00  0.00    -0.105 C  
HETATM   33  C   UNL     1      -7.796   5.706  74.120  1.00  0.00    -0.099 C  
HETATM   34  C   UNL     1      -8.630   6.921  74.508  1.00  0.00    -0.204 C  
HETATM   35  C   UNL     1      -9.701   7.226  73.467  1.00  0.00    -0.315 C  
HETATM   36  C   UNL     1     -10.586   6.012  73.194  1.00  0.00    -0.268 C  
ENDBRANCH  29  31
ENDBRANCH  27  29
ENDBRANCH  25  27
ENDBRANCH  22  25
ENDBRANCH  19  22
ENDBRANCH  15  16
ENDBRANCH  14  15
ENDBRANCH  13  14
ENDBRANCH   4  10
ENDBRANCH   2   3
TORSDOF 10
ENDMDL
MODEL      304
REMARK 921   NORMALIZED FREE ENERGY PREDICTED BY IDOCK:   -3.10 KCAL/MOL
REMARK 922        TOTAL FREE ENERGY PREDICTED BY IDOCK:   -6.88 KCAL/MOL
REMARK 923 INTER-LIGAND FREE ENERGY PREDICTED BY IDOCK:   -7.57 KCAL/MOL
REMARK 924 INTRA-LIGAND FREE ENERGY PREDICTED BY IDOCK:    0.69 KCAL/MOL
REMARK 927      BINDING AFFINITY PREDICTED BY RF-SCORE:    0.00 PKD
ROOT
HETATM    1  C   UNL     1      -8.483   6.992  68.725  1.00  0.00    -0.122 C  
HETATM    2  O   UNL     1      -8.759   7.530  70.017  1.00  0.00    -0.138 OA 
ENDROOT
BRANCH   2   3
HETATM    3  C   UNL     1     -10.037   7.347  70.478  1.00  0.00    -0.191 A  
HETATM    4  C   UNL     1     -10.903   8.457  70.570  1.00  0.00    -0.250 A  
HETATM    5  C   UNL     1     -12.211   8.271  71.054  1.00  0.00    -0.189 A  
HETATM    6  C   UNL     1     -10.473   6.096  70.942  1.00  0.00    -0.282 A  
HETATM    7 CL   UNL     1     -14.214   6.813  72.123  1.00  0.00    -0.226 Cl 
HETATM    8  C   UNL     1     -11.759   5.932  71.456  1.00  0.00    -0.058 A  
HETATM    9  C   UNL     1     -12.624   7.017  71.499  1.00  0.00    -0.385 A  
BRANCH   4  10
HETATM   10  C   UNL     1     -10.469   9.832  70.153  1.00  0.00    -0.286 C  
HETATM   11  H   UNL     1      -9.035   9.034  68.863  1.00  0.00     0.000 HD 
HETATM   12  O   UNL     1     -10.955  10.840  70.649  1.00  0.00    -0.075 OA 
HETATM   13  N   UNL     1      -9.494   9.893  69.167  1.00  0.00    -0.184 N  
BRANCH  13  14
HETATM   14  C   UNL     1      -9.114  11.156  68.561  1.00  0.00    -0.175 C  
BRANCH  14  15
HETATM   15  C   UNL     1     -10.302  11.941  67.993  1.00  0.00    -0.209 C  
BRANCH  15  16
HETATM   16  C   UNL     1     -10.152  13.452  67.989  1.00  0.00    -0.241 A  
HETATM   17  C   UNL     1     -10.807  14.292  68.903  1.00  0.00    -0.272 A  
HETATM   18  C   UNL     1     -10.696  15.683  68.812  1.00  0.00    -0.250 A  
HETATM   19  C   UNL     1      -9.915  16.252  67.807  1.00  0.00    -0.246 A  
HETATM   20  C   UNL     1      -9.340  14.043  67.006  1.00  0.00    -0.256 A  
HETATM   21  C   UNL     1      -9.232  15.434  66.903  1.00  0.00    -0.254 A  
BRANCH  19  22
HETATM   22  S   UNL     1      -9.920  18.018  67.592  1.00  0.00    -0.346 S  
HETATM   23  O   UNL     1      -9.180  18.586  68.703  1.00  0.00    -0.322 OA 
HETATM   24  O   UNL     1     -11.266  18.458  67.308  1.00  0.00    -0.077 OA 
BRANCH  22  25
HETATM   25  N   UNL     1      -8.960  18.280  66.260  1.00  0.00    -0.232 N  
HETATM   26  H   UNL     1      -9.412  18.332  65.347  1.00  0.00     0.000 HD 
BRANCH  25  27
HETATM   27  C   UNL     1      -7.586  18.433  66.315  1.00  0.00    -0.256 C  
HETATM   28  O   UNL     1      -6.851  18.182  65.378  1.00  0.00    -0.482 OA 
BRANCH  27  29
HETATM   29  N   UNL     1      -7.143  18.874  67.531  1.00  0.00    -0.207 N  
HETATM   30  H   UNL     1      -7.807  19.231  68.218  1.00  0.00     0.000 HD 
BRANCH  29  31
HETATM   31  C   UNL     1      -5.720  18.834  67.843  1.00  0.00    -0.190 C  
HETATM   32  C   UNL     1      -5.170  20.230  68.155  1.00  0.00    -0.219 C  
HETATM   33  C   UNL     1      -5.598  20.742  69.528  1.00  0.00    -0.406 C  
HETATM   34  C   UNL     1      -5.245  19.745  70.626  1.00  0.00    -0.249 C  
HETATM   35  C   UNL     1      -5.837  18.367  70.349  1.00  0.00    -0.109 C  
HETATM   36  C   UNL     1      -5.428  17.843  68.974  1.00  0.00    -0.188 C  
ENDBRANCH  29  31
ENDBRANCH  27  29
ENDBRANCH  25  27
ENDBRANCH  22  25
ENDBRANCH  19  22
ENDBRANCH  15  16
ENDBRANCH  14  15
ENDBRANCH  13  14
ENDBRANCH   4  10
ENDBRANCH   2   3
TORSDOF 10
ENDMDL
MODEL      305
REMARK 921   NORMALIZED FREE ENERGY PREDICTED BY IDOCK:   -2.99 KCAL/MOL
REMARK 922        TOTAL FREE ENERGY PREDICTED BY IDOCK:   -6.71 KCAL/MOL
REMARK 923 INTER-LIGAND FREE ENERGY PREDICTED BY IDOCK:   -5.46 KCAL/MOL
REMARK 924 INTRA-LIGAND FREE ENERGY PREDICTED BY IDOCK:   -1.26 KCAL/MOL
REMARK 927      BINDING AFFINITY PREDICTED BY RF-SCORE:    0.00 PKD
ROOT
HETATM    1  C   UNL     1     -11.153   7.205  69.129  1.00  0.00    -0.043 C  
HETATM    2  O   UNL     1      -9.831   6.817  69.500  1.00  0.00    -0.156 OA 
ENDROOT
BRANCH   2   3
HETATM    3  C   UNL     1      -9.728   6.072  70.646  1.00  0.00    -0.174 A  
HETATM    4  C   UNL     1      -8.564   6.179  71.437  1.00  0.00    -0.128 A  
HETATM    5  C   UNL     1      -8.454   5.406  72.607  1.00  0.00    -0.114 A  
HETATM    6  C   UNL     1     -10.716   5.140  71.002  1.00  0.00    -0.133 A  
HETATM    7 CL   UNL     1      -9.286   3.530  74.358  1.00  0.00    -0.102 Cl 
HETATM    8  C   UNL     1     -10.577   4.351  72.143  1.00  0.00    -0.101 A  
HETATM    9  C   UNL     1      -9.453   4.496  72.945  1.00  0.00    -0.130 A  
BRANCH   4  10
HETATM   10  C   UNL     1      -7.444   7.108  71.069  1.00  0.00    -0.077 C  
HETATM   11  H   UNL     1      -6.531   5.621  69.922  1.00  0.00     0.000 HD 
HETATM   12  O   UNL     1      -7.374   8.244  71.518  1.00  0.00    -0.072 OA 
HETATM   13  N   UNL     1      -6.500   6.607  70.183  1.00  0.00    -0.039 N  
BRANCH  13  14
HETATM   14  C   UNL     1      -5.467   7.459  69.621  1.00  0.00    -0.023 C  
BRANCH  14  15
HETATM   15  C   UNL     1      -5.878   8.124  68.302  1.00  0.00    -0.037 C  
BRANCH  15  16
HETATM   16  C   UNL     1      -6.379   9.553  68.412  1.00  0.00    -0.052 A  
HETATM   17  C   UNL     1      -7.559  10.003  67.797  1.00  0.00    -0.090 A  
HETATM   18  C   UNL     1      -7.940  11.346  67.866  1.00  0.00    -0.120 A  
HETATM   19  C   UNL     1      -7.148  12.257  68.564  1.00  0.00    -0.099 A  
HETATM   20  C   UNL     1      -5.614  10.478  69.141  1.00  0.00    -0.041 A  
HETATM   21  C   UNL     1      -5.985  11.826  69.206  1.00  0.00    -0.077 A  
BRANCH  19  22
HETATM   22  S   UNL     1      -7.547  13.990  68.499  1.00  0.00    -0.134 S  
HETATM   23  O   UNL     1      -6.819  14.554  67.378  1.00  0.00    -0.220 OA 
HETATM   24  O   UNL     1      -7.410  14.558  69.820  1.00  0.00    -0.084 OA 
BRANCH  22  25
HETATM   25  N   UNL     1      -9.144  14.035  68.040  1.00  0.00    -0.182 N  
HETATM   26  H   UNL     1      -9.727  13.226  68.255  1.00  0.00     0.000 HD 
BRANCH  25  27
HETATM   27  C   UNL     1      -9.730  15.104  67.384  1.00  0.00    -0.209 C  
HETATM   28  O   UNL     1      -9.696  16.244  67.807  1.00  0.00    -0.230 OA 
BRANCH  27  29
HETATM   29  N   UNL     1     -10.364  14.742  66.227  1.00  0.00    -0.287 N  
HETATM   30  H   UNL     1      -9.862  14.769  65.339  1.00  0.00     0.000 HD 
BRANCH  29  31
HETATM   31  C   UNL     1     -11.757  14.316  66.265  1.00  0.00    -0.393 C  
HETATM   32  C   UNL     1     -12.440  14.496  64.905  1.00  0.00    -0.321 C  
HETATM   33  C   UNL     1     -12.005  13.451  63.881  1.00  0.00    -0.520 C  
HETATM   34  C   UNL     1     -12.193  12.037  64.417  1.00  0.00    -0.358 C  
HETATM   35  C   UNL     1     -11.469  11.835  65.744  1.00  0.00    -0.258 C  
HETATM   36  C   UNL     1     -11.884  12.879  66.778  1.00  0.00    -0.452 C  
ENDBRANCH  29  31
ENDBRANCH  27  29
ENDBRANCH  25  27
ENDBRANCH  22  25
ENDBRANCH  19  22
ENDBRANCH  15  16
ENDBRANCH  14  15
ENDBRANCH  13  14
ENDBRANCH   4  10
ENDBRANCH   2   3
TORSDOF 10
ENDMDL
MODEL      306
REMARK 921   NORMALIZED FREE ENERGY PREDICTED BY IDOCK:   -2.93 KCAL/MOL
REMARK 922        TOTAL FREE ENERGY PREDICTED BY IDOCK:   -6.61 KCAL/MOL
REMARK 923 INTER-LIGAND FREE ENERGY PREDICTED BY IDOCK:   -5.32 KCAL/MOL
REMARK 924 INTRA-LIGAND FREE ENERGY PREDICTED BY IDOCK:   -1.29 KCAL/MOL
REMARK 927      BINDING AFFINITY PREDICTED BY RF-SCORE:    0.00 PKD
ROOT
HETATM    1  C   UNL     1     -10.520   7.879  66.942  1.00  0.00    -0.318 C  
HETATM    2  O   UNL     1     -10.028   9.216  67.024  1.00  0.00    -0.194 OA 
ENDROOT
BRANCH   2   3
HETATM    3  C   UNL     1      -8.933   9.496  66.248  1.00  0.00    -0.157 A  
HETATM    4  C   UNL     1      -8.156  10.638  66.539  1.00  0.00    -0.140 A  
HETATM    5  C   UNL     1      -7.039  10.932  65.736  1.00  0.00     0.014 A  
HETATM    6  C   UNL     1      -8.621   8.723  65.119  1.00  0.00    -0.209 A  
HETATM    7 CL   UNL     1      -5.396  10.538  63.632  1.00  0.00    -0.157 Cl 
HETATM    8  C   UNL     1      -7.535   9.048  64.307  1.00  0.00    -0.106 A  
HETATM    9  C   UNL     1      -6.743  10.143  64.626  1.00  0.00    -0.120 A  
BRANCH   4  10
HETATM   10  C   UNL     1      -8.482  11.540  67.693  1.00  0.00    -0.135 C  
HETATM   11  H   UNL     1     -10.341  12.000  66.862  1.00  0.00     0.000 HD 
HETATM   12  O   UNL     1      -7.680  11.753  68.593  1.00  0.00    -0.131 OA 
HETATM   13  N   UNL     1      -9.748  12.111  67.684  1.00  0.00    -0.185 N  
BRANCH  13  14
HETATM   14  C   UNL     1     -10.242  12.864  68.822  1.00  0.00    -0.091 C  
BRANCH  14  15
HETATM   15  C   UNL     1     -11.590  12.356  69.349  1.00  0.00    -0.371 C  
BRANCH  15  16
HETATM   16  C   UNL     1     -11.592  10.941  69.900  1.00  0.00    -0.410 A  
HETATM   17  C   UNL     1     -12.758  10.284  70.325  1.00  0.00    -0.167 A  
HETATM   18  C   UNL     1     -12.699   9.008  70.894  1.00  0.00    -0.028 A  
HETATM   19  C   UNL     1     -11.469   8.368  71.036  1.00  0.00    -0.268 A  
HETATM   20  C   UNL     1     -10.366  10.265  70.017  1.00  0.00    -0.255 A  
HETATM   21  C   UNL     1     -10.299   8.993  70.595  1.00  0.00    -0.284 A  
BRANCH  19  22
HETATM   22  S   UNL     1     -11.384   6.826  71.919  1.00  0.00    -0.285 S  
HETATM   23  O   UNL     1     -12.716   6.546  72.420  1.00  0.00    -0.049 OA 
HETATM   24  O   UNL     1     -10.255   6.856  72.820  1.00  0.00    -0.177 OA 
BRANCH  22  25
HETATM   25  N   UNL     1     -11.120   5.683  70.740  1.00  0.00    -0.198 N  
HETATM   26  H   UNL     1     -11.932   5.215  70.337  1.00  0.00     0.000 HD 
BRANCH  25  27
HETATM   27  C   UNL     1      -9.866   5.329  70.273  1.00  0.00    -0.215 C  
HETATM   28  O   UNL     1      -9.686   4.450  69.451  1.00  0.00    -0.186 OA 
BRANCH  27  29
HETATM   29  N   UNL     1      -8.856   6.054  70.844  1.00  0.00    -0.135 N  
HETATM   30  H   UNL     1      -9.066   6.736  71.573  1.00  0.00     0.000 HD 
BRANCH  29  31
HETATM   31  C   UNL     1      -7.481   5.849  70.408  1.00  0.00    -0.089 C  
HETATM   32  C   UNL     1      -7.209   6.524  69.060  1.00  0.00    -0.091 C  
HETATM   33  C   UNL     1      -7.093   8.043  69.171  1.00  0.00    -0.068 C  
HETATM   34  C   UNL     1      -6.060   8.446  70.216  1.00  0.00    -0.031 C  
HETATM   35  C   UNL     1      -6.357   7.820  71.574  1.00  0.00    -0.038 C  
HETATM   36  C   UNL     1      -6.486   6.302  71.481  1.00  0.00    -0.050 C  
ENDBRANCH  29  31
ENDBRANCH  27  29
ENDBRANCH  25  27
ENDBRANCH  22  25
ENDBRANCH  19  22
ENDBRANCH  15  16
ENDBRANCH  14  15
ENDBRANCH  13  14
ENDBRANCH   4  10
ENDBRANCH   2   3
TORSDOF 10
ENDMDL
MODEL      307
REMARK 921   NORMALIZED FREE ENERGY PREDICTED BY IDOCK:   -2.77 KCAL/MOL
REMARK 922        TOTAL FREE ENERGY PREDICTED BY IDOCK:   -6.36 KCAL/MOL
REMARK 923 INTER-LIGAND FREE ENERGY PREDICTED BY IDOCK:   -5.78 KCAL/MOL
REMARK 924 INTRA-LIGAND FREE ENERGY PREDICTED BY IDOCK:   -0.59 KCAL/MOL
REMARK 927      BINDING AFFINITY PREDICTED BY RF-SCORE:    0.00 PKD
ROOT
HETATM    1  C   UNL     1     -10.762   4.989  69.115  1.00  0.00     0.333 C  
HETATM    2  O   UNL     1     -10.785   4.941  70.541  1.00  0.00    -0.093 OA 
ENDROOT
BRANCH   2   3
HETATM    3  C   UNL     1      -9.630   4.510  71.141  1.00  0.00    -0.175 A  
HETATM    4  C   UNL     1      -8.615   5.445  71.435  1.00  0.00    -0.131 A  
HETATM    5  C   UNL     1      -7.426   5.002  72.041  1.00  0.00    -0.091 A  
HETATM    6  C   UNL     1      -9.401   3.147  71.388  1.00  0.00    -0.207 A  
HETATM    7 CL   UNL     1      -5.749   3.113  72.992  1.00  0.00    -0.003 Cl 
HETATM    8  C   UNL     1      -8.201   2.715  71.952  1.00  0.00    -0.059 A  
HETATM    9  C   UNL     1      -7.225   3.644  72.286  1.00  0.00    -0.048 A  
BRANCH   4  10
HETATM   10  C   UNL     1      -8.777   6.906  71.131  1.00  0.00    -0.135 C  
HETATM   11  H   UNL     1     -10.523   6.993  72.273  1.00  0.00     0.000 HD 
HETATM   12  O   UNL     1      -8.009   7.499  70.385  1.00  0.00    -0.099 OA 
HETATM   13  N   UNL     1      -9.842   7.546  71.752  1.00  0.00    -0.163 N  
BRANCH  13  14
HETATM   14  C   UNL     1     -10.004   8.986  71.673  1.00  0.00    -0.313 C  
BRANCH  14  15
HETATM   15  C   UNL     1     -11.301   9.416  70.976  1.00  0.00    -0.407 C  
BRANCH  15  16
HETATM   16  C   UNL     1     -11.130  10.296  69.751  1.00  0.00    -0.340 A  
HETATM   17  C   UNL     1     -11.932  11.420  69.494  1.00  0.00    -0.409 A  
HETATM   18  C   UNL     1     -11.785  12.156  68.315  1.00  0.00    -0.401 A  
HETATM   19  C   UNL     1     -10.822  11.782  67.379  1.00  0.00    -0.251 A  
HETATM   20  C   UNL     1     -10.141   9.957  68.813  1.00  0.00    -0.186 A  
HETATM   21  C   UNL     1      -9.995  10.683  67.627  1.00  0.00    -0.197 A  
BRANCH  19  22
HETATM   22  S   UNL     1     -10.761  12.615  65.808  1.00  0.00    -0.275 S  
HETATM   23  O   UNL     1     -10.529  14.021  66.079  1.00  0.00    -0.290 OA 
HETATM   24  O   UNL     1     -11.890  12.201  65.007  1.00  0.00    -0.352 OA 
BRANCH  22  25
HETATM   25  N   UNL     1      -9.355  12.077  65.103  1.00  0.00    -0.431 N  
HETATM   26  H   UNL     1      -8.492  12.579  65.312  1.00  0.00     0.000 HD 
BRANCH  25  27
HETATM   27  C   UNL     1      -9.285  10.989  64.250  1.00  0.00    -0.152 C  
HETATM   28  O   UNL     1     -10.045  10.829  63.313  1.00  0.00    -0.325 OA 
BRANCH  27  29
HETATM   29  N   UNL     1      -8.290  10.111  64.580  1.00  0.00    -0.160 N  
HETATM   30  H   UNL     1      -8.485   9.330  65.208  1.00  0.00     0.000 HD 
BRANCH  29  31
HETATM   31  C   UNL     1      -6.952  10.291  64.034  1.00  0.00    -0.049 C  
HETATM   32  C   UNL     1      -5.871   9.993  65.078  1.00  0.00    -0.105 C  
HETATM   33  C   UNL     1      -5.707   8.500  65.351  1.00  0.00    -0.044 C  
HETATM   34  C   UNL     1      -5.468   7.722  64.062  1.00  0.00    -0.041 C  
HETATM   35  C   UNL     1      -6.571   7.973  63.039  1.00  0.00    -0.084 C  
HETATM   36  C   UNL     1      -6.756   9.463  62.761  1.00  0.00    -0.097 C  
ENDBRANCH  29  31
ENDBRANCH  27  29
ENDBRANCH  25  27
ENDBRANCH  22  25
ENDBRANCH  19  22
ENDBRANCH  15  16
ENDBRANCH  14  15
ENDBRANCH  13  14
ENDBRANCH   4  10
ENDBRANCH   2   3
TORSDOF 10
ENDMDL
MODEL      308
REMARK 921   NORMALIZED FREE ENERGY PREDICTED BY IDOCK:   -2.67 KCAL/MOL
REMARK 922        TOTAL FREE ENERGY PREDICTED BY IDOCK:   -6.20 KCAL/MOL
REMARK 923 INTER-LIGAND FREE ENERGY PREDICTED BY IDOCK:   -5.00 KCAL/MOL
REMARK 924 INTRA-LIGAND FREE ENERGY PREDICTED BY IDOCK:   -1.20 KCAL/MOL
REMARK 927      BINDING AFFINITY PREDICTED BY RF-SCORE:    0.00 PKD
ROOT
HETATM    1  C   UNL     1      -8.468   9.562  67.923  1.00  0.00    -0.119 C  
HETATM    2  O   UNL     1      -8.106  10.241  66.721  1.00  0.00    -0.117 OA 
ENDROOT
BRANCH   2   3
HETATM    3  C   UNL     1      -9.147  10.745  65.985  1.00  0.00    -0.185 A  
HETATM    4  C   UNL     1      -9.107  10.649  64.578  1.00  0.00    -0.243 A  
HETATM    5  C   UNL     1     -10.170  11.177  63.822  1.00  0.00    -0.434 A  
HETATM    6  C   UNL     1     -10.208  11.432  66.596  1.00  0.00    -0.258 A  
HETATM    7 CL   UNL     1     -12.491  12.519  63.512  1.00  0.00    -0.587 Cl 
HETATM    8  C   UNL     1     -11.236  11.986  65.833  1.00  0.00    -0.385 A  
HETATM    9  C   UNL     1     -11.218  11.845  64.452  1.00  0.00    -0.336 A  
BRANCH   4  10
HETATM   10  C   UNL     1      -7.965   9.987  63.865  1.00  0.00    -0.151 C  
HETATM   11  H   UNL     1      -9.169   8.356  63.364  1.00  0.00     0.000 HD 
HETATM   12  O   UNL     1      -6.845  10.480  63.842  1.00  0.00    -0.035 OA 
HETATM   13  N   UNL     1      -8.255   8.789  63.226  1.00  0.00    -0.178 N  
BRANCH  13  14
HETATM   14  C   UNL     1      -7.284   8.140  62.364  1.00  0.00    -0.095 C  
BRANCH  14  15
HETATM   15  C   UNL     1      -6.716   6.844  62.955  1.00  0.00    -0.047 C  
BRANCH  15  16
HETATM   16  C   UNL     1      -7.099   6.552  64.395  1.00  0.00    -0.064 A  
HETATM   17  C   UNL     1      -6.186   6.612  65.461  1.00  0.00    -0.038 A  
HETATM   18  C   UNL     1      -6.570   6.263  66.759  1.00  0.00    -0.055 A  
HETATM   19  C   UNL     1      -7.881   5.859  67.010  1.00  0.00    -0.102 A  
HETATM   20  C   UNL     1      -8.424   6.178  64.674  1.00  0.00     0.020 A  
HETATM   21  C   UNL     1      -8.812   5.818  65.969  1.00  0.00    -0.150 A  
BRANCH  19  22
HETATM   22  S   UNL     1      -8.313   5.250  68.625  1.00  0.00    -0.088 S  
HETATM   23  O   UNL     1      -7.094   4.752  69.234  1.00  0.00    -0.050 OA 
HETATM   24  O   UNL     1      -9.476   4.401  68.517  1.00  0.00    -0.139 OA 
BRANCH  22  25
HETATM   25  N   UNL     1      -8.701   6.612  69.496  1.00  0.00    -0.135 N  
HETATM   26  H   UNL     1      -8.496   7.521  69.080  1.00  0.00     0.000 HD 
BRANCH  25  27
HETATM   27  C   UNL     1      -9.286   6.587  70.750  1.00  0.00    -0.155 C  
HETATM   28  O   UNL     1     -10.276   7.234  71.035  1.00  0.00    -0.193 OA 
BRANCH  27  29
HETATM   29  N   UNL     1      -8.626   5.779  71.634  1.00  0.00    -0.131 N  
HETATM   30  H   UNL     1      -7.648   5.962  71.863  1.00  0.00     0.000 HD 
BRANCH  29  31
HETATM   31  C   UNL     1      -9.321   4.656  72.249  1.00  0.00    -0.128 C  
HETATM   32  C   UNL     1      -8.880   3.319  71.644  1.00  0.00    -0.133 C  
HETATM   33  C   UNL     1      -7.490   2.890  72.107  1.00  0.00    -0.052 C  
HETATM   34  C   UNL     1      -7.392   2.874  73.628  1.00  0.00    -0.046 C  
HETATM   35  C   UNL     1      -7.777   4.220  74.232  1.00  0.00    -0.080 C  
HETATM   36  C   UNL     1      -9.161   4.671  73.772  1.00  0.00    -0.111 C  
ENDBRANCH  29  31
ENDBRANCH  27  29
ENDBRANCH  25  27
ENDBRANCH  22  25
ENDBRANCH  19  22
ENDBRANCH  15  16
ENDBRANCH  14  15
ENDBRANCH  13  14
ENDBRANCH   4  10
ENDBRANCH   2   3
TORSDOF 10
ENDMDL
MODEL      309
REMARK 921   NORMALIZED FREE ENERGY PREDICTED BY IDOCK:   -2.38 KCAL/MOL
REMARK 922        TOTAL FREE ENERGY PREDICTED BY IDOCK:   -5.74 KCAL/MOL
REMARK 923 INTER-LIGAND FREE ENERGY PREDICTED BY IDOCK:   -4.63 KCAL/MOL
REMARK 924 INTRA-LIGAND FREE ENERGY PREDICTED BY IDOCK:   -1.12 KCAL/MOL
REMARK 927      BINDING AFFINITY PREDICTED BY RF-SCORE:    0.00 PKD
ROOT
HETATM    1  C   UNL     1      -6.790   8.181  69.376  1.00  0.00    -0.043 C  
HETATM    2  O   UNL     1      -8.146   7.950  68.996  1.00  0.00    -0.120 OA 
ENDROOT
BRANCH   2   3
HETATM    3  C   UNL     1      -8.999   9.011  69.159  1.00  0.00    -0.140 A  
HETATM    4  C   UNL     1     -10.021   8.932  70.128  1.00  0.00    -0.207 A  
HETATM    5  C   UNL     1     -10.903  10.016  70.287  1.00  0.00    -0.370 A  
HETATM    6  C   UNL     1      -8.932  10.136  68.321  1.00  0.00    -0.120 A  
HETATM    7 CL   UNL     1     -11.922  12.427  69.632  1.00  0.00    -0.361 Cl 
HETATM    8  C   UNL     1      -9.838  11.187  68.462  1.00  0.00    -0.199 A  
HETATM    9  C   UNL     1     -10.811  11.127  69.451  1.00  0.00    -0.216 A  
BRANCH   4  10
HETATM   10  C   UNL     1     -10.183   7.726  71.006  1.00  0.00    -0.197 C  
HETATM   11  H   UNL     1      -8.115   7.566  71.241  1.00  0.00     0.000 HD 
HETATM   12  O   UNL     1     -11.282   7.238  71.236  1.00  0.00    -0.248 OA 
HETATM   13  N   UNL     1      -9.017   7.202  71.548  1.00  0.00    -0.134 N  
BRANCH  13  14
HETATM   14  C   UNL     1      -9.058   6.145  72.543  1.00  0.00    -0.138 C  
BRANCH  14  15
HETATM   15  C   UNL     1      -9.007   4.737  71.938  1.00  0.00    -0.148 C  
BRANCH  15  16
HETATM   16  C   UNL     1      -8.777   4.672  70.438  1.00  0.00    -0.120 A  
HETATM   17  C   UNL     1      -9.819   4.711  69.498  1.00  0.00    -0.286 A  
HETATM   18  C   UNL     1      -9.563   4.573  68.131  1.00  0.00    -0.203 A  
HETATM   19  C   UNL     1      -8.253   4.404  67.685  1.00  0.00    -0.099 A  
HETATM   20  C   UNL     1      -7.460   4.537  69.967  1.00  0.00    -0.054 A  
HETATM   21  C   UNL     1      -7.197   4.389  68.601  1.00  0.00    -0.056 A  
BRANCH  19  22
HETATM   22  S   UNL     1      -7.954   4.054  65.966  1.00  0.00    -0.094 S  
HETATM   23  O   UNL     1      -9.089   4.566  65.222  1.00  0.00    -0.137 OA 
HETATM   24  O   UNL     1      -7.549   2.674  65.826  1.00  0.00    -0.071 OA 
BRANCH  22  25
HETATM   25  N   UNL     1      -6.687   5.047  65.551  1.00  0.00    -0.054 N  
HETATM   26  H   UNL     1      -6.017   4.706  64.862  1.00  0.00     0.000 HD 
BRANCH  25  27
HETATM   27  C   UNL     1      -6.487   6.309  66.083  1.00  0.00    -0.047 C  
HETATM   28  O   UNL     1      -5.445   6.652  66.609  1.00  0.00    -0.013 OA 
BRANCH  27  29
HETATM   29  N   UNL     1      -7.584   7.119  65.972  1.00  0.00    -0.086 N  
HETATM   30  H   UNL     1      -8.127   7.359  66.801  1.00  0.00     0.000 HD 
BRANCH  29  31
HETATM   31  C   UNL     1      -7.974   7.637  64.668  1.00  0.00    -0.136 C  
HETATM   32  C   UNL     1      -8.719   8.971  64.790  1.00  0.00    -0.187 C  
HETATM   33  C   UNL     1      -7.793  10.137  65.129  1.00  0.00    -0.140 C  
HETATM   34  C   UNL     1      -6.635  10.232  64.142  1.00  0.00    -0.072 C  
HETATM   35  C   UNL     1      -5.857   8.923  64.058  1.00  0.00    -0.071 C  
HETATM   36  C   UNL     1      -6.769   7.743  63.729  1.00  0.00    -0.062 C  
ENDBRANCH  29  31
ENDBRANCH  27  29
ENDBRANCH  25  27
ENDBRANCH  22  25
ENDBRANCH  19  22
ENDBRANCH  15  16
ENDBRANCH  14  15
ENDBRANCH  13  14
ENDBRANCH   4  10
ENDBRANCH   2   3
TORSDOF 10
ENDMDL
MODEL      310
REMARK 921   NORMALIZED FREE ENERGY PREDICTED BY IDOCK:   -2.25 KCAL/MOL
REMARK 922        TOTAL FREE ENERGY PREDICTED BY IDOCK:   -5.54 KCAL/MOL
REMARK 923 INTER-LIGAND FREE ENERGY PREDICTED BY IDOCK:   -5.20 KCAL/MOL
REMARK 924 INTRA-LIGAND FREE ENERGY PREDICTED BY IDOCK:   -0.34 KCAL/MOL
REMARK 927      BINDING AFFINITY PREDICTED BY RF-SCORE:    0.00 PKD
ROOT
HETATM    1  C   UNL     1      -9.826   4.789  69.673  1.00  0.00    -0.221 C  
HETATM    2  O   UNL     1     -10.202   4.252  70.940  1.00  0.00    -0.140 OA 
ENDROOT
BRANCH   2   3
HETATM    3  C   UNL     1      -9.191   3.680  71.668  1.00  0.00    -0.122 A  
HETATM    4  C   UNL     1      -8.339   4.505  72.434  1.00  0.00    -0.110 A  
HETATM    5  C   UNL     1      -7.295   3.920  73.171  1.00  0.00    -0.068 A  
HETATM    6  C   UNL     1      -8.930   2.303  71.598  1.00  0.00    -0.133 A  
HETATM    7 CL   UNL     1      -5.757   1.852  73.972  1.00  0.00     0.000 Cl 
HETATM    8  C   UNL     1      -7.866   1.739  72.302  1.00  0.00    -0.045 A  
HETATM    9  C   UNL     1      -7.062   2.548  73.094  1.00  0.00    -0.032 A  
BRANCH   4  10
HETATM   10  C   UNL     1      -8.528   5.993  72.492  1.00  0.00    -0.119 C  
HETATM   11  H   UNL     1     -10.566   5.762  72.881  1.00  0.00     0.000 HD 
HETATM   12  O   UNL     1      -7.607   6.770  72.274  1.00  0.00    -0.092 OA 
HETATM   13  N   UNL     1      -9.803   6.436  72.818  1.00  0.00    -0.169 N  
BRANCH  13  14
HETATM   14  C   UNL     1     -10.071   7.840  73.072  1.00  0.00    -0.320 C  
BRANCH  14  15
HETATM   15  C   UNL     1     -11.292   8.374  72.314  1.00  0.00    -0.448 C  
BRANCH  15  16
HETATM   16  C   UNL     1     -10.994   9.114  71.022  1.00  0.00    -0.375 A  
HETATM   17  C   UNL     1     -11.952   9.878  70.335  1.00  0.00    -0.271 A  
HETATM   18  C   UNL     1     -11.650  10.480  69.110  1.00  0.00    -0.295 A  
HETATM   19  C   UNL     1     -10.378  10.334  68.560  1.00  0.00    -0.178 A  
HETATM   20  C   UNL     1      -9.706   9.009  70.470  1.00  0.00    -0.262 A  
HETATM   21  C   UNL     1      -9.401   9.601  69.240  1.00  0.00    -0.184 A  
BRANCH  19  22
HETATM   22  S   UNL     1     -10.057  10.955  66.924  1.00  0.00    -0.220 S  
HETATM   23  O   UNL     1     -10.809  12.187  66.779  1.00  0.00    -0.231 OA 
HETATM   24  O   UNL     1     -10.220   9.882  65.969  1.00  0.00    -0.254 OA 
BRANCH  22  25
HETATM   25  N   UNL     1      -8.463  11.426  66.959  1.00  0.00    -0.153 N  
HETATM   26  H   UNL     1      -8.260  12.425  66.960  1.00  0.00     0.000 HD 
BRANCH  25  27
HETATM   27  C   UNL     1      -7.397  10.544  66.988  1.00  0.00    -0.099 C  
HETATM   28  O   UNL     1      -6.294  10.848  67.402  1.00  0.00    -0.059 OA 
BRANCH  27  29
HETATM   29  N   UNL     1      -7.707   9.309  66.488  1.00  0.00    -0.093 N  
HETATM   30  H   UNL     1      -8.155   9.226  65.576  1.00  0.00     0.000 HD 
BRANCH  29  31
HETATM   31  C   UNL     1      -7.395   8.115  67.261  1.00  0.00    -0.089 C  
HETATM   32  C   UNL     1      -8.470   7.036  67.091  1.00  0.00    -0.121 C  
HETATM   33  C   UNL     1      -8.402   6.342  65.733  1.00  0.00    -0.145 C  
HETATM   34  C   UNL     1      -7.008   5.789  65.460  1.00  0.00    -0.068 C  
HETATM   35  C   UNL     1      -5.940   6.872  65.574  1.00  0.00    -0.036 C  
HETATM   36  C   UNL     1      -5.999   7.584  66.923  1.00  0.00    -0.046 C  
ENDBRANCH  29  31
ENDBRANCH  27  29
ENDBRANCH  25  27
ENDBRANCH  22  25
ENDBRANCH  19  22
ENDBRANCH  15  16
ENDBRANCH  14  15
ENDBRANCH  13  14
ENDBRANCH   4  10
ENDBRANCH   2   3
TORSDOF 10
ENDMDL
MODEL      311
REMARK 921   NORMALIZED FREE ENERGY PREDICTED BY IDOCK:   -2.08 KCAL/MOL
REMARK 922        TOTAL FREE ENERGY PREDICTED BY IDOCK:   -5.26 KCAL/MOL
REMARK 923 INTER-LIGAND FREE ENERGY PREDICTED BY IDOCK:   -4.62 KCAL/MOL
REMARK 924 INTRA-LIGAND FREE ENERGY PREDICTED BY IDOCK:   -0.63 KCAL/MOL
REMARK 927      BINDING AFFINITY PREDICTED BY RF-SCORE:    0.00 PKD
ROOT
HETATM    1  C   UNL     1     -10.516   1.489  70.053  1.00  0.00     1.257 C  
HETATM    2  O   UNL     1      -9.293   2.219  69.968  1.00  0.00    -0.117 OA 
ENDROOT
BRANCH   2   3
HETATM    3  C   UNL     1      -9.108   3.185  70.923  1.00  0.00    -0.113 A  
HETATM    4  C   UNL     1      -9.390   4.531  70.607  1.00  0.00    -0.223 A  
HETATM    5  C   UNL     1      -9.188   5.523  71.584  1.00  0.00    -0.159 A  
HETATM    6  C   UNL     1      -8.560   2.874  72.178  1.00  0.00    -0.092 A  
HETATM    7 CL   UNL     1      -8.377   6.419  73.996  1.00  0.00    -0.116 Cl 
HETATM    8  C   UNL     1      -8.328   3.873  73.124  1.00  0.00    -0.088 A  
HETATM    9  C   UNL     1      -8.653   5.189  72.826  1.00  0.00    -0.120 A  
BRANCH   4  10
HETATM   10  C   UNL     1      -9.912   4.932  69.258  1.00  0.00    -0.199 C  
HETATM   11  H   UNL     1     -10.892   6.581  70.081  1.00  0.00     0.000 HD 
HETATM   12  O   UNL     1      -9.700   4.259  68.258  1.00  0.00    -0.151 OA 
HETATM   13  N   UNL     1     -10.641   6.112  69.211  1.00  0.00    -0.250 N  
BRANCH  13  14
HETATM   14  C   UNL     1     -11.054   6.692  67.946  1.00  0.00    -0.217 C  
BRANCH  14  15
HETATM   15  C   UNL     1      -9.901   7.337  67.166  1.00  0.00    -0.242 C  
BRANCH  15  16
HETATM   16  C   UNL     1      -9.665   8.812  67.440  1.00  0.00    -0.225 A  
HETATM   17  C   UNL     1     -10.527   9.596  68.225  1.00  0.00    -0.259 A  
HETATM   18  C   UNL     1     -10.307  10.967  68.386  1.00  0.00    -0.196 A  
HETATM   19  C   UNL     1      -9.212  11.571  67.770  1.00  0.00    -0.165 A  
HETATM   20  C   UNL     1      -8.547   9.432  66.857  1.00  0.00    -0.132 A  
HETATM   21  C   UNL     1      -8.327  10.805  67.007  1.00  0.00    -0.129 A  
BRANCH  19  22
HETATM   22  S   UNL     1      -9.040  13.341  67.837  1.00  0.00    -0.211 S  
HETATM   23  O   UNL     1      -9.063  13.824  66.469  1.00  0.00    -0.223 OA 
HETATM   24  O   UNL     1      -7.942  13.679  68.714  1.00  0.00    -0.117 OA 
BRANCH  22  25
HETATM   25  N   UNL     1     -10.466  13.876  68.504  1.00  0.00    -0.246 N  
HETATM   26  H   UNL     1     -10.793  13.425  69.359  1.00  0.00     0.000 HD 
BRANCH  25  27
HETATM   27  C   UNL     1     -11.235  14.894  67.970  1.00  0.00    -0.308 C  
HETATM   28  O   UNL     1     -11.918  15.639  68.649  1.00  0.00    -0.336 OA 
BRANCH  27  29
HETATM   29  N   UNL     1     -11.162  14.964  66.606  1.00  0.00    -0.345 N  
HETATM   30  H   UNL     1     -10.291  15.241  66.154  1.00  0.00     0.000 HD 
BRANCH  29  31
HETATM   31  C   UNL     1     -12.332  14.640  65.799  1.00  0.00    -0.125 C  
HETATM   32  C   UNL     1     -12.103  14.959  64.318  1.00  0.00    -0.373 C  
HETATM   33  C   UNL     1     -11.181  13.954  63.632  1.00  0.00     0.525 C  
HETATM   34  C   UNL     1     -11.675  12.526  63.825  1.00  0.00    -0.564 C  
HETATM   35  C   UNL     1     -11.853  12.185  65.301  1.00  0.00    -0.356 C  
HETATM   36  C   UNL     1     -12.764  13.186  66.007  1.00  0.00    -0.008 C  
ENDBRANCH  29  31
ENDBRANCH  27  29
ENDBRANCH  25  27
ENDBRANCH  22  25
ENDBRANCH  19  22
ENDBRANCH  15  16
ENDBRANCH  14  15
ENDBRANCH  13  14
ENDBRANCH   4  10
ENDBRANCH   2   3
TORSDOF 10
ENDMDL
MODEL      312
REMARK 921   NORMALIZED FREE ENERGY PREDICTED BY IDOCK:   -1.87 KCAL/MOL
REMARK 922        TOTAL FREE ENERGY PREDICTED BY IDOCK:   -4.94 KCAL/MOL
REMARK 923 INTER-LIGAND FREE ENERGY PREDICTED BY IDOCK:   -4.37 KCAL/MOL
REMARK 924 INTRA-LIGAND FREE ENERGY PREDICTED BY IDOCK:   -0.56 KCAL/MOL
REMARK 927      BINDING AFFINITY PREDICTED BY RF-SCORE:    0.00 PKD
ROOT
HETATM    1  C   UNL     1     -11.329  18.006  65.565  1.00  0.00     1.276 C  
HETATM    2  O   UNL     1     -10.742  18.094  66.862  1.00  0.00    -0.337 OA 
ENDROOT
BRANCH   2   3
HETATM    3  C   UNL     1      -9.446  18.539  66.901  1.00  0.00    -0.298 A  
HETATM    4  C   UNL     1      -8.396  17.599  66.968  1.00  0.00    -0.239 A  
HETATM    5  C   UNL     1      -7.066  18.055  67.019  1.00  0.00    -0.218 A  
HETATM    6  C   UNL     1      -9.146  19.909  66.964  1.00  0.00    -0.446 A  
HETATM    7 CL   UNL     1      -5.163  19.962  67.171  1.00  0.00    -0.157 Cl 
HETATM    8  C   UNL     1      -7.825  20.348  67.054  1.00  0.00    -0.365 A  
HETATM    9  C   UNL     1      -6.792  19.420  67.070  1.00  0.00    -0.193 A  
BRANCH   4  10
HETATM   10  C   UNL     1      -8.659  16.121  66.974  1.00  0.00    -0.205 C  
HETATM   11  H   UNL     1      -9.437  16.210  65.038  1.00  0.00     0.000 HD 
HETATM   12  O   UNL     1      -8.438  15.429  67.959  1.00  0.00    -0.144 OA 
HETATM   13  N   UNL     1      -9.160  15.585  65.795  1.00  0.00    -0.207 N  
BRANCH  13  14
HETATM   14  C   UNL     1      -9.296  14.150  65.619  1.00  0.00     0.201 C  
BRANCH  14  15
HETATM   15  C   UNL     1     -10.383  13.528  66.503  1.00  0.00    -0.282 C  
BRANCH  15  16
HETATM   16  C   UNL     1      -9.902  12.507  67.519  1.00  0.00    -0.198 A  
HETATM   17  C   UNL     1      -8.637  11.900  67.459  1.00  0.00    -0.160 A  
HETATM   18  C   UNL     1      -8.269  10.911  68.375  1.00  0.00    -0.133 A  
HETATM   19  C   UNL     1      -9.160  10.523  69.374  1.00  0.00    -0.104 A  
HETATM   20  C   UNL     1     -10.773  12.129  68.554  1.00  0.00    -0.257 A  
HETATM   21  C   UNL     1     -10.414  11.133  69.469  1.00  0.00    -0.080 A  
BRANCH  19  22
HETATM   22  S   UNL     1      -8.751   9.146  70.423  1.00  0.00    -0.233 S  
HETATM   23  O   UNL     1      -9.979   8.411  70.663  1.00  0.00    -0.181 OA 
HETATM   24  O   UNL     1      -7.951   9.614  71.531  1.00  0.00    -0.083 OA 
BRANCH  22  25
HETATM   25  N   UNL     1      -7.835   8.145  69.462  1.00  0.00    -0.102 N  
HETATM   26  H   UNL     1      -6.849   8.375  69.335  1.00  0.00     0.000 HD 
BRANCH  25  27
HETATM   27  C   UNL     1      -8.328   7.020  68.825  1.00  0.00    -0.122 C  
HETATM   28  O   UNL     1      -8.202   6.823  67.630  1.00  0.00    -0.117 OA 
BRANCH  27  29
HETATM   29  N   UNL     1      -8.984   6.168  69.670  1.00  0.00    -0.133 N  
HETATM   30  H   UNL     1      -9.957   6.345  69.920  1.00  0.00     0.000 HD 
BRANCH  29  31
HETATM   31  C   UNL     1      -8.291   5.008  70.213  1.00  0.00    -0.092 C  
HETATM   32  C   UNL     1      -7.358   5.394  71.365  1.00  0.00    -0.080 C  
HETATM   33  C   UNL     1      -8.111   5.718  72.653  1.00  0.00    -0.105 C  
HETATM   34  C   UNL     1      -9.047   4.582  73.049  1.00  0.00    -0.129 C  
HETATM   35  C   UNL     1     -10.014   4.230  71.925  1.00  0.00    -0.255 C  
HETATM   36  C   UNL     1      -9.279   3.913  70.625  1.00  0.00    -0.197 C  
ENDBRANCH  29  31
ENDBRANCH  27  29
ENDBRANCH  25  27
ENDBRANCH  22  25
ENDBRANCH  19  22
ENDBRANCH  15  16
ENDBRANCH  14  15
ENDBRANCH  13  14
ENDBRANCH   4  10
ENDBRANCH   2   3
TORSDOF 10
ENDMDL
MODEL      313
REMARK 921   NORMALIZED FREE ENERGY PREDICTED BY IDOCK:   -1.79 KCAL/MOL
REMARK 922        TOTAL FREE ENERGY PREDICTED BY IDOCK:   -4.80 KCAL/MOL
REMARK 923 INTER-LIGAND FREE ENERGY PREDICTED BY IDOCK:   -3.68 KCAL/MOL
REMARK 924 INTRA-LIGAND FREE ENERGY PREDICTED BY IDOCK:   -1.13 KCAL/MOL
REMARK 927      BINDING AFFINITY PREDICTED BY RF-SCORE:    0.00 PKD
ROOT
HETATM    1  C   UNL     1     -10.922  15.997  65.031  1.00  0.00    -0.380 C  
HETATM    2  O   UNL     1     -11.203  16.471  66.347  1.00  0.00     0.138 OA 
ENDROOT
BRANCH   2   3
HETATM    3  C   UNL     1     -10.325  17.399  66.845  1.00  0.00    -0.317 A  
HETATM    4  C   UNL     1      -9.252  16.969  67.654  1.00  0.00    -0.233 A  
HETATM    5  C   UNL     1      -8.358  17.921  68.175  1.00  0.00    -0.267 A  
HETATM    6  C   UNL     1     -10.524  18.774  66.643  1.00  0.00    -0.483 A  
HETATM    7 CL   UNL     1      -7.489  20.436  68.626  1.00  0.00    -0.026 Cl 
HETATM    8  C   UNL     1      -9.653  19.711  67.198  1.00  0.00    -0.459 A  
HETATM    9  C   UNL     1      -8.569  19.281  67.951  1.00  0.00    -0.312 A  
BRANCH   4  10
HETATM   10  C   UNL     1      -9.030  15.517  67.962  1.00  0.00    -0.174 C  
HETATM   11  H   UNL     1      -8.151  15.211  66.093  1.00  0.00     0.000 HD 
HETATM   12  O   UNL     1      -9.415  15.012  69.008  1.00  0.00    -0.203 OA 
HETATM   13  N   UNL     1      -8.354  14.783  66.996  1.00  0.00    -0.211 N  
BRANCH  13  14
HETATM   14  C   UNL     1      -7.930  13.417  67.247  1.00  0.00    -0.119 C  
BRANCH  14  15
HETATM   15  C   UNL     1      -8.991  12.373  66.880  1.00  0.00    -0.212 C  
BRANCH  15  16
HETATM   16  C   UNL     1      -9.004  11.118  67.735  1.00  0.00    -0.139 A  
HETATM   17  C   UNL     1      -8.774   9.833  67.216  1.00  0.00    -0.135 A  
HETATM   18  C   UNL     1      -8.870   8.700  68.030  1.00  0.00    -0.141 A  
HETATM   19  C   UNL     1      -9.188   8.840  69.380  1.00  0.00    -0.146 A  
HETATM   20  C   UNL     1      -9.288  11.242  69.105  1.00  0.00     0.082 A  
HETATM   21  C   UNL     1      -9.394  10.112  69.922  1.00  0.00    -0.134 A  
BRANCH  19  22
HETATM   22  S   UNL     1      -9.479   7.387  70.364  1.00  0.00    -0.164 S  
HETATM   23  O   UNL     1     -10.658   6.736  69.826  1.00  0.00    -0.206 OA 
HETATM   24  O   UNL     1      -9.413   7.740  71.763  1.00  0.00    -0.145 OA 
BRANCH  22  25
HETATM   25  N   UNL     1      -8.219   6.369  69.991  1.00  0.00    -0.123 N  
HETATM   26  H   UNL     1      -7.287   6.774  69.898  1.00  0.00     0.000 HD 
BRANCH  25  27
HETATM   27  C   UNL     1      -8.357   5.005  69.798  1.00  0.00    -0.088 C  
HETATM   28  O   UNL     1      -8.022   4.179  70.626  1.00  0.00    -0.054 OA 
BRANCH  27  29
HETATM   29  N   UNL     1      -8.891   4.687  68.579  1.00  0.00    -0.098 N  
HETATM   30  H   UNL     1      -9.567   5.310  68.138  1.00  0.00     0.000 HD 
BRANCH  29  31
HETATM   31  C   UNL     1      -8.491   3.455  67.912  1.00  0.00    -0.090 C  
HETATM   32  C   UNL     1      -9.704   2.653  67.432  1.00  0.00     0.259 C  
HETATM   33  C   UNL     1     -10.369   3.265  66.202  1.00  0.00     1.250 C  
HETATM   34  C   UNL     1      -9.363   3.483  65.077  1.00  0.00    -0.155 C  
HETATM   35  C   UNL     1      -8.180   4.327  65.535  1.00  0.00    -0.109 C  
HETATM   36  C   UNL     1      -7.507   3.735  66.772  1.00  0.00    -0.080 C  
ENDBRANCH  29  31
ENDBRANCH  27  29
ENDBRANCH  25  27
ENDBRANCH  22  25
ENDBRANCH  19  22
ENDBRANCH  15  16
ENDBRANCH  14  15
ENDBRANCH  13  14
ENDBRANCH   4  10
ENDBRANCH   2   3
TORSDOF 10
ENDMDL
MODEL      314
REMARK 921   NORMALIZED FREE ENERGY PREDICTED BY IDOCK:   -1.71 KCAL/MOL
REMARK 922        TOTAL FREE ENERGY PREDICTED BY IDOCK:   -4.67 KCAL/MOL
REMARK 923 INTER-LIGAND FREE ENERGY PREDICTED BY IDOCK:   -3.72 KCAL/MOL
REMARK 924 INTRA-LIGAND FREE ENERGY PREDICTED BY IDOCK:   -0.95 KCAL/MOL
REMARK 927      BINDING AFFINITY PREDICTED BY RF-SCORE:    0.00 PKD
ROOT
HETATM    1  C   UNL     1      -9.005   6.306  66.850  1.00  0.00    -0.120 C  
HETATM    2  O   UNL     1      -8.065   5.759  65.926  1.00  0.00    -0.105 OA 
ENDROOT
BRANCH   2   3
HETATM    3  C   UNL     1      -8.536   4.753  65.123  1.00  0.00    -0.135 A  
HETATM    4  C   UNL     1      -7.761   3.585  64.955  1.00  0.00    -0.081 A  
HETATM    5  C   UNL     1      -8.239   2.557  64.122  1.00  0.00    -0.082 A  
HETATM    6  C   UNL     1      -9.728   4.896  64.396  1.00  0.00     0.297 A  
HETATM    7 CL   UNL     1      -9.983   1.468  62.374  1.00  0.00    -0.087 Cl 
HETATM    8  C   UNL     1     -10.171   3.886  63.542  1.00  0.00    -0.185 A  
HETATM    9  C   UNL     1      -9.431   2.718  63.419  1.00  0.00    -0.097 A  
BRANCH   4  10
HETATM   10  C   UNL     1      -6.445   3.405  65.653  1.00  0.00    -0.033 C  
HETATM   11  H   UNL     1      -7.343   3.709  67.514  1.00  0.00     0.000 HD 
HETATM   12  O   UNL     1      -5.405   3.225  65.034  1.00  0.00    -0.009 OA 
HETATM   13  N   UNL     1      -6.479   3.444  67.041  1.00  0.00    -0.036 N  
BRANCH  13  14
HETATM   14  C   UNL     1      -5.306   3.116  67.832  1.00  0.00    -0.013 C  
BRANCH  14  15
HETATM   15  C   UNL     1      -5.637   2.728  69.278  1.00  0.00    -0.018 C  
BRANCH  15  16
HETATM   16  C   UNL     1      -5.911   3.884  70.224  1.00  0.00    -0.017 A  
HETATM   17  C   UNL     1      -5.335   3.985  71.501  1.00  0.00     0.000 A  
HETATM   18  C   UNL     1      -5.676   5.030  72.364  1.00  0.00    -0.016 A  
HETATM   19  C   UNL     1      -6.593   5.997  71.955  1.00  0.00    -0.059 A  
HETATM   20  C   UNL     1      -6.806   4.887  69.816  1.00  0.00    -0.052 A  
HETATM   21  C   UNL     1      -7.158   5.931  70.679  1.00  0.00    -0.074 A  
BRANCH  19  22
HETATM   22  S   UNL     1      -7.152   7.220  73.121  1.00  0.00    -0.074 S  
HETATM   23  O   UNL     1      -6.144   7.311  74.160  1.00  0.00    -0.074 OA 
HETATM   24  O   UNL     1      -8.531   6.956  73.460  1.00  0.00    -0.124 OA 
BRANCH  22  25
HETATM   25  N   UNL     1      -7.051   8.660  72.297  1.00  0.00    -0.057 N  
HETATM   26  H   UNL     1      -6.224   9.239  72.444  1.00  0.00     0.000 HD 
BRANCH  25  27
HETATM   27  C   UNL     1      -8.021   9.122  71.425  1.00  0.00     0.059 C  
HETATM   28  O   UNL     1      -7.766   9.781  70.434  1.00  0.00    -0.163 OA 
BRANCH  27  29
HETATM   29  N   UNL     1      -9.290   8.778  71.802  1.00  0.00    -0.276 N  
HETATM   30  H   UNL     1      -9.469   8.446  72.750  1.00  0.00     0.000 HD 
BRANCH  29  31
HETATM   31  C   UNL     1     -10.386   8.889  70.848  1.00  0.00    -0.240 C  
HETATM   32  C   UNL     1     -10.581   7.590  70.059  1.00  0.00    -0.242 C  
HETATM   33  C   UNL     1     -11.232   6.486  70.889  1.00  0.00    -0.366 C  
HETATM   34  C   UNL     1     -12.538   6.960  71.516  1.00  0.00    -0.412 C  
HETATM   35  C   UNL     1     -12.339   8.222  72.348  1.00  0.00    -0.385 C  
HETATM   36  C   UNL     1     -11.679   9.335  71.537  1.00  0.00    -0.450 C  
ENDBRANCH  29  31
ENDBRANCH  27  29
ENDBRANCH  25  27
ENDBRANCH  22  25
ENDBRANCH  19  22
ENDBRANCH  15  16
ENDBRANCH  14  15
ENDBRANCH  13  14
ENDBRANCH   4  10
ENDBRANCH   2   3
TORSDOF 10
ENDMDL
MODEL      315
REMARK 921   NORMALIZED FREE ENERGY PREDICTED BY IDOCK:   -1.66 KCAL/MOL
REMARK 922        TOTAL FREE ENERGY PREDICTED BY IDOCK:   -4.60 KCAL/MOL
REMARK 923 INTER-LIGAND FREE ENERGY PREDICTED BY IDOCK:   -4.95 KCAL/MOL
REMARK 924 INTRA-LIGAND FREE ENERGY PREDICTED BY IDOCK:    0.35 KCAL/MOL
REMARK 927      BINDING AFFINITY PREDICTED BY RF-SCORE:    0.00 PKD
ROOT
HETATM    1  C   UNL     1      -6.929  15.089  71.065  1.00  0.00     1.014 C  
HETATM    2  O   UNL     1      -5.668  14.839  70.447  1.00  0.00    -0.129 OA 
ENDROOT
BRANCH   2   3
HETATM    3  C   UNL     1      -5.619  13.755  69.610  1.00  0.00    -0.094 A  
HETATM    4  C   UNL     1      -6.154  13.864  68.308  1.00  0.00    -0.112 A  
HETATM    5  C   UNL     1      -6.115  12.748  67.453  1.00  0.00    -0.123 A  
HETATM    6  C   UNL     1      -5.131  12.514  70.049  1.00  0.00    -0.086 A  
HETATM    7 CL   UNL     1      -5.608  10.164  66.863  1.00  0.00    -0.045 Cl 
HETATM    8  C   UNL     1      -5.134  11.404  69.204  1.00  0.00    -0.044 A  
HETATM    9  C   UNL     1      -5.615  11.529  67.908  1.00  0.00    -0.045 A  
BRANCH   4  10
HETATM   10  C   UNL     1      -6.752  15.145  67.807  1.00  0.00    -0.165 C  
HETATM   11  H   UNL     1      -8.627  14.611  68.553  1.00  0.00     0.000 HD 
HETATM   12  O   UNL     1      -6.096  15.957  67.167  1.00  0.00    -0.315 OA 
HETATM   13  N   UNL     1      -8.088  15.360  68.119  1.00  0.00    -0.133 N  
BRANCH  13  14
HETATM   14  C   UNL     1      -8.732  16.631  67.839  1.00  0.00    -0.193 C  
BRANCH  14  15
HETATM   15  C   UNL     1     -10.256  16.525  67.706  1.00  0.00    -0.278 C  
BRANCH  15  16
HETATM   16  C   UNL     1     -10.761  15.483  66.722  1.00  0.00    -0.305 A  
HETATM   17  C   UNL     1     -10.488  15.532  65.345  1.00  0.00    -0.429 A  
HETATM   18  C   UNL     1     -11.037  14.591  64.469  1.00  0.00    -0.280 A  
HETATM   19  C   UNL     1     -11.860  13.580  64.963  1.00  0.00    -0.353 A  
HETATM   20  C   UNL     1     -11.562  14.436  67.206  1.00  0.00    -0.401 A  
HETATM   21  C   UNL     1     -12.122  13.497  66.333  1.00  0.00    -0.467 A  
BRANCH  19  22
HETATM   22  S   UNL     1     -12.693  12.497  63.823  1.00  0.00    -0.230 S  
HETATM   23  O   UNL     1     -12.863  13.230  62.583  1.00  0.00    -0.016 OA 
HETATM   24  O   UNL     1     -13.831  11.899  64.482  1.00  0.00     0.276 OA 
BRANCH  22  25
HETATM   25  N   UNL     1     -11.574  11.317  63.473  1.00  0.00    -0.618 N  
HETATM   26  H   UNL     1     -11.840  10.585  62.815  1.00  0.00     0.000 HD 
BRANCH  25  27
HETATM   27  C   UNL     1     -10.304  11.270  64.021  1.00  0.00    -0.371 C  
HETATM   28  O   UNL     1      -9.535  12.213  64.001  1.00  0.00    -0.018 OA 
BRANCH  27  29
HETATM   29  N   UNL     1      -9.999  10.052  64.565  1.00  0.00    -0.385 N  
HETATM   30  H   UNL     1     -10.701   9.312  64.588  1.00  0.00     0.000 HD 
BRANCH  29  31
HETATM   31  C   UNL     1      -8.670   9.815  65.113  1.00  0.00    -0.168 C  
HETATM   32  C   UNL     1      -8.457   8.338  65.460  1.00  0.00    -0.177 C  
HETATM   33  C   UNL     1      -8.255   7.463  64.225  1.00  0.00     0.017 C  
HETATM   34  C   UNL     1      -7.131   7.997  63.344  1.00  0.00    -0.087 C  
HETATM   35  C   UNL     1      -7.366   9.451  62.951  1.00  0.00    -0.101 C  
HETATM   36  C   UNL     1      -7.581  10.340  64.173  1.00  0.00    -0.087 C  
ENDBRANCH  29  31
ENDBRANCH  27  29
ENDBRANCH  25  27
ENDBRANCH  22  25
ENDBRANCH  19  22
ENDBRANCH  15  16
ENDBRANCH  14  15
ENDBRANCH  13  14
ENDBRANCH   4  10
ENDBRANCH   2   3
TORSDOF 10
ENDMDL
MODEL      316
REMARK 921   NORMALIZED FREE ENERGY PREDICTED BY IDOCK:   -1.60 KCAL/MOL
REMARK 922        TOTAL FREE ENERGY PREDICTED BY IDOCK:   -4.51 KCAL/MOL
REMARK 923 INTER-LIGAND FREE ENERGY PREDICTED BY IDOCK:   -3.91 KCAL/MOL
REMARK 924 INTRA-LIGAND FREE ENERGY PREDICTED BY IDOCK:   -0.60 KCAL/MOL
REMARK 927      BINDING AFFINITY PREDICTED BY RF-SCORE:    0.00 PKD
ROOT
HETATM    1  C   UNL     1     -14.409   9.773  73.282  1.00  0.00     1.906 C  
HETATM    2  O   UNL     1     -13.054   9.982  72.887  1.00  0.00     0.292 OA 
ENDROOT
BRANCH   2   3
HETATM    3  C   UNL     1     -12.856  10.930  71.917  1.00  0.00    -0.327 A  
HETATM    4  C   UNL     1     -12.050  10.618  70.802  1.00  0.00    -0.474 A  
HETATM    5  C   UNL     1     -11.837  11.594  69.812  1.00  0.00    -0.428 A  
HETATM    6  C   UNL     1     -13.364  12.231  72.053  1.00  0.00    -0.491 A  
HETATM    7 CL   UNL     1     -12.061  14.070  68.764  1.00  0.00    -0.375 Cl 
HETATM    8  C   UNL     1     -13.113  13.202  71.084  1.00  0.00    -0.202 A  
HETATM    9  C   UNL     1     -12.361  12.876  69.964  1.00  0.00    -0.129 A  
BRANCH   4  10
HETATM   10  C   UNL     1     -11.423   9.264  70.637  1.00  0.00    -0.274 C  
HETATM   11  H   UNL     1      -9.566  10.004  71.239  1.00  0.00     0.000 HD 
HETATM   12  O   UNL     1     -12.056   8.306  70.214  1.00  0.00     0.153 OA 
HETATM   13  N   UNL     1     -10.087   9.160  71.001  1.00  0.00    -0.278 N  
BRANCH  13  14
HETATM   14  C   UNL     1      -9.417   7.873  71.048  1.00  0.00    -0.156 C  
BRANCH  14  15
HETATM   15  C   UNL     1      -9.126   7.287  69.661  1.00  0.00    -0.140 C  
BRANCH  15  16
HETATM   16  C   UNL     1      -9.322   8.235  68.490  1.00  0.00    -0.138 A  
HETATM   17  C   UNL     1     -10.006   7.876  67.317  1.00  0.00    -0.280 A  
HETATM   18  C   UNL     1     -10.096   8.758  66.237  1.00  0.00    -0.254 A  
HETATM   19  C   UNL     1      -9.510  10.020  66.322  1.00  0.00    -0.191 A  
HETATM   20  C   UNL     1      -8.770   9.524  68.571  1.00  0.00    -0.124 A  
HETATM   21  C   UNL     1      -8.848  10.408  67.490  1.00  0.00    -0.134 A  
BRANCH  19  22
HETATM   22  S   UNL     1      -9.478  11.067  64.883  1.00  0.00    -0.235 S  
HETATM   23  O   UNL     1     -10.276  10.415  63.863  1.00  0.00    -0.243 OA 
HETATM   24  O   UNL     1      -8.113  11.454  64.608  1.00  0.00     0.555 OA 
BRANCH  22  25
HETATM   25  N   UNL     1     -10.355  12.409  65.322  1.00  0.00    -0.277 N  
HETATM   26  H   UNL     1     -11.284  12.265  65.717  1.00  0.00     0.000 HD 
BRANCH  25  27
HETATM   27  C   UNL     1      -9.901  13.709  65.183  1.00  0.00    -0.085 C  
HETATM   28  O   UNL     1     -10.299  14.464  64.316  1.00  0.00    -0.066 OA 
BRANCH  27  29
HETATM   29  N   UNL     1      -8.950  14.047  66.107  1.00  0.00    -0.461 N  
HETATM   30  H   UNL     1      -8.470  13.319  66.636  1.00  0.00     0.000 HD 
BRANCH  29  31
HETATM   31  C   UNL     1      -8.625  15.449  66.334  1.00  0.00    -0.209 C  
HETATM   32  C   UNL     1      -9.680  16.140  67.204  1.00  0.00    -0.236 C  
HETATM   33  C   UNL     1      -9.589  15.739  68.674  1.00  0.00    -0.207 C  
HETATM   34  C   UNL     1      -8.183  15.955  69.223  1.00  0.00    -0.227 C  
HETATM   35  C   UNL     1      -7.135  15.224  68.391  1.00  0.00    -0.111 C  
HETATM   36  C   UNL     1      -7.217  15.605  66.915  1.00  0.00    -0.068 C  
ENDBRANCH  29  31
ENDBRANCH  27  29
ENDBRANCH  25  27
ENDBRANCH  22  25
ENDBRANCH  19  22
ENDBRANCH  15  16
ENDBRANCH  14  15
ENDBRANCH  13  14
ENDBRANCH   4  10
ENDBRANCH   2   3
TORSDOF 10
ENDMDL
MODEL      317
REMARK 921   NORMALIZED FREE ENERGY PREDICTED BY IDOCK:   -1.51 KCAL/MOL
REMARK 922        TOTAL FREE ENERGY PREDICTED BY IDOCK:   -4.37 KCAL/MOL
REMARK 923 INTER-LIGAND FREE ENERGY PREDICTED BY IDOCK:   -5.07 KCAL/MOL
REMARK 924 INTRA-LIGAND FREE ENERGY PREDICTED BY IDOCK:    0.70 KCAL/MOL
REMARK 927      BINDING AFFINITY PREDICTED BY RF-SCORE:    0.00 PKD
ROOT
HETATM    1  C   UNL     1     -10.768  14.536  68.149  1.00  0.00    -0.239 C  
HETATM    2  O   UNL     1     -11.765  13.716  67.540  1.00  0.00    -0.328 OA 
ENDROOT
BRANCH   2   3
HETATM    3  C   UNL     1     -11.409  13.126  66.355  1.00  0.00    -0.315 A  
HETATM    4  C   UNL     1     -10.789  11.859  66.375  1.00  0.00    -0.318 A  
HETATM    5  C   UNL     1     -10.413  11.258  65.160  1.00  0.00    -0.351 A  
HETATM    6  C   UNL     1     -11.568  13.794  65.131  1.00  0.00    -0.341 A  
HETATM    7 CL   UNL     1     -10.090  11.204  62.481  1.00  0.00     0.007 Cl 
HETATM    8  C   UNL     1     -11.154  13.204  63.936  1.00  0.00    -0.345 A  
HETATM    9  C   UNL     1     -10.590  11.936  63.955  1.00  0.00    -0.374 A  
BRANCH   4  10
HETATM   10  C   UNL     1     -10.531  11.127  67.660  1.00  0.00    -0.196 C  
HETATM   11  H   UNL     1     -12.545  11.265  68.191  1.00  0.00     0.000 HD 
HETATM   12  O   UNL     1      -9.404  10.780  67.990  1.00  0.00    -0.144 OA 
HETATM   13  N   UNL     1     -11.644  10.860  68.445  1.00  0.00    -0.304 N  
BRANCH  13  14
HETATM   14  C   UNL     1     -11.550  10.015  69.622  1.00  0.00    -0.096 C  
BRANCH  14  15
HETATM   15  C   UNL     1     -10.309  10.299  70.478  1.00  0.00     0.036 C  
BRANCH  15  16
HETATM   16  C   UNL     1      -9.658   9.086  71.118  1.00  0.00    -0.356 A  
HETATM   17  C   UNL     1      -8.421   9.137  71.781  1.00  0.00     0.224 A  
HETATM   18  C   UNL     1      -7.827   7.979  72.289  1.00  0.00    -0.151 A  
HETATM   19  C   UNL     1      -8.471   6.750  72.149  1.00  0.00    -0.110 A  
HETATM   20  C   UNL     1     -10.309   7.845  71.019  1.00  0.00    -0.221 A  
HETATM   21  C   UNL     1      -9.715   6.680  71.517  1.00  0.00    -0.172 A  
BRANCH  19  22
HETATM   22  S   UNL     1      -7.629   5.262  72.641  1.00  0.00    -0.098 S  
HETATM   23  O   UNL     1      -7.477   5.313  74.082  1.00  0.00    -0.086 OA 
HETATM   24  O   UNL     1      -6.478   5.064  71.790  1.00  0.00    -0.029 OA 
BRANCH  22  25
HETATM   25  N   UNL     1      -8.732   4.048  72.369  1.00  0.00    -0.105 N  
HETATM   26  H   UNL     1      -9.210   3.646  73.175  1.00  0.00     0.000 HD 
BRANCH  25  27
HETATM   27  C   UNL     1      -9.041   3.550  71.115  1.00  0.00    -0.108 C  
HETATM   28  O   UNL     1     -10.151   3.627  70.623  1.00  0.00    -0.025 OA 
BRANCH  27  29
HETATM   29  N   UNL     1      -7.977   2.950  70.498  1.00  0.00    -0.042 N  
HETATM   30  H   UNL     1      -7.029   3.121  70.834  1.00  0.00     0.000 HD 
BRANCH  29  31
HETATM   31  C   UNL     1      -8.200   2.068  69.361  1.00  0.00    -0.044 C  
HETATM   32  C   UNL     1      -9.086   2.728  68.299  1.00  0.00    -0.227 C  
HETATM   33  C   UNL     1      -8.350   3.800  67.498  1.00  0.00    -0.097 C  
HETATM   34  C   UNL     1      -7.063   3.254  66.891  1.00  0.00    -0.058 C  
HETATM   35  C   UNL     1      -6.153   2.644  67.952  1.00  0.00    -0.024 C  
HETATM   36  C   UNL     1      -6.876   1.577  68.771  1.00  0.00    -0.029 C  
ENDBRANCH  29  31
ENDBRANCH  27  29
ENDBRANCH  25  27
ENDBRANCH  22  25
ENDBRANCH  19  22
ENDBRANCH  15  16
ENDBRANCH  14  15
ENDBRANCH  13  14
ENDBRANCH   4  10
ENDBRANCH   2   3
TORSDOF 10
ENDMDL
MODEL      318
REMARK 921   NORMALIZED FREE ENERGY PREDICTED BY IDOCK:   -1.47 KCAL/MOL
REMARK 922        TOTAL FREE ENERGY PREDICTED BY IDOCK:   -4.30 KCAL/MOL
REMARK 923 INTER-LIGAND FREE ENERGY PREDICTED BY IDOCK:   -5.94 KCAL/MOL
REMARK 924 INTRA-LIGAND FREE ENERGY PREDICTED BY IDOCK:    1.64 KCAL/MOL
REMARK 927      BINDING AFFINITY PREDICTED BY RF-SCORE:    0.00 PKD
ROOT
HETATM    1  C   UNL     1     -12.359  13.629  69.847  1.00  0.00    -0.249 C  
HETATM    2  O   UNL     1     -11.937  14.093  68.566  1.00  0.00    -0.345 OA 
ENDROOT
BRANCH   2   3
HETATM    3  C   UNL     1     -10.637  14.522  68.486  1.00  0.00    -0.252 A  
HETATM    4  C   UNL     1      -9.780  13.950  67.522  1.00  0.00    -0.232 A  
HETATM    5  C   UNL     1      -8.443  14.382  67.448  1.00  0.00    -0.216 A  
HETATM    6  C   UNL     1     -10.118  15.452  69.401  1.00  0.00    -0.269 A  
HETATM    7 CL   UNL     1      -6.306  15.803  68.281  1.00  0.00    -0.110 Cl 
HETATM    8  C   UNL     1      -8.780  15.842  69.343  1.00  0.00    -0.230 A  
HETATM    9  C   UNL     1      -7.953  15.314  68.360  1.00  0.00    -0.131 A  
BRANCH   4  10
HETATM   10  C   UNL     1     -10.262  12.902  66.562  1.00  0.00    -0.259 C  
HETATM   11  H   UNL     1      -8.410  12.875  65.597  1.00  0.00     0.000 HD 
HETATM   12  O   UNL     1     -11.413  12.488  66.583  1.00  0.00    -0.317 OA 
HETATM   13  N   UNL     1      -9.324  12.424  65.657  1.00  0.00    -0.034 N  
BRANCH  13  14
HETATM   14  C   UNL     1      -9.617  11.294  64.794  1.00  0.00    -0.235 C  
BRANCH  14  15
HETATM   15  C   UNL     1     -10.298  10.130  65.524  1.00  0.00    -0.196 C  
BRANCH  15  16
HETATM   16  C   UNL     1      -9.512   9.524  66.673  1.00  0.00    -0.222 A  
HETATM   17  C   UNL     1      -8.197   9.902  66.989  1.00  0.00    -0.117 A  
HETATM   18  C   UNL     1      -7.488   9.262  68.010  1.00  0.00    -0.083 A  
HETATM   19  C   UNL     1      -8.093   8.238  68.738  1.00  0.00    -0.115 A  
HETATM   20  C   UNL     1     -10.117   8.515  67.442  1.00  0.00    -0.298 A  
HETATM   21  C   UNL     1      -9.410   7.864  68.459  1.00  0.00    -0.141 A  
BRANCH  19  22
HETATM   22  S   UNL     1      -7.128   7.314  69.912  1.00  0.00    -0.067 S  
HETATM   23  O   UNL     1      -5.921   8.076  70.168  1.00  0.00    -0.026 OA 
HETATM   24  O   UNL     1      -7.046   5.937  69.481  1.00  0.00    -0.061 OA 
BRANCH  22  25
HETATM   25  N   UNL     1      -7.996   7.400  71.328  1.00  0.00    -0.095 N  
HETATM   26  H   UNL     1      -7.742   6.765  72.085  1.00  0.00     0.000 HD 
BRANCH  25  27
HETATM   27  C   UNL     1      -9.043   8.280  71.540  1.00  0.00    -0.177 C  
HETATM   28  O   UNL     1      -9.044   9.425  71.129  1.00  0.00    -0.250 OA 
BRANCH  27  29
HETATM   29  N   UNL     1     -10.063   7.735  72.272  1.00  0.00    -0.205 N  
HETATM   30  H   UNL     1     -10.215   8.031  73.236  1.00  0.00     0.000 HD 
BRANCH  29  31
HETATM   31  C   UNL     1     -10.930   6.730  71.671  1.00  0.00    -0.235 C  
HETATM   32  C   UNL     1     -10.123   5.602  71.021  1.00  0.00    -0.266 C  
HETATM   33  C   UNL     1      -9.502   4.653  72.044  1.00  0.00    -0.191 C  
HETATM   34  C   UNL     1     -10.553   4.107  73.004  1.00  0.00    -0.256 C  
HETATM   35  C   UNL     1     -11.322   5.227  73.695  1.00  0.00     0.013 C  
HETATM   36  C   UNL     1     -11.942   6.192  72.687  1.00  0.00    -0.077 C  
ENDBRANCH  29  31
ENDBRANCH  27  29
ENDBRANCH  25  27
ENDBRANCH  22  25
ENDBRANCH  19  22
ENDBRANCH  15  16
ENDBRANCH  14  15
ENDBRANCH  13  14
ENDBRANCH   4  10
ENDBRANCH   2   3
TORSDOF 10
ENDMDL
MODEL      319
REMARK 921   NORMALIZED FREE ENERGY PREDICTED BY IDOCK:   -1.11 KCAL/MOL
REMARK 922        TOTAL FREE ENERGY PREDICTED BY IDOCK:   -3.74 KCAL/MOL
REMARK 923 INTER-LIGAND FREE ENERGY PREDICTED BY IDOCK:   -4.29 KCAL/MOL
REMARK 924 INTRA-LIGAND FREE ENERGY PREDICTED BY IDOCK:    0.55 KCAL/MOL
REMARK 927      BINDING AFFINITY PREDICTED BY RF-SCORE:    0.00 PKD
ROOT
HETATM    1  C   UNL     1      -9.451   6.881  67.058  1.00  0.00    -0.151 C  
HETATM    2  O   UNL     1      -8.776   6.643  65.824  1.00  0.00    -0.153 OA 
ENDROOT
BRANCH   2   3
HETATM    3  C   UNL     1      -9.023   5.430  65.235  1.00  0.00    -0.098 A  
HETATM    4  C   UNL     1      -8.003   4.456  65.207  1.00  0.00    -0.101 A  
HETATM    5  C   UNL     1      -8.252   3.215  64.592  1.00  0.00    -0.090 A  
HETATM    6  C   UNL     1     -10.237   5.170  64.580  1.00  0.00     0.815 A  
HETATM    7 CL   UNL     1      -9.746   1.470  63.177  1.00  0.00    -0.096 Cl 
HETATM    8  C   UNL     1     -10.458   3.952  63.939  1.00  0.00    -0.227 A  
HETATM    9  C   UNL     1      -9.470   2.977  63.958  1.00  0.00    -0.132 A  
BRANCH   4  10
HETATM   10  C   UNL     1      -6.660   4.703  65.830  1.00  0.00    -0.045 C  
HETATM   11  H   UNL     1      -7.547   5.644  67.469  1.00  0.00     0.000 HD 
HETATM   12  O   UNL     1      -5.619   4.391  65.267  1.00  0.00    -0.013 OA 
HETATM   13  N   UNL     1      -6.668   5.297  67.085  1.00  0.00    -0.057 N  
BRANCH  13  14
HETATM   14  C   UNL     1      -5.449   5.433  67.862  1.00  0.00    -0.012 C  
BRANCH  14  15
HETATM   15  C   UNL     1      -5.555   4.837  69.271  1.00  0.00    -0.012 C  
BRANCH  15  16
HETATM   16  C   UNL     1      -6.624   5.442  70.164  1.00  0.00    -0.039 A  
HETATM   17  C   UNL     1      -6.670   5.240  71.553  1.00  0.00    -0.051 A  
HETATM   18  C   UNL     1      -7.716   5.757  72.322  1.00  0.00    -0.102 A  
HETATM   19  C   UNL     1      -8.728   6.495  71.710  1.00  0.00    -0.131 A  
HETATM   20  C   UNL     1      -7.633   6.219  69.571  1.00  0.00    -0.094 A  
HETATM   21  C   UNL     1      -8.688   6.731  70.334  1.00  0.00    -0.151 A  
BRANCH  19  22
HETATM   22  S   UNL     1     -10.142   6.998  72.666  1.00  0.00    -0.191 S  
HETATM   23  O   UNL     1      -9.765   6.916  74.064  1.00  0.00    -0.236 OA 
HETATM   24  O   UNL     1     -11.313   6.303  72.183  1.00  0.00    -0.267 OA 
BRANCH  22  25
HETATM   25  N   UNL     1     -10.298   8.624  72.359  1.00  0.00    -0.301 N  
HETATM   26  H   UNL     1      -9.605   9.256  72.759  1.00  0.00     0.000 HD 
BRANCH  25  27
HETATM   27  C   UNL     1     -11.312   9.172  71.592  1.00  0.00    -0.376 C  
HETATM   28  O   UNL     1     -12.492   8.956  71.797  1.00  0.00    -0.319 OA 
BRANCH  27  29
HETATM   29  N   UNL     1     -10.850   9.963  70.576  1.00  0.00    -0.308 N  
HETATM   30  H   UNL     1      -9.948  10.431  70.663  1.00  0.00     0.000 HD 
BRANCH  29  31
HETATM   31  C   UNL     1     -11.648  10.134  69.370  1.00  0.00    -0.087 C  
HETATM   32  C   UNL     1     -12.246  11.542  69.283  1.00  0.00    -0.245 C  
HETATM   33  C   UNL     1     -11.211  12.603  68.915  1.00  0.00    -0.329 C  
HETATM   34  C   UNL     1     -10.468  12.233  67.637  1.00  0.00    -0.230 C  
HETATM   35  C   UNL     1      -9.824  10.854  67.738  1.00  0.00    -0.194 C  
HETATM   36  C   UNL     1     -10.843   9.781  68.116  1.00  0.00    -0.264 C  
ENDBRANCH  29  31
ENDBRANCH  27  29
ENDBRANCH  25  27
ENDBRANCH  22  25
ENDBRANCH  19  22
ENDBRANCH  15  16
ENDBRANCH  14  15
ENDBRANCH  13  14
ENDBRANCH   4  10
ENDBRANCH   2   3
TORSDOF 10
ENDMDL
MODEL      320
REMARK 921   NORMALIZED FREE ENERGY PREDICTED BY IDOCK:   -0.97 KCAL/MOL
REMARK 922        TOTAL FREE ENERGY PREDICTED BY IDOCK:   -3.51 KCAL/MOL
REMARK 923 INTER-LIGAND FREE ENERGY PREDICTED BY IDOCK:   -3.64 KCAL/MOL
REMARK 924 INTRA-LIGAND FREE ENERGY PREDICTED BY IDOCK:    0.14 KCAL/MOL
REMARK 927      BINDING AFFINITY PREDICTED BY RF-SCORE:    0.00 PKD
ROOT
HETATM    1  C   UNL     1     -10.954  15.339  64.836  1.00  0.00    -0.430 C  
HETATM    2  O   UNL     1      -9.875  16.032  65.463  1.00  0.00    -0.411 OA 
ENDROOT
BRANCH   2   3
HETATM    3  C   UNL     1      -9.052  15.266  66.247  1.00  0.00    -0.302 A  
HETATM    4  C   UNL     1      -7.744  15.718  66.522  1.00  0.00    -0.018 A  
HETATM    5  C   UNL     1      -6.895  14.927  67.317  1.00  0.00    -0.000 A  
HETATM    6  C   UNL     1      -9.451  14.001  66.707  1.00  0.00    -0.292 A  
HETATM    7 CL   UNL     1      -6.255  12.707  68.711  1.00  0.00    -0.070 Cl 
HETATM    8  C   UNL     1      -8.586  13.208  67.461  1.00  0.00    -0.196 A  
HETATM    9  C   UNL     1      -7.318  13.680  67.772  1.00  0.00    -0.166 A  
BRANCH   4  10
HETATM   10  C   UNL     1      -7.238  17.031  65.999  1.00  0.00    -0.019 C  
HETATM   11  H   UNL     1      -5.265  16.478  66.400  1.00  0.00     0.000 HD 
HETATM   12  O   UNL     1      -7.999  17.910  65.615  1.00  0.00    -0.527 OA 
HETATM   13  N   UNL     1      -5.858  17.186  65.967  1.00  0.00     0.061 N  
BRANCH  13  14
HETATM   14  C   UNL     1      -5.244  18.336  65.329  1.00  0.00    -0.164 C  
BRANCH  14  15
HETATM   15  C   UNL     1      -5.157  19.565  66.242  1.00  0.00    -0.161 C  
BRANCH  15  16
HETATM   16  C   UNL     1      -6.306  19.742  67.219  1.00  0.00    -0.209 A  
HETATM   17  C   UNL     1      -6.339  19.134  68.485  1.00  0.00    -0.260 A  
HETATM   18  C   UNL     1      -7.453  19.267  69.319  1.00  0.00    -0.255 A  
HETATM   19  C   UNL     1      -8.547  20.023  68.901  1.00  0.00     0.149 A  
HETATM   20  C   UNL     1      -7.402  20.530  66.830  1.00  0.00    -0.349 A  
HETATM   21  C   UNL     1      -8.523  20.659  67.657  1.00  0.00    -0.189 A  
BRANCH  19  22
HETATM   22  S   UNL     1     -10.025  20.042  69.891  1.00  0.00     0.687 S  
HETATM   23  O   UNL     1     -11.095  20.548  69.052  1.00  0.00     0.726 OA 
HETATM   24  O   UNL     1      -9.736  20.665  71.162  1.00  0.00     1.350 OA 
BRANCH  22  25
HETATM   25  N   UNL     1     -10.389  18.438  70.131  1.00  0.00     0.453 N  
HETATM   26  H   UNL     1     -10.517  18.114  71.089  1.00  0.00     0.000 HD 
BRANCH  25  27
HETATM   27  C   UNL     1     -10.529  17.516  69.108  1.00  0.00    -0.190 C  
HETATM   28  O   UNL     1     -10.452  17.811  67.930  1.00  0.00    -0.369 OA 
BRANCH  27  29
HETATM   29  N   UNL     1     -10.780  16.249  69.558  1.00  0.00    -0.301 N  
HETATM   30  H   UNL     1     -10.054  15.728  70.051  1.00  0.00     0.000 HD 
BRANCH  29  31
HETATM   31  C   UNL     1     -12.085  15.643  69.332  1.00  0.00    -0.266 C  
HETATM   32  C   UNL     1     -11.966  14.293  68.620  1.00  0.00    -0.348 C  
HETATM   33  C   UNL     1     -11.458  13.182  69.536  1.00  0.00    -0.291 C  
HETATM   34  C   UNL     1     -12.303  13.074  70.799  1.00  0.00    -0.394 C  
HETATM   35  C   UNL     1     -12.380  14.404  71.542  1.00  0.00    -0.427 C  
HETATM   36  C   UNL     1     -12.877  15.529  70.638  1.00  0.00    -0.466 C  
ENDBRANCH  29  31
ENDBRANCH  27  29
ENDBRANCH  25  27
ENDBRANCH  22  25
ENDBRANCH  19  22
ENDBRANCH  15  16
ENDBRANCH  14  15
ENDBRANCH  13  14
ENDBRANCH   4  10
ENDBRANCH   2   3
TORSDOF 10
ENDMDL
MODEL      321
REMARK 921   NORMALIZED FREE ENERGY PREDICTED BY IDOCK:   -0.95 KCAL/MOL
REMARK 922        TOTAL FREE ENERGY PREDICTED BY IDOCK:   -3.48 KCAL/MOL
REMARK 923 INTER-LIGAND FREE ENERGY PREDICTED BY IDOCK:   -3.73 KCAL/MOL
REMARK 924 INTRA-LIGAND FREE ENERGY PREDICTED BY IDOCK:    0.25 KCAL/MOL
REMARK 927      BINDING AFFINITY PREDICTED BY RF-SCORE:    0.00 PKD
ROOT
HETATM    1  C   UNL     1      -9.208   6.803  67.204  1.00  0.00    -0.134 C  
HETATM    2  O   UNL     1      -8.723   6.507  65.895  1.00  0.00    -0.149 OA 
ENDROOT
BRANCH   2   3
HETATM    3  C   UNL     1      -9.165   5.331  65.348  1.00  0.00    -0.080 A  
HETATM    4  C   UNL     1      -8.274   4.242  65.240  1.00  0.00    -0.106 A  
HETATM    5  C   UNL     1      -8.724   3.038  64.668  1.00  0.00    -0.102 A  
HETATM    6  C   UNL     1     -10.458   5.215  64.813  1.00  0.00     0.884 A  
HETATM    7 CL   UNL     1     -10.539   1.478  63.422  1.00  0.00    -0.142 Cl 
HETATM    8  C   UNL     1     -10.880   4.029  64.212  1.00  0.00    -0.149 A  
HETATM    9  C   UNL     1     -10.016   2.944  64.153  1.00  0.00    -0.135 A  
BRANCH   4  10
HETATM   10  C   UNL     1      -6.859   4.330  65.732  1.00  0.00    -0.057 C  
HETATM   11  H   UNL     1      -7.386   5.809  67.109  1.00  0.00     0.000 HD 
HETATM   12  O   UNL     1      -5.958   3.670  65.230  1.00  0.00    -0.021 OA 
HETATM   13  N   UNL     1      -6.634   5.195  66.795  1.00  0.00    -0.051 N  
BRANCH  13  14
HETATM   14  C   UNL     1      -5.349   5.242  67.468  1.00  0.00    -0.012 C  
BRANCH  14  15
HETATM   15  C   UNL     1      -5.131   4.082  68.447  1.00  0.00    -0.007 C  
BRANCH  15  16
HETATM   16  C   UNL     1      -6.033   4.071  69.669  1.00  0.00    -0.022 A  
HETATM   17  C   UNL     1      -5.635   3.554  70.912  1.00  0.00    -0.012 A  
HETATM   18  C   UNL     1      -6.527   3.499  71.988  1.00  0.00    -0.015 A  
HETATM   19  C   UNL     1      -7.829   3.973  71.834  1.00  0.00    -0.075 A  
HETATM   20  C   UNL     1      -7.337   4.577  69.544  1.00  0.00    -0.051 A  
HETATM   21  C   UNL     1      -8.237   4.517  70.613  1.00  0.00    -0.076 A  
BRANCH  19  22
HETATM   22  S   UNL     1      -9.004   3.739  73.149  1.00  0.00    -0.099 S  
HETATM   23  O   UNL     1      -8.250   3.399  74.341  1.00  0.00    -0.069 OA 
HETATM   24  O   UNL     1     -10.069   2.879  72.687  1.00  0.00    -0.142 OA 
BRANCH  22  25
HETATM   25  N   UNL     1      -9.610   5.259  73.445  1.00  0.00    -0.140 N  
HETATM   26  H   UNL     1      -8.978   5.959  73.832  1.00  0.00     0.000 HD 
BRANCH  25  27
HETATM   27  C   UNL     1     -10.920   5.631  73.197  1.00  0.00    -0.285 C  
HETATM   28  O   UNL     1     -11.869   4.894  73.390  1.00  0.00    -0.197 OA 
BRANCH  27  29
HETATM   29  N   UNL     1     -11.033   6.899  72.696  1.00  0.00    -0.255 N  
HETATM   30  H   UNL     1     -10.589   7.680  73.179  1.00  0.00     0.000 HD 
BRANCH  29  31
HETATM   31  C   UNL     1     -11.788   7.132  71.473  1.00  0.00    -0.313 C  
HETATM   32  C   UNL     1     -12.832   8.239  71.655  1.00  0.00    -0.350 C  
HETATM   33  C   UNL     1     -12.213   9.634  71.701  1.00  0.00    -0.484 C  
HETATM   34  C   UNL     1     -11.332   9.891  70.484  1.00  0.00    -0.399 C  
HETATM   35  C   UNL     1     -10.257   8.821  70.329  1.00  0.00    -0.220 C  
HETATM   36  C   UNL     1     -10.857   7.418  70.291  1.00  0.00    -0.260 C  
ENDBRANCH  29  31
ENDBRANCH  27  29
ENDBRANCH  25  27
ENDBRANCH  22  25
ENDBRANCH  19  22
ENDBRANCH  15  16
ENDBRANCH  14  15
ENDBRANCH  13  14
ENDBRANCH   4  10
ENDBRANCH   2   3
TORSDOF 10
ENDMDL
MODEL      322
REMARK 921   NORMALIZED FREE ENERGY PREDICTED BY IDOCK:   -0.69 KCAL/MOL
REMARK 922        TOTAL FREE ENERGY PREDICTED BY IDOCK:   -3.07 KCAL/MOL
REMARK 923 INTER-LIGAND FREE ENERGY PREDICTED BY IDOCK:   -4.35 KCAL/MOL
REMARK 924 INTRA-LIGAND FREE ENERGY PREDICTED BY IDOCK:    1.28 KCAL/MOL
REMARK 927      BINDING AFFINITY PREDICTED BY RF-SCORE:    0.00 PKD
ROOT
HETATM    1  C   UNL     1     -10.645  13.956  67.756  1.00  0.00    -0.246 C  
HETATM    2  O   UNL     1     -11.651  13.077  67.253  1.00  0.00    -0.315 OA 
ENDROOT
BRANCH   2   3
HETATM    3  C   UNL     1     -11.324  12.390  66.113  1.00  0.00    -0.352 A  
HETATM    4  C   UNL     1     -10.387  11.337  66.186  1.00  0.00    -0.300 A  
HETATM    5  C   UNL     1     -10.044  10.640  65.013  1.00  0.00    -0.388 A  
HETATM    6  C   UNL     1     -11.835  12.769  64.861  1.00  0.00    -0.424 A  
HETATM    7 CL   UNL     1     -10.113  10.189  62.354  1.00  0.00     0.363 Cl 
HETATM    8  C   UNL     1     -11.456  12.095  63.700  1.00  0.00    -0.566 A  
HETATM    9  C   UNL     1     -10.572  11.027  63.784  1.00  0.00    -0.295 A  
BRANCH   4  10
HETATM   10  C   UNL     1      -9.756  10.933  67.486  1.00  0.00    -0.167 C  
HETATM   11  H   UNL     1     -11.443  11.556  68.547  1.00  0.00     0.000 HD 
HETATM   12  O   UNL     1      -8.616  10.492  67.540  1.00  0.00    -0.121 OA 
HETATM   13  N   UNL     1     -10.543  11.079  68.620  1.00  0.00    -0.185 N  
BRANCH  13  14
HETATM   14  C   UNL     1     -10.111  10.568  69.908  1.00  0.00     0.001 C  
BRANCH  14  15
HETATM   15  C   UNL     1      -8.588  10.576  70.087  1.00  0.00     0.639 C  
BRANCH  15  16
HETATM   16  C   UNL     1      -8.009   9.401  70.854  1.00  0.00    -0.096 A  
HETATM   17  C   UNL     1      -6.788   8.792  70.522  1.00  0.00    -0.046 A  
HETATM   18  C   UNL     1      -6.332   7.666  71.212  1.00  0.00    -0.035 A  
HETATM   19  C   UNL     1      -7.091   7.138  72.256  1.00  0.00    -0.068 A  
HETATM   20  C   UNL     1      -8.742   8.877  71.933  1.00  0.00    -0.086 A  
HETATM   21  C   UNL     1      -8.296   7.744  72.622  1.00  0.00    -0.177 A  
BRANCH  19  22
HETATM   22  S   UNL     1      -6.591   5.607  73.011  1.00  0.00    -0.074 S  
HETATM   23  O   UNL     1      -5.387   5.878  73.773  1.00  0.00    -0.027 OA 
HETATM   24  O   UNL     1      -6.607   4.559  72.016  1.00  0.00    -0.021 OA 
BRANCH  22  25
HETATM   25  N   UNL     1      -7.761   5.302  74.153  1.00  0.00    -0.093 N  
HETATM   26  H   UNL     1      -7.536   5.489  75.130  1.00  0.00     0.000 HD 
BRANCH  25  27
HETATM   27  C   UNL     1      -9.020   4.809  73.858  1.00  0.00    -0.113 C  
HETATM   28  O   UNL     1     -10.045   5.425  74.084  1.00  0.00    -0.193 OA 
BRANCH  27  29
HETATM   29  N   UNL     1      -8.992   3.558  73.307  1.00  0.00    -0.097 N  
HETATM   30  H   UNL     1      -8.220   2.924  73.516  1.00  0.00     0.000 HD 
BRANCH  29  31
HETATM   31  C   UNL     1     -10.066   3.131  72.420  1.00  0.00    -0.157 C  
HETATM   32  C   UNL     1     -10.256   4.105  71.253  1.00  0.00    -0.067 C  
HETATM   33  C   UNL     1      -9.156   3.990  70.201  1.00  0.00    -0.186 C  
HETATM   34  C   UNL     1      -9.004   2.555  69.711  1.00  0.00    -0.159 C  
HETATM   35  C   UNL     1      -8.760   1.588  70.864  1.00  0.00    -0.095 C  
HETATM   36  C   UNL     1      -9.846   1.696  71.932  1.00  0.00    -0.205 C  
ENDBRANCH  29  31
ENDBRANCH  27  29
ENDBRANCH  25  27
ENDBRANCH  22  25
ENDBRANCH  19  22
ENDBRANCH  15  16
ENDBRANCH  14  15
ENDBRANCH  13  14
ENDBRANCH   4  10
ENDBRANCH   2   3
TORSDOF 10
ENDMDL
MODEL      323
REMARK 921   NORMALIZED FREE ENERGY PREDICTED BY IDOCK:   -0.65 KCAL/MOL
REMARK 922        TOTAL FREE ENERGY PREDICTED BY IDOCK:   -3.00 KCAL/MOL
REMARK 923 INTER-LIGAND FREE ENERGY PREDICTED BY IDOCK:   -2.54 KCAL/MOL
REMARK 924 INTRA-LIGAND FREE ENERGY PREDICTED BY IDOCK:   -0.46 KCAL/MOL
REMARK 927      BINDING AFFINITY PREDICTED BY RF-SCORE:    0.00 PKD
ROOT
HETATM    1  C   UNL     1      -9.006   6.300  66.850  1.00  0.00    -0.120 C  
HETATM    2  O   UNL     1      -8.047   5.759  65.942  1.00  0.00    -0.105 OA 
ENDROOT
BRANCH   2   3
HETATM    3  C   UNL     1      -8.500   4.754  65.128  1.00  0.00    -0.135 A  
HETATM    4  C   UNL     1      -7.721   3.587  64.975  1.00  0.00    -0.081 A  
HETATM    5  C   UNL     1      -8.179   2.560  64.130  1.00  0.00    -0.082 A  
HETATM    6  C   UNL     1      -9.676   4.897  64.375  1.00  0.00     0.297 A  
HETATM    7 CL   UNL     1      -9.884   1.472  62.343  1.00  0.00    -0.087 Cl 
HETATM    8  C   UNL     1     -10.100   3.888  63.511  1.00  0.00    -0.176 A  
HETATM    9  C   UNL     1      -9.356   2.721  63.401  1.00  0.00    -0.096 A  
BRANCH   4  10
HETATM   10  C   UNL     1      -6.420   3.407  65.701  1.00  0.00    -0.033 C  
HETATM   11  H   UNL     1      -7.364   3.669  67.544  1.00  0.00     0.000 HD 
HETATM   12  O   UNL     1      -5.363   3.248  65.103  1.00  0.00    -0.009 OA 
HETATM   13  N   UNL     1      -6.487   3.421  67.088  1.00  0.00    -0.036 N  
BRANCH  13  14
HETATM   14  C   UNL     1      -5.330   3.089  67.901  1.00  0.00    -0.013 C  
BRANCH  14  15
HETATM   15  C   UNL     1      -5.693   2.650  69.325  1.00  0.00    -0.022 C  
BRANCH  15  16
HETATM   16  C   UNL     1      -6.015   3.771  70.298  1.00  0.00    -0.018 A  
HETATM   17  C   UNL     1      -5.472   3.845  71.591  1.00  0.00    -0.007 A  
HETATM   18  C   UNL     1      -5.857   4.856  72.477  1.00  0.00    -0.017 A  
HETATM   19  C   UNL     1      -6.785   5.815  72.074  1.00  0.00    -0.063 A  
HETATM   20  C   UNL     1      -6.921   4.767  69.897  1.00  0.00    -0.052 A  
HETATM   21  C   UNL     1      -7.317   5.776  70.782  1.00  0.00    -0.084 A  
BRANCH  19  22
HETATM   22  S   UNL     1      -7.399   6.990  73.261  1.00  0.00    -0.072 S  
HETATM   23  O   UNL     1      -6.424   7.062  74.333  1.00  0.00    -0.078 OA 
HETATM   24  O   UNL     1      -8.783   6.694  73.550  1.00  0.00    -0.122 OA 
BRANCH  22  25
HETATM   25  N   UNL     1      -7.297   8.458  72.489  1.00  0.00    -0.104 N  
HETATM   26  H   UNL     1      -6.480   9.040  72.673  1.00  0.00     0.000 HD 
BRANCH  25  27
HETATM   27  C   UNL     1      -8.253   8.939  71.611  1.00  0.00    -0.040 C  
HETATM   28  O   UNL     1      -9.444   8.946  71.864  1.00  0.00    -0.290 OA 
BRANCH  27  29
HETATM   29  N   UNL     1      -7.724   9.383  70.431  1.00  0.00    -0.138 N  
HETATM   30  H   UNL     1      -6.983  10.084  70.435  1.00  0.00     0.000 HD 
BRANCH  29  31
HETATM   31  C   UNL     1      -8.221   8.854  69.168  1.00  0.00    -0.118 C  
HETATM   32  C   UNL     1      -9.610   9.406  68.831  1.00  0.00    -0.155 C  
HETATM   33  C   UNL     1      -9.572  10.859  68.365  1.00  0.00    -0.177 C  
HETATM   34  C   UNL     1      -8.601  11.045  67.205  1.00  0.00    -0.136 C  
HETATM   35  C   UNL     1      -7.203  10.547  67.554  1.00  0.00    -0.090 C  
HETATM   36  C   UNL     1      -7.223   9.097  68.033  1.00  0.00    -0.079 C  
ENDBRANCH  29  31
ENDBRANCH  27  29
ENDBRANCH  25  27
ENDBRANCH  22  25
ENDBRANCH  19  22
ENDBRANCH  15  16
ENDBRANCH  14  15
ENDBRANCH  13  14
ENDBRANCH   4  10
ENDBRANCH   2   3
TORSDOF 10
ENDMDL
MODEL      324
REMARK 921   NORMALIZED FREE ENERGY PREDICTED BY IDOCK:   -0.45 KCAL/MOL
REMARK 922        TOTAL FREE ENERGY PREDICTED BY IDOCK:   -2.69 KCAL/MOL
REMARK 923 INTER-LIGAND FREE ENERGY PREDICTED BY IDOCK:   -3.17 KCAL/MOL
REMARK 924 INTRA-LIGAND FREE ENERGY PREDICTED BY IDOCK:    0.48 KCAL/MOL
REMARK 927      BINDING AFFINITY PREDICTED BY RF-SCORE:    0.00 PKD
ROOT
HETATM    1  C   UNL     1      -7.934  14.042  67.092  1.00  0.00    -0.059 C  
HETATM    2  O   UNL     1      -8.689  12.916  66.649  1.00  0.00    -0.156 OA 
ENDROOT
BRANCH   2   3
HETATM    3  C   UNL     1      -8.115  11.690  66.868  1.00  0.00    -0.164 A  
HETATM    4  C   UNL     1      -8.810  10.730  67.635  1.00  0.00    -0.132 A  
HETATM    5  C   UNL     1      -8.216   9.477  67.870  1.00  0.00    -0.114 A  
HETATM    6  C   UNL     1      -6.816  11.402  66.423  1.00  0.00    -0.003 A  
HETATM    7 CL   UNL     1      -6.201   7.687  67.735  1.00  0.00    -0.048 Cl 
HETATM    8  C   UNL     1      -6.222  10.170  66.696  1.00  0.00    -0.070 A  
HETATM    9  C   UNL     1      -6.929   9.210  67.408  1.00  0.00    -0.078 A  
BRANCH   4  10
HETATM   10  C   UNL     1     -10.174  11.007  68.196  1.00  0.00    -0.182 C  
HETATM   11  H   UNL     1     -10.624   8.968  68.219  1.00  0.00     0.000 HD 
HETATM   12  O   UNL     1     -10.575  12.147  68.385  1.00  0.00    -0.212 OA 
HETATM   13  N   UNL     1     -10.949   9.894  68.496  1.00  0.00    -0.210 N  
BRANCH  13  14
HETATM   14  C   UNL     1     -12.213  10.024  69.198  1.00  0.00     0.718 C  
BRANCH  14  15
HETATM   15  C   UNL     1     -12.098   9.786  70.709  1.00  0.00    -0.364 C  
BRANCH  15  16
HETATM   16  C   UNL     1     -10.837   9.078  71.170  1.00  0.00    -0.364 A  
HETATM   17  C   UNL     1     -10.848   7.831  71.816  1.00  0.00    -0.277 A  
HETATM   18  C   UNL     1      -9.666   7.254  72.289  1.00  0.00    -0.177 A  
HETATM   19  C   UNL     1      -8.452   7.915  72.111  1.00  0.00    -0.132 A  
HETATM   20  C   UNL     1      -9.599   9.712  70.968  1.00  0.00     0.005 A  
HETATM   21  C   UNL     1      -8.414   9.144  71.447  1.00  0.00    -0.041 A  
BRANCH  19  22
HETATM   22  S   UNL     1      -6.981   7.258  72.868  1.00  0.00    -0.069 S  
HETATM   23  O   UNL     1      -7.180   7.312  74.304  1.00  0.00    -0.097 OA 
HETATM   24  O   UNL     1      -5.822   7.876  72.267  1.00  0.00    -0.039 OA 
BRANCH  22  25
HETATM   25  N   UNL     1      -7.003   5.639  72.492  1.00  0.00    -0.081 N  
HETATM   26  H   UNL     1      -7.135   5.376  71.515  1.00  0.00     0.000 HD 
BRANCH  25  27
HETATM   27  C   UNL     1      -6.854   4.627  73.424  1.00  0.00    -0.068 C  
HETATM   28  O   UNL     1      -6.164   4.736  74.420  1.00  0.00    -0.048 OA 
BRANCH  27  29
HETATM   29  N   UNL     1      -7.544   3.491  73.098  1.00  0.00    -0.063 N  
HETATM   30  H   UNL     1      -7.344   3.004  72.225  1.00  0.00     0.000 HD 
BRANCH  29  31
HETATM   31  C   UNL     1      -8.565   2.979  74.002  1.00  0.00    -0.073 C  
HETATM   32  C   UNL     1      -9.455   4.102  74.545  1.00  0.00    -0.133 C  
HETATM   33  C   UNL     1     -10.443   4.629  73.507  1.00  0.00    -0.275 C  
HETATM   34  C   UNL     1     -11.273   3.500  72.907  1.00  0.00     0.076 C  
HETATM   35  C   UNL     1     -10.392   2.404  72.316  1.00  0.00    -0.156 C  
HETATM   36  C   UNL     1      -9.389   1.872  73.338  1.00  0.00    -0.082 C  
ENDBRANCH  29  31
ENDBRANCH  27  29
ENDBRANCH  25  27
ENDBRANCH  22  25
ENDBRANCH  19  22
ENDBRANCH  15  16
ENDBRANCH  14  15
ENDBRANCH  13  14
ENDBRANCH   4  10
ENDBRANCH   2   3
TORSDOF 10
ENDMDL
MODEL      325
REMARK 921   NORMALIZED FREE ENERGY PREDICTED BY IDOCK:   -0.19 KCAL/MOL
REMARK 922        TOTAL FREE ENERGY PREDICTED BY IDOCK:   -2.27 KCAL/MOL
REMARK 923 INTER-LIGAND FREE ENERGY PREDICTED BY IDOCK:   -4.25 KCAL/MOL
REMARK 924 INTRA-LIGAND FREE ENERGY PREDICTED BY IDOCK:    1.98 KCAL/MOL
REMARK 927      BINDING AFFINITY PREDICTED BY RF-SCORE:    0.00 PKD
ROOT
HETATM    1  C   UNL     1     -10.738   1.549  70.523  1.00  0.00     1.628 C  
HETATM    2  O   UNL     1      -9.475   2.179  70.316  1.00  0.00    -0.118 OA 
ENDROOT
BRANCH   2   3
HETATM    3  C   UNL     1      -9.136   3.149  71.223  1.00  0.00    -0.109 A  
HETATM    4  C   UNL     1      -9.361   4.504  70.901  1.00  0.00    -0.219 A  
HETATM    5  C   UNL     1      -9.003   5.500  71.828  1.00  0.00    -0.144 A  
HETATM    6  C   UNL     1      -8.490   2.827  72.428  1.00  0.00    -0.077 A  
HETATM    7 CL   UNL     1      -7.906   6.387  74.129  1.00  0.00    -0.097 Cl 
HETATM    8  C   UNL     1      -8.104   3.827  73.321  1.00  0.00    -0.087 A  
HETATM    9  C   UNL     1      -8.372   5.156  73.022  1.00  0.00    -0.112 A  
BRANCH   4  10
HETATM   10  C   UNL     1      -9.985   4.912  69.599  1.00  0.00    -0.231 C  
HETATM   11  H   UNL     1     -10.606   6.729  70.417  1.00  0.00     0.000 HD 
HETATM   12  O   UNL     1      -9.998   4.166  68.628  1.00  0.00    -0.069 OA 
HETATM   13  N   UNL     1     -10.537   6.185  69.557  1.00  0.00    -0.253 N  
BRANCH  13  14
HETATM   14  C   UNL     1     -11.017   6.757  68.312  1.00  0.00    -0.197 C  
BRANCH  14  15
HETATM   15  C   UNL     1      -9.891   7.137  67.343  1.00  0.00    -0.200 C  
BRANCH  15  16
HETATM   16  C   UNL     1      -9.436   8.585  67.397  1.00  0.00    -0.188 A  
HETATM   17  C   UNL     1     -10.112   9.576  68.127  1.00  0.00    -0.214 A  
HETATM   18  C   UNL     1      -9.697  10.911  68.086  1.00  0.00    -0.174 A  
HETATM   19  C   UNL     1      -8.589  11.269  67.319  1.00  0.00    -0.143 A  
HETATM   20  C   UNL     1      -8.301   8.960  66.659  1.00  0.00    -0.111 A  
HETATM   21  C   UNL     1      -7.886  10.295  66.606  1.00  0.00    -0.116 A  
BRANCH  19  22
HETATM   22  S   UNL     1      -8.176  12.990  67.134  1.00  0.00    -0.075 S  
HETATM   23  O   UNL     1      -9.048  13.531  66.109  1.00  0.00    -0.058 OA 
HETATM   24  O   UNL     1      -6.742  13.124  67.019  1.00  0.00    -0.088 OA 
BRANCH  22  25
HETATM   25  N   UNL     1      -8.686  13.698  68.549  1.00  0.00    -0.302 N  
HETATM   26  H   UNL     1      -8.499  13.209  69.424  1.00  0.00     0.000 HD 
BRANCH  25  27
HETATM   27  C   UNL     1      -9.349  14.911  68.611  1.00  0.00    -0.194 C  
HETATM   28  O   UNL     1      -9.201  15.704  69.522  1.00  0.00    -0.272 OA 
BRANCH  27  29
HETATM   29  N   UNL     1     -10.196  15.115  67.556  1.00  0.00    -0.237 N  
HETATM   30  H   UNL     1      -9.820  15.253  66.618  1.00  0.00     0.000 HD 
BRANCH  29  31
HETATM   31  C   UNL     1     -11.636  15.136  67.775  1.00  0.00    -0.289 C  
HETATM   32  C   UNL     1     -12.237  13.727  67.716  1.00  0.00    -0.208 C  
HETATM   33  C   UNL     1     -11.921  12.896  68.957  1.00  0.00    -0.297 C  
HETATM   34  C   UNL     1     -12.330  13.624  70.232  1.00  0.00    -0.392 C  
HETATM   35  C   UNL     1     -11.691  15.005  70.323  1.00  0.00    -0.338 C  
HETATM   36  C   UNL     1     -11.988  15.848  69.084  1.00  0.00    -0.268 C  
ENDBRANCH  29  31
ENDBRANCH  27  29
ENDBRANCH  25  27
ENDBRANCH  22  25
ENDBRANCH  19  22
ENDBRANCH  15  16
ENDBRANCH  14  15
ENDBRANCH  13  14
ENDBRANCH   4  10
ENDBRANCH   2   3
TORSDOF 10
ENDMDL
MODEL      326
REMARK 921   NORMALIZED FREE ENERGY PREDICTED BY IDOCK:   -0.03 KCAL/MOL
REMARK 922        TOTAL FREE ENERGY PREDICTED BY IDOCK:   -2.02 KCAL/MOL
REMARK 923 INTER-LIGAND FREE ENERGY PREDICTED BY IDOCK:   -1.59 KCAL/MOL
REMARK 924 INTRA-LIGAND FREE ENERGY PREDICTED BY IDOCK:   -0.43 KCAL/MOL
REMARK 927      BINDING AFFINITY PREDICTED BY RF-SCORE:    0.00 PKD
ROOT
HETATM    1  C   UNL     1     -10.496   1.468  70.061  1.00  0.00     1.257 C  
HETATM    2  O   UNL     1      -9.240   2.144  70.022  1.00  0.00    -0.098 OA 
ENDROOT
BRANCH   2   3
HETATM    3  C   UNL     1      -9.060   3.122  70.966  1.00  0.00    -0.114 A  
HETATM    4  C   UNL     1      -9.291   4.469  70.616  1.00  0.00    -0.223 A  
HETATM    5  C   UNL     1      -9.095   5.474  71.581  1.00  0.00    -0.155 A  
HETATM    6  C   UNL     1      -8.565   2.820  72.244  1.00  0.00    -0.085 A  
HETATM    7 CL   UNL     1      -8.343   6.391  74.004  1.00  0.00    -0.116 Cl 
HETATM    8  C   UNL     1      -8.337   3.829  73.180  1.00  0.00    -0.091 A  
HETATM    9  C   UNL     1      -8.614   5.148  72.848  1.00  0.00    -0.115 A  
BRANCH   4  10
HETATM   10  C   UNL     1      -9.754   4.859  69.243  1.00  0.00    -0.188 C  
HETATM   11  H   UNL     1     -10.648   6.591  69.990  1.00  0.00     0.000 HD 
HETATM   12  O   UNL     1      -9.560   4.143  68.269  1.00  0.00    -0.158 OA 
HETATM   13  N   UNL     1     -10.406   6.080  69.141  1.00  0.00    -0.205 N  
BRANCH  13  14
HETATM   14  C   UNL     1     -10.750   6.644  67.848  1.00  0.00    -0.274 C  
BRANCH  14  15
HETATM   15  C   UNL     1      -9.536   7.153  67.063  1.00  0.00    -0.192 C  
BRANCH  15  16
HETATM   16  C   UNL     1      -9.160   8.606  67.298  1.00  0.00    -0.152 A  
HETATM   17  C   UNL     1      -9.997   9.518  67.960  1.00  0.00    -0.198 A  
HETATM   18  C   UNL     1      -9.639  10.864  68.087  1.00  0.00    -0.169 A  
HETATM   19  C   UNL     1      -8.429  11.312  67.559  1.00  0.00    -0.131 A  
HETATM   20  C   UNL     1      -7.929   9.069  66.805  1.00  0.00    -0.107 A  
HETATM   21  C   UNL     1      -7.569  10.416  66.920  1.00  0.00    -0.107 A  
BRANCH  19  22
HETATM   22  S   UNL     1      -8.064  13.053  67.570  1.00  0.00    -0.186 S  
HETATM   23  O   UNL     1      -8.583  13.607  66.334  1.00  0.00     0.095 OA 
HETATM   24  O   UNL     1      -6.679  13.246  67.933  1.00  0.00    -0.108 OA 
BRANCH  22  25
HETATM   25  N   UNL     1      -9.040  13.678  68.763  1.00  0.00    -0.391 N  
HETATM   26  H   UNL     1      -9.942  13.232  68.926  1.00  0.00     0.000 HD 
BRANCH  25  27
HETATM   27  C   UNL     1      -8.701  14.768  69.546  1.00  0.00     0.117 C  
HETATM   28  O   UNL     1      -9.164  14.959  70.656  1.00  0.00     0.955 OA 
BRANCH  27  29
HETATM   29  N   UNL     1      -7.813  15.612  68.939  1.00  0.00    -0.170 N  
HETATM   30  H   UNL     1      -7.310  15.309  68.104  1.00  0.00     0.000 HD 
BRANCH  29  31
HETATM   31  C   UNL     1      -7.585  16.943  69.485  1.00  0.00     0.222 C  
HETATM   32  C   UNL     1      -6.411  17.644  68.796  1.00  0.00    -0.200 C  
HETATM   33  C   UNL     1      -6.754  18.130  67.390  1.00  0.00    -0.205 C  
HETATM   34  C   UNL     1      -8.002  19.006  67.395  1.00  0.00    -0.272 C  
HETATM   35  C   UNL     1      -9.189  18.291  68.031  1.00  0.00    -0.300 C  
HETATM   36  C   UNL     1      -8.861  17.789  69.435  1.00  0.00     0.469 C  
ENDBRANCH  29  31
ENDBRANCH  27  29
ENDBRANCH  25  27
ENDBRANCH  22  25
ENDBRANCH  19  22
ENDBRANCH  15  16
ENDBRANCH  14  15
ENDBRANCH  13  14
ENDBRANCH   4  10
ENDBRANCH   2   3
TORSDOF 10
ENDMDL
MODEL      327
REMARK 921   NORMALIZED FREE ENERGY PREDICTED BY IDOCK:    0.78 KCAL/MOL
REMARK 922        TOTAL FREE ENERGY PREDICTED BY IDOCK:   -0.74 KCAL/MOL
REMARK 923 INTER-LIGAND FREE ENERGY PREDICTED BY IDOCK:   -2.40 KCAL/MOL
REMARK 924 INTRA-LIGAND FREE ENERGY PREDICTED BY IDOCK:    1.67 KCAL/MOL
REMARK 927      BINDING AFFINITY PREDICTED BY RF-SCORE:    0.00 PKD
ROOT
HETATM    1  C   UNL     1      -5.871   8.165  68.659  1.00  0.00    -0.040 C  
HETATM    2  O   UNL     1      -7.180   7.897  68.159  1.00  0.00    -0.085 OA 
ENDROOT
BRANCH   2   3
HETATM    3  C   UNL     1      -8.213   8.448  68.871  1.00  0.00    -0.115 A  
HETATM    4  C   UNL     1      -8.626   7.838  70.075  1.00  0.00    -0.140 A  
HETATM    5  C   UNL     1      -9.694   8.397  70.799  1.00  0.00    -0.207 A  
HETATM    6  C   UNL     1      -8.927   9.554  68.383  1.00  0.00    -0.127 A  
HETATM    7 CL   UNL     1     -11.709  10.152  71.178  1.00  0.00    -0.453 Cl 
HETATM    8  C   UNL     1     -10.010  10.076  69.091  1.00  0.00    -0.213 A  
HETATM    9  C   UNL     1     -10.381   9.502  70.300  1.00  0.00    -0.269 A  
BRANCH   4  10
HETATM   10  C   UNL     1      -7.944   6.613  70.611  1.00  0.00    -0.111 C  
HETATM   11  H   UNL     1      -6.093   7.577  70.578  1.00  0.00     0.000 HD 
HETATM   12  O   UNL     1      -8.555   5.572  70.816  1.00  0.00    -0.122 OA 
HETATM   13  N   UNL     1      -6.585   6.732  70.869  1.00  0.00    -0.052 N  
BRANCH  13  14
HETATM   14  C   UNL     1      -5.852   5.677  71.544  1.00  0.00    -0.025 C  
BRANCH  14  15
HETATM   15  C   UNL     1      -5.502   4.497  70.630  1.00  0.00    -0.008 C  
BRANCH  15  16
HETATM   16  C   UNL     1      -6.021   4.590  69.206  1.00  0.00    -0.022 A  
HETATM   17  C   UNL     1      -7.288   4.127  68.818  1.00  0.00    -0.055 A  
HETATM   18  C   UNL     1      -7.692   4.167  67.480  1.00  0.00    -0.080 A  
HETATM   19  C   UNL     1      -6.833   4.684  66.511  1.00  0.00    -0.058 A  
HETATM   20  C   UNL     1      -5.183   5.141  68.221  1.00  0.00    -0.003 A  
HETATM   21  C   UNL     1      -5.577   5.175  66.879  1.00  0.00    -0.013 A  
BRANCH  19  22
HETATM   22  S   UNL     1      -7.283   4.570  64.794  1.00  0.00    -0.064 S  
HETATM   23  O   UNL     1      -8.694   4.895  64.699  1.00  0.00    -0.149 OA 
HETATM   24  O   UNL     1      -6.782   3.327  64.253  1.00  0.00    -0.034 OA 
BRANCH  22  25
HETATM   25  N   UNL     1      -6.499   5.845  64.070  1.00  0.00    -0.032 N  
HETATM   26  H   UNL     1      -6.081   5.691  63.152  1.00  0.00     0.000 HD 
BRANCH  25  27
HETATM   27  C   UNL     1      -6.380   7.102  64.637  1.00  0.00    -0.037 C  
HETATM   28  O   UNL     1      -5.322   7.558  65.028  1.00  0.00    -0.028 OA 
BRANCH  27  29
HETATM   29  N   UNL     1      -7.573   7.765  64.727  1.00  0.00    -0.100 N  
HETATM   30  H   UNL     1      -7.954   8.009  65.641  1.00  0.00     0.000 HD 
BRANCH  29  31
HETATM   31  C   UNL     1      -8.298   8.124  63.515  1.00  0.00     0.018 C  
HETATM   32  C   UNL     1      -9.405   9.144  63.799  1.00  0.00     0.534 C  
HETATM   33  C   UNL     1      -8.864  10.548  64.056  1.00  0.00    -0.206 C  
HETATM   34  C   UNL     1      -7.958  11.010  62.921  1.00  0.00     0.116 C  
HETATM   35  C   UNL     1      -6.821  10.025  62.671  1.00  0.00    -0.123 C  
HETATM   36  C   UNL     1      -7.343   8.611  62.422  1.00  0.00    -0.101 C  
ENDBRANCH  29  31
ENDBRANCH  27  29
ENDBRANCH  25  27
ENDBRANCH  22  25
ENDBRANCH  19  22
ENDBRANCH  15  16
ENDBRANCH  14  15
ENDBRANCH  13  14
ENDBRANCH   4  10
ENDBRANCH   2   3
TORSDOF 10
ENDMDL
MODEL      328
REMARK 921   NORMALIZED FREE ENERGY PREDICTED BY IDOCK:    1.00 KCAL/MOL
REMARK 922        TOTAL FREE ENERGY PREDICTED BY IDOCK:   -0.38 KCAL/MOL
REMARK 923 INTER-LIGAND FREE ENERGY PREDICTED BY IDOCK:   -2.24 KCAL/MOL
REMARK 924 INTRA-LIGAND FREE ENERGY PREDICTED BY IDOCK:    1.87 KCAL/MOL
REMARK 927      BINDING AFFINITY PREDICTED BY RF-SCORE:    0.00 PKD
ROOT
HETATM    1  C   UNL     1     -10.307  16.226  71.658  1.00  0.00     2.483 C  
HETATM    2  O   UNL     1     -10.393  16.221  70.234  1.00  0.00    -0.092 OA 
ENDROOT
BRANCH   2   3
HETATM    3  C   UNL     1     -10.770  15.033  69.664  1.00  0.00    -0.257 A  
HETATM    4  C   UNL     1      -9.855  14.340  68.843  1.00  0.00    -0.140 A  
HETATM    5  C   UNL     1     -10.245  13.126  68.249  1.00  0.00    -0.250 A  
HETATM    6  C   UNL     1     -12.075  14.536  69.808  1.00  0.00    -0.380 A  
HETATM    7 CL   UNL     1     -12.018  11.182  67.650  1.00  0.00    -0.029 Cl 
HETATM    8  C   UNL     1     -12.463  13.352  69.181  1.00  0.00     0.158 A  
HETATM    9  C   UNL     1     -11.544  12.648  68.415  1.00  0.00    -0.328 A  
BRANCH   4  10
HETATM   10  C   UNL     1      -8.468  14.858  68.598  1.00  0.00    -0.166 C  
HETATM   11  H   UNL     1      -8.327  15.536  70.567  1.00  0.00     0.000 HD 
HETATM   12  O   UNL     1      -7.942  14.797  67.494  1.00  0.00    -0.157 OA 
HETATM   13  N   UNL     1      -7.814  15.401  69.696  1.00  0.00    -0.200 N  
BRANCH  13  14
HETATM   14  C   UNL     1      -6.414  15.779  69.628  1.00  0.00    -0.181 C  
BRANCH  14  15
HETATM   15  C   UNL     1      -5.619  14.985  68.584  1.00  0.00    -0.092 C  
BRANCH  15  16
HETATM   16  C   UNL     1      -5.683  13.474  68.716  1.00  0.00    -0.082 A  
HETATM   17  C   UNL     1      -5.156  12.595  67.755  1.00  0.00    -0.102 A  
HETATM   18  C   UNL     1      -5.306  11.212  67.885  1.00  0.00    -0.043 A  
HETATM   19  C   UNL     1      -5.978  10.687  68.988  1.00  0.00    -0.040 A  
HETATM   20  C   UNL     1      -6.325  12.925  69.839  1.00  0.00    -0.029 A  
HETATM   21  C   UNL     1      -6.486  11.541  69.970  1.00  0.00    -0.067 A  
BRANCH  19  22
HETATM   22  S   UNL     1      -6.316   8.941  69.056  1.00  0.00    -0.044 S  
HETATM   23  O   UNL     1      -5.269   8.334  69.856  1.00  0.00    -0.023 OA 
HETATM   24  O   UNL     1      -6.590   8.459  67.722  1.00  0.00    -0.059 OA 
BRANCH  22  25
HETATM   25  N   UNL     1      -7.690   8.816  69.982  1.00  0.00    -0.077 N  
HETATM   26  H   UNL     1      -8.593   8.879  69.511  1.00  0.00     0.000 HD 
BRANCH  25  27
HETATM   27  C   UNL     1      -7.684   8.632  71.354  1.00  0.00    -0.122 C  
HETATM   28  O   UNL     1      -6.913   9.208  72.099  1.00  0.00    -0.319 OA 
BRANCH  27  29
HETATM   29  N   UNL     1      -8.618   7.727  71.779  1.00  0.00    -0.112 N  
HETATM   30  H   UNL     1      -8.805   6.890  71.228  1.00  0.00     0.000 HD 
BRANCH  29  31
HETATM   31  C   UNL     1      -9.344   7.962  73.020  1.00  0.00    -0.265 C  
HETATM   32  C   UNL     1     -10.860   7.931  72.802  1.00  0.00    -0.451 C  
HETATM   33  C   UNL     1     -11.399   6.518  72.593  1.00  0.00    -0.259 C  
HETATM   34  C   UNL     1     -10.979   5.590  73.727  1.00  0.00    -0.159 C  
HETATM   35  C   UNL     1      -9.465   5.575  73.912  1.00  0.00    -0.139 C  
HETATM   36  C   UNL     1      -8.907   6.982  74.112  1.00  0.00    -0.223 C  
ENDBRANCH  29  31
ENDBRANCH  27  29
ENDBRANCH  25  27
ENDBRANCH  22  25
ENDBRANCH  19  22
ENDBRANCH  15  16
ENDBRANCH  14  15
ENDBRANCH  13  14
ENDBRANCH   4  10
ENDBRANCH   2   3
TORSDOF 10
ENDMDL
MODEL      329
REMARK 921   NORMALIZED FREE ENERGY PREDICTED BY IDOCK:    1.27 KCAL/MOL
REMARK 922        TOTAL FREE ENERGY PREDICTED BY IDOCK:    0.04 KCAL/MOL
REMARK 923 INTER-LIGAND FREE ENERGY PREDICTED BY IDOCK:   -2.85 KCAL/MOL
REMARK 924 INTRA-LIGAND FREE ENERGY PREDICTED BY IDOCK:    2.88 KCAL/MOL
REMARK 927      BINDING AFFINITY PREDICTED BY RF-SCORE:    0.00 PKD
ROOT
HETATM    1  C   UNL     1     -10.168  10.027  67.002  1.00  0.00    -0.237 C  
HETATM    2  O   UNL     1      -9.726   9.353  68.179  1.00  0.00    -0.141 OA 
ENDROOT
BRANCH   2   3
HETATM    3  C   UNL     1     -10.598   9.368  69.237  1.00  0.00    -0.225 A  
HETATM    4  C   UNL     1     -11.220  10.581  69.601  1.00  0.00    -0.342 A  
HETATM    5  C   UNL     1     -12.106  10.599  70.693  1.00  0.00    -0.461 A  
HETATM    6  C   UNL     1     -10.816   8.223  70.019  1.00  0.00    -0.232 A  
HETATM    7 CL   UNL     1     -13.371   9.494  72.805  1.00  0.00    -0.217 Cl 
HETATM    8  C   UNL     1     -11.666   8.263  71.125  1.00  0.00    -0.308 A  
HETATM    9  C   UNL     1     -12.315   9.447  71.449  1.00  0.00    -0.357 A  
BRANCH   4  10
HETATM   10  C   UNL     1     -10.972  11.853  68.843  1.00  0.00    -0.238 C  
HETATM   11  H   UNL     1     -12.921  11.836  68.095  1.00  0.00     0.000 HD 
HETATM   12  O   UNL     1      -9.876  12.397  68.837  1.00  0.00    -0.052 OA 
HETATM   13  N   UNL     1     -12.060  12.379  68.158  1.00  0.00    -0.192 N  
BRANCH  13  14
HETATM   14  C   UNL     1     -11.993  13.686  67.530  1.00  0.00    -0.358 C  
BRANCH  14  15
HETATM   15  C   UNL     1     -11.901  13.623  66.001  1.00  0.00    -0.415 C  
BRANCH  15  16
HETATM   16  C   UNL     1     -10.745  12.811  65.443  1.00  0.00    -0.309 A  
HETATM   17  C   UNL     1     -10.923  11.646  64.680  1.00  0.00    -0.363 A  
HETATM   18  C   UNL     1      -9.827  10.891  64.252  1.00  0.00    -0.365 A  
HETATM   19  C   UNL     1      -8.534  11.301  64.574  1.00  0.00     0.457 A  
HETATM   20  C   UNL     1      -9.434  13.227  65.727  1.00  0.00     0.031 A  
HETATM   21  C   UNL     1      -8.333  12.472  65.310  1.00  0.00     2.091 A  
BRANCH  19  22
HETATM   22  S   UNL     1      -7.158  10.244  64.177  1.00  0.00     0.008 S  
HETATM   23  O   UNL     1      -5.948  10.985  64.481  1.00  0.00     0.163 OA 
HETATM   24  O   UNL     1      -7.359   9.678  62.863  1.00  0.00    -0.103 OA 
BRANCH  22  25
HETATM   25  N   UNL     1      -7.217   9.034  65.316  1.00  0.00    -0.087 N  
HETATM   26  H   UNL     1      -6.708   9.173  66.188  1.00  0.00     0.000 HD 
BRANCH  25  27
HETATM   27  C   UNL     1      -7.915   7.851  65.151  1.00  0.00    -0.132 C  
HETATM   28  O   UNL     1      -9.129   7.799  65.073  1.00  0.00     0.259 OA 
BRANCH  27  29
HETATM   29  N   UNL     1      -7.104   6.750  65.103  1.00  0.00    -0.065 N  
HETATM   30  H   UNL     1      -6.610   6.516  64.242  1.00  0.00     0.000 HD 
BRANCH  29  31
HETATM   31  C   UNL     1      -6.946   5.914  66.286  1.00  0.00    -0.063 C  
HETATM   32  C   UNL     1      -7.861   6.370  67.427  1.00  0.00    -0.105 C  
HETATM   33  C   UNL     1      -9.325   6.004  67.194  1.00  0.00    -0.121 C  
HETATM   34  C   UNL     1      -9.487   4.515  66.910  1.00  0.00    -0.190 C  
HETATM   35  C   UNL     1      -8.619   4.067  65.739  1.00  0.00    -0.110 C  
HETATM   36  C   UNL     1      -7.152   4.434  65.950  1.00  0.00    -0.071 C  
ENDBRANCH  29  31
ENDBRANCH  27  29
ENDBRANCH  25  27
ENDBRANCH  22  25
ENDBRANCH  19  22
ENDBRANCH  15  16
ENDBRANCH  14  15
ENDBRANCH  13  14
ENDBRANCH   4  10
ENDBRANCH   2   3
TORSDOF 10
ENDMDL
MODEL      330
REMARK 921   NORMALIZED FREE ENERGY PREDICTED BY IDOCK:    1.40 KCAL/MOL
REMARK 922        TOTAL FREE ENERGY PREDICTED BY IDOCK:    0.24 KCAL/MOL
REMARK 923 INTER-LIGAND FREE ENERGY PREDICTED BY IDOCK:   -4.64 KCAL/MOL
REMARK 924 INTRA-LIGAND FREE ENERGY PREDICTED BY IDOCK:    4.88 KCAL/MOL
REMARK 927      BINDING AFFINITY PREDICTED BY RF-SCORE:    0.00 PKD
ROOT
HETATM    1  C   UNL     1      -7.903  14.151  67.003  1.00  0.00     0.100 C  
HETATM    2  O   UNL     1      -8.973  13.301  66.593  1.00  0.00    -0.214 OA 
ENDROOT
BRANCH   2   3
HETATM    3  C   UNL     1      -8.713  11.956  66.634  1.00  0.00    -0.185 A  
HETATM    4  C   UNL     1      -9.318  11.166  67.635  1.00  0.00    -0.169 A  
HETATM    5  C   UNL     1      -9.043   9.788  67.684  1.00  0.00    -0.140 A  
HETATM    6  C   UNL     1      -7.790  11.363  65.757  1.00  0.00     0.291 A  
HETATM    7 CL   UNL     1      -7.776   7.540  66.893  1.00  0.00    -0.108 Cl 
HETATM    8  C   UNL     1      -7.495  10.003  65.841  1.00  0.00    -0.115 A  
HETATM    9  C   UNL     1      -8.131   9.220  66.796  1.00  0.00    -0.112 A  
BRANCH   4  10
HETATM   10  C   UNL     1     -10.260  11.757  68.642  1.00  0.00    -0.201 C  
HETATM   11  H   UNL     1     -11.681  10.281  68.242  1.00  0.00     0.000 HD 
HETATM   12  O   UNL     1      -9.993  12.785  69.251  1.00  0.00     0.299 OA 
HETATM   13  N   UNL     1     -11.447  11.066  68.849  1.00  0.00    -0.270 N  
BRANCH  13  14
HETATM   14  C   UNL     1     -12.360  11.440  69.914  1.00  0.00    -0.214 C  
BRANCH  14  15
HETATM   15  C   UNL     1     -12.180  10.610  71.191  1.00  0.00    -0.479 C  
BRANCH  15  16
HETATM   16  C   UNL     1     -11.500   9.264  71.011  1.00  0.00    -0.387 A  
HETATM   17  C   UNL     1     -10.132   9.126  70.726  1.00  0.00    -0.333 A  
HETATM   18  C   UNL     1      -9.568   7.868  70.495  1.00  0.00    -0.170 A  
HETATM   19  C   UNL     1     -10.366   6.727  70.558  1.00  0.00    -0.201 A  
HETATM   20  C   UNL     1     -12.281   8.100  71.106  1.00  0.00    -0.257 A  
HETATM   21  C   UNL     1     -11.724   6.839  70.867  1.00  0.00    -0.424 A  
BRANCH  19  22
HETATM   22  S   UNL     1      -9.679   5.153  70.092  1.00  0.00    -0.225 S  
HETATM   23  O   UNL     1      -9.797   5.045  68.651  1.00  0.00    -0.151 OA 
HETATM   24  O   UNL     1     -10.223   4.125  70.950  1.00  0.00    -0.115 OA 
BRANCH  22  25
HETATM   25  N   UNL     1      -8.049   5.307  70.379  1.00  0.00    -0.094 N  
HETATM   26  H   UNL     1      -7.511   4.458  70.552  1.00  0.00     0.000 HD 
BRANCH  25  27
HETATM   27  C   UNL     1      -7.377   6.517  70.397  1.00  0.00    -0.085 C  
HETATM   28  O   UNL     1      -7.664   7.448  69.666  1.00  0.00    -0.102 OA 
BRANCH  27  29
HETATM   29  N   UNL     1      -6.353   6.550  71.303  1.00  0.00    -0.041 N  
HETATM   30  H   UNL     1      -5.465   6.099  71.087  1.00  0.00     0.000 HD 
BRANCH  29  31
HETATM   31  C   UNL     1      -6.535   7.232  72.578  1.00  0.00    -0.051 C  
HETATM   32  C   UNL     1      -8.013   7.513  72.863  1.00  0.00    -0.129 C  
HETATM   33  C   UNL     1      -8.787   6.260  73.267  1.00  0.00    -0.126 C  
HETATM   34  C   UNL     1      -8.119   5.547  74.436  1.00  0.00    -0.104 C  
HETATM   35  C   UNL     1      -6.661   5.216  74.136  1.00  0.00    -0.074 C  
HETATM   36  C   UNL     1      -5.873   6.456  73.721  1.00  0.00    -0.058 C  
ENDBRANCH  29  31
ENDBRANCH  27  29
ENDBRANCH  25  27
ENDBRANCH  22  25
ENDBRANCH  19  22
ENDBRANCH  15  16
ENDBRANCH  14  15
ENDBRANCH  13  14
ENDBRANCH   4  10
ENDBRANCH   2   3
TORSDOF 10
ENDMDL
MODEL      331
REMARK 921   NORMALIZED FREE ENERGY PREDICTED BY IDOCK:    1.50 KCAL/MOL
REMARK 922        TOTAL FREE ENERGY PREDICTED BY IDOCK:    0.41 KCAL/MOL
REMARK 923 INTER-LIGAND FREE ENERGY PREDICTED BY IDOCK:   -0.34 KCAL/MOL
REMARK 924 INTRA-LIGAND FREE ENERGY PREDICTED BY IDOCK:    0.75 KCAL/MOL
REMARK 927      BINDING AFFINITY PREDICTED BY RF-SCORE:    0.00 PKD
ROOT
HETATM    1  C   UNL     1      -7.584   8.322  67.402  1.00  0.00    -0.098 C  
HETATM    2  O   UNL     1      -7.112   9.510  66.768  1.00  0.00    -0.084 OA 
ENDROOT
BRANCH   2   3
HETATM    3  C   UNL     1      -8.027  10.176  65.994  1.00  0.00    -0.124 A  
HETATM    4  C   UNL     1      -8.146  11.576  66.117  1.00  0.00     0.054 A  
HETATM    5  C   UNL     1      -9.093  12.258  65.332  1.00  0.00     0.348 A  
HETATM    6  C   UNL     1      -8.909   9.484  65.148  1.00  0.00    -0.223 A  
HETATM    7 CL   UNL     1     -11.129  12.394  63.566  1.00  0.00    -0.514 Cl 
HETATM    8  C   UNL     1      -9.871  10.167  64.404  1.00  0.00    -0.307 A  
HETATM    9  C   UNL     1      -9.950  11.550  64.491  1.00  0.00    -0.263 A  
BRANCH   4  10
HETATM   10  C   UNL     1      -7.278  12.361  67.056  1.00  0.00    -0.008 C  
HETATM   11  H   UNL     1      -8.169  11.450  68.710  1.00  0.00     0.000 HD 
HETATM   12  O   UNL     1      -6.485  13.202  66.652  1.00  0.00     0.472 OA 
HETATM   13  N   UNL     1      -7.420  12.072  68.407  1.00  0.00    -0.104 N  
BRANCH  13  14
HETATM   14  C   UNL     1      -6.521  12.639  69.396  1.00  0.00    -0.099 C  
BRANCH  14  15
HETATM   15  C   UNL     1      -5.462  11.649  69.896  1.00  0.00    -0.091 C  
BRANCH  15  16
HETATM   16  C   UNL     1      -5.992  10.325  70.419  1.00  0.00    -0.096 A  
HETATM   17  C   UNL     1      -6.878  10.227  71.504  1.00  0.00     1.286 A  
HETATM   18  C   UNL     1      -7.280   8.982  71.996  1.00  0.00     0.146 A  
HETATM   19  C   UNL     1      -6.807   7.814  71.399  1.00  0.00    -0.049 A  
HETATM   20  C   UNL     1      -5.555   9.138  69.807  1.00  0.00    -0.032 A  
HETATM   21  C   UNL     1      -5.946   7.889  70.301  1.00  0.00    -0.029 A  
BRANCH  19  22
HETATM   22  S   UNL     1      -7.182   6.241  72.139  1.00  0.00    -0.092 S  
HETATM   23  O   UNL     1      -7.099   6.414  73.577  1.00  0.00    -0.082 OA 
HETATM   24  O   UNL     1      -6.412   5.211  71.481  1.00  0.00    -0.029 OA 
BRANCH  22  25
HETATM   25  N   UNL     1      -8.798   6.007  71.828  1.00  0.00    -0.138 N  
HETATM   26  H   UNL     1      -9.058   5.265  71.178  1.00  0.00     0.000 HD 
BRANCH  25  27
HETATM   27  C   UNL     1      -9.812   6.757  72.399  1.00  0.00    -0.158 C  
HETATM   28  O   UNL     1     -10.562   6.322  73.252  1.00  0.00    -0.233 OA 
BRANCH  27  29
HETATM   29  N   UNL     1      -9.893   8.025  71.891  1.00  0.00    -0.177 N  
HETATM   30  H   UNL     1      -9.990   8.822  72.520  1.00  0.00     0.000 HD 
BRANCH  29  31
HETATM   31  C   UNL     1      -9.839   8.234  70.451  1.00  0.00    -0.186 C  
HETATM   32  C   UNL     1     -11.085   7.678  69.752  1.00  0.00    -0.115 C  
HETATM   33  C   UNL     1     -12.322   8.545  69.971  1.00  0.00     1.043 C  
HETATM   34  C   UNL     1     -12.062   9.994  69.577  1.00  0.00     0.179 C  
HETATM   35  C   UNL     1     -10.856  10.570  70.311  1.00  0.00    -0.241 C  
HETATM   36  C   UNL     1      -9.610   9.710  70.113  1.00  0.00    -0.300 C  
ENDBRANCH  29  31
ENDBRANCH  27  29
ENDBRANCH  25  27
ENDBRANCH  22  25
ENDBRANCH  19  22
ENDBRANCH  15  16
ENDBRANCH  14  15
ENDBRANCH  13  14
ENDBRANCH   4  10
ENDBRANCH   2   3
TORSDOF 10
ENDMDL
MODEL      332
REMARK 921   NORMALIZED FREE ENERGY PREDICTED BY IDOCK:    2.09 KCAL/MOL
REMARK 922        TOTAL FREE ENERGY PREDICTED BY IDOCK:    1.34 KCAL/MOL
REMARK 923 INTER-LIGAND FREE ENERGY PREDICTED BY IDOCK:   -2.76 KCAL/MOL
REMARK 924 INTRA-LIGAND FREE ENERGY PREDICTED BY IDOCK:    4.10 KCAL/MOL
REMARK 927      BINDING AFFINITY PREDICTED BY RF-SCORE:    0.00 PKD
ROOT
HETATM    1  C   UNL     1     -13.754  12.691  72.751  1.00  0.00     0.499 C  
HETATM    2  O   UNL     1     -13.553  12.186  71.432  1.00  0.00     0.119 OA 
ENDROOT
BRANCH   2   3
HETATM    3  C   UNL     1     -13.013  10.928  71.352  1.00  0.00    -0.424 A  
HETATM    4  C   UNL     1     -12.352  10.535  70.169  1.00  0.00    -0.339 A  
HETATM    5  C   UNL     1     -11.808   9.241  70.083  1.00  0.00     0.076 A  
HETATM    6  C   UNL     1     -13.183   9.994  72.386  1.00  0.00    -0.263 A  
HETATM    7 CL   UNL     1     -11.342   6.743  70.991  1.00  0.00    -0.334 Cl 
HETATM    8  C   UNL     1     -12.673   8.701  72.272  1.00  0.00    -0.450 A  
HETATM    9  C   UNL     1     -11.979   8.334  71.127  1.00  0.00    -0.265 A  
BRANCH   4  10
HETATM   10  C   UNL     1     -12.200  11.468  69.004  1.00  0.00    -0.121 C  
HETATM   11  H   UNL     1     -12.071  13.113  70.283  1.00  0.00     0.000 HD 
HETATM   12  O   UNL     1     -12.250  11.070  67.847  1.00  0.00    -0.438 OA 
HETATM   13  N   UNL     1     -11.992  12.805  69.314  1.00  0.00    -0.276 N  
BRANCH  13  14
HETATM   14  C   UNL     1     -11.663  13.775  68.284  1.00  0.00    -0.359 C  
BRANCH  14  15
HETATM   15  C   UNL     1     -10.500  13.339  67.386  1.00  0.00    -0.243 C  
BRANCH  15  16
HETATM   16  C   UNL     1      -9.425  12.502  68.058  1.00  0.00    -0.209 A  
HETATM   17  C   UNL     1      -9.658  11.737  69.213  1.00  0.00     0.454 A  
HETATM   18  C   UNL     1      -8.618  11.043  69.839  1.00  0.00     0.975 A  
HETATM   19  C   UNL     1      -7.330  11.096  69.308  1.00  0.00    -0.097 A  
HETATM   20  C   UNL     1      -8.129  12.514  67.518  1.00  0.00    -0.176 A  
HETATM   21  C   UNL     1      -7.082  11.829  68.144  1.00  0.00    -0.079 A  
BRANCH  19  22
HETATM   22  S   UNL     1      -5.984  10.356  70.206  1.00  0.00    -0.109 S  
HETATM   23  O   UNL     1      -6.559   9.368  71.099  1.00  0.00    -0.123 OA 
HETATM   24  O   UNL     1      -5.127  11.398  70.722  1.00  0.00    -0.092 OA 
BRANCH  22  25
HETATM   25  N   UNL     1      -5.157   9.473  69.066  1.00  0.00    -0.037 N  
HETATM   26  H   UNL     1      -4.191   9.734  68.867  1.00  0.00     0.000 HD 
BRANCH  25  27
HETATM   27  C   UNL     1      -5.699   8.405  68.371  1.00  0.00    -0.038 C  
HETATM   28  O   UNL     1      -6.444   8.541  67.419  1.00  0.00    -0.056 OA 
BRANCH  27  29
HETATM   29  N   UNL     1      -5.324   7.190  68.876  1.00  0.00    -0.017 N  
HETATM   30  H   UNL     1      -4.341   6.997  69.066  1.00  0.00     0.000 HD 
BRANCH  29  31
HETATM   31  C   UNL     1      -6.333   6.173  69.141  1.00  0.00    -0.041 C  
HETATM   32  C   UNL     1      -5.806   5.087  70.085  1.00  0.00    -0.017 C  
HETATM   33  C   UNL     1      -5.704   5.560  71.533  1.00  0.00    -0.020 C  
HETATM   34  C   UNL     1      -7.028   6.132  72.025  1.00  0.00    -0.078 C  
HETATM   35  C   UNL     1      -7.530   7.252  71.119  1.00  0.00    -0.079 C  
HETATM   36  C   UNL     1      -7.629   6.800  69.664  1.00  0.00    -0.101 C  
ENDBRANCH  29  31
ENDBRANCH  27  29
ENDBRANCH  25  27
ENDBRANCH  22  25
ENDBRANCH  19  22
ENDBRANCH  15  16
ENDBRANCH  14  15
ENDBRANCH  13  14
ENDBRANCH   4  10
ENDBRANCH   2   3
TORSDOF 10
ENDMDL
MODEL      333
REMARK 921   NORMALIZED FREE ENERGY PREDICTED BY IDOCK:    2.51 KCAL/MOL
REMARK 922        TOTAL FREE ENERGY PREDICTED BY IDOCK:    2.01 KCAL/MOL
REMARK 923 INTER-LIGAND FREE ENERGY PREDICTED BY IDOCK:   -2.63 KCAL/MOL
REMARK 924 INTRA-LIGAND FREE ENERGY PREDICTED BY IDOCK:    4.65 KCAL/MOL
REMARK 927      BINDING AFFINITY PREDICTED BY RF-SCORE:    0.00 PKD
ROOT
HETATM    1  C   UNL     1      -7.187  13.183  66.736  1.00  0.00     0.821 C  
HETATM    2  O   UNL     1      -8.261  12.349  66.303  1.00  0.00     0.174 OA 
ENDROOT
BRANCH   2   3
HETATM    3  C   UNL     1      -8.012  11.001  66.321  1.00  0.00    -0.148 A  
HETATM    4  C   UNL     1      -8.630  10.198  67.303  1.00  0.00    -0.125 A  
HETATM    5  C   UNL     1      -8.366   8.817  67.329  1.00  0.00    -0.104 A  
HETATM    6  C   UNL     1      -7.089  10.417  65.439  1.00  0.00    -0.117 A  
HETATM    7 CL   UNL     1      -7.113   6.574  66.504  1.00  0.00    -0.067 Cl 
HETATM    8  C   UNL     1      -6.805   9.053  65.500  1.00  0.00    -0.073 A  
HETATM    9  C   UNL     1      -7.454   8.258  66.436  1.00  0.00    -0.080 A  
BRANCH   4  10
HETATM   10  C   UNL     1      -9.574  10.779  68.316  1.00  0.00    -0.166 C  
HETATM   11  H   UNL     1     -11.032   9.366  67.829  1.00  0.00     0.000 HD 
HETATM   12  O   UNL     1      -9.287  11.772  68.971  1.00  0.00     0.016 OA 
HETATM   13  N   UNL     1     -10.785  10.119  68.472  1.00  0.00    -0.218 N  
BRANCH  13  14
HETATM   14  C   UNL     1     -11.708  10.479  69.533  1.00  0.00    -0.241 C  
BRANCH  14  15
HETATM   15  C   UNL     1     -11.599   9.576  70.768  1.00  0.00    -0.378 C  
BRANCH  15  16
HETATM   16  C   UNL     1     -11.004   8.199  70.527  1.00  0.00    -0.248 A  
HETATM   17  C   UNL     1      -9.715   7.834  70.948  1.00  0.00    -0.174 A  
HETATM   18  C   UNL     1      -9.184   6.579  70.637  1.00  0.00    -0.163 A  
HETATM   19  C   UNL     1      -9.943   5.666  69.907  1.00  0.00    -0.204 A  
HETATM   20  C   UNL     1     -11.767   7.252  69.823  1.00  0.00     0.135 A  
HETATM   21  C   UNL     1     -11.238   5.998  69.501  1.00  0.00    -0.416 A  
BRANCH  19  22
HETATM   22  S   UNL     1      -9.196   4.144  69.368  1.00  0.00    -0.159 S  
HETATM   23  O   UNL     1      -8.545   4.413  68.099  1.00  0.00    -0.093 OA 
HETATM   24  O   UNL     1     -10.160   3.075  69.482  1.00  0.00     0.408 OA 
BRANCH  22  25
HETATM   25  N   UNL     1      -7.952   3.884  70.440  1.00  0.00    -0.050 N  
HETATM   26  H   UNL     1      -7.444   3.002  70.380  1.00  0.00     0.000 HD 
BRANCH  25  27
HETATM   27  C   UNL     1      -7.565   4.793  71.410  1.00  0.00    -0.079 C  
HETATM   28  O   UNL     1      -7.575   5.997  71.235  1.00  0.00    -0.090 OA 
BRANCH  27  29
HETATM   29  N   UNL     1      -7.156   4.197  72.572  1.00  0.00    -0.058 N  
HETATM   30  H   UNL     1      -6.223   3.789  72.635  1.00  0.00     0.000 HD 
BRANCH  29  31
HETATM   31  C   UNL     1      -8.055   4.147  73.717  1.00  0.00    -0.089 C  
HETATM   32  C   UNL     1      -9.493   4.497  73.323  1.00  0.00    -0.134 C  
HETATM   33  C   UNL     1     -10.187   3.374  72.555  1.00  0.00    -0.217 C  
HETATM   34  C   UNL     1     -10.122   2.057  73.319  1.00  0.00    -0.175 C  
HETATM   35  C   UNL     1      -8.687   1.676  73.667  1.00  0.00    -0.058 C  
HETATM   36  C   UNL     1      -7.974   2.792  74.427  1.00  0.00    -0.063 C  
ENDBRANCH  29  31
ENDBRANCH  27  29
ENDBRANCH  25  27
ENDBRANCH  22  25
ENDBRANCH  19  22
ENDBRANCH  15  16
ENDBRANCH  14  15
ENDBRANCH  13  14
ENDBRANCH   4  10
ENDBRANCH   2   3
TORSDOF 10
ENDMDL
MODEL      334
REMARK 921   NORMALIZED FREE ENERGY PREDICTED BY IDOCK:    2.96 KCAL/MOL
REMARK 922        TOTAL FREE ENERGY PREDICTED BY IDOCK:    2.72 KCAL/MOL
REMARK 923 INTER-LIGAND FREE ENERGY PREDICTED BY IDOCK:    1.05 KCAL/MOL
REMARK 924 INTRA-LIGAND FREE ENERGY PREDICTED BY IDOCK:    1.67 KCAL/MOL
REMARK 927      BINDING AFFINITY PREDICTED BY RF-SCORE:    0.00 PKD
ROOT
HETATM    1  C   UNL     1      -7.587   8.344  67.379  1.00  0.00    -0.098 C  
HETATM    2  O   UNL     1      -7.030   9.462  66.689  1.00  0.00    -0.079 OA 
ENDROOT
BRANCH   2   3
HETATM    3  C   UNL     1      -7.847  10.058  65.764  1.00  0.00    -0.128 A  
HETATM    4  C   UNL     1      -7.956  11.464  65.743  1.00  0.00     0.249 A  
HETATM    5  C   UNL     1      -8.803  12.075  64.801  1.00  0.00     0.829 A  
HETATM    6  C   UNL     1      -8.646   9.295  64.896  1.00  0.00    -0.204 A  
HETATM    7 CL   UNL     1     -10.638  12.058  62.823  1.00  0.00     0.215 Cl 
HETATM    8  C   UNL     1      -9.512   9.912  63.994  1.00  0.00    -0.231 A  
HETATM    9  C   UNL     1      -9.578  11.298  63.943  1.00  0.00    -0.245 A  
BRANCH   4  10
HETATM   10  C   UNL     1      -7.179  12.329  66.693  1.00  0.00     0.312 C  
HETATM   11  H   UNL     1      -8.241  11.566  68.321  1.00  0.00     0.000 HD 
HETATM   12  O   UNL     1      -6.342  13.130  66.299  1.00  0.00     1.780 OA 
HETATM   13  N   UNL     1      -7.459  12.159  68.042  1.00  0.00    -0.106 N  
BRANCH  13  14
HETATM   14  C   UNL     1      -6.660  12.810  69.065  1.00  0.00    -0.099 C  
BRANCH  14  15
HETATM   15  C   UNL     1      -5.622  11.883  69.709  1.00  0.00    -0.096 C  
BRANCH  15  16
HETATM   16  C   UNL     1      -6.066  10.447  69.925  1.00  0.00    -0.068 A  
HETATM   17  C   UNL     1      -7.276  10.102  70.551  1.00  0.00     0.036 A  
HETATM   18  C   UNL     1      -7.606   8.766  70.794  1.00  0.00    -0.097 A  
HETATM   19  C   UNL     1      -6.732   7.753  70.403  1.00  0.00    -0.038 A  
HETATM   20  C   UNL     1      -5.215   9.411  69.506  1.00  0.00    -0.035 A  
HETATM   21  C   UNL     1      -5.536   8.072  69.755  1.00  0.00    -0.023 A  
BRANCH  19  22
HETATM   22  S   UNL     1      -7.078   6.072  70.872  1.00  0.00    -0.070 S  
HETATM   23  O   UNL     1      -7.801   6.119  72.129  1.00  0.00    -0.100 OA 
HETATM   24  O   UNL     1      -5.871   5.288  70.751  1.00  0.00    -0.019 OA 
BRANCH  22  25
HETATM   25  N   UNL     1      -8.192   5.547  69.756  1.00  0.00    -0.100 N  
HETATM   26  H   UNL     1      -9.022   5.063  70.099  1.00  0.00     0.000 HD 
BRANCH  25  27
HETATM   27  C   UNL     1      -8.062   5.726  68.389  1.00  0.00    -0.108 C  
HETATM   28  O   UNL     1      -8.780   6.467  67.744  1.00  0.00    -0.117 OA 
BRANCH  27  29
HETATM   29  N   UNL     1      -7.060   4.973  67.842  1.00  0.00    -0.061 N  
HETATM   30  H   UNL     1      -6.443   5.378  67.137  1.00  0.00     0.000 HD 
BRANCH  29  31
HETATM   31  C   UNL     1      -6.874   3.592  68.268  1.00  0.00    -0.047 C  
HETATM   32  C   UNL     1      -8.014   2.693  67.780  1.00  0.00    -0.064 C  
HETATM   33  C   UNL     1      -7.930   2.388  66.287  1.00  0.00    -0.082 C  
HETATM   34  C   UNL     1      -6.568   1.815  65.913  1.00  0.00    -0.024 C  
HETATM   35  C   UNL     1      -5.431   2.734  66.348  1.00  0.00    -0.017 C  
HETATM   36  C   UNL     1      -5.505   3.058  67.838  1.00  0.00    -0.017 C  
ENDBRANCH  29  31
ENDBRANCH  27  29
ENDBRANCH  25  27
ENDBRANCH  22  25
ENDBRANCH  19  22
ENDBRANCH  15  16
ENDBRANCH  14  15
ENDBRANCH  13  14
ENDBRANCH   4  10
ENDBRANCH   2   3
TORSDOF 10
ENDMDL
MODEL      335
REMARK 921   NORMALIZED FREE ENERGY PREDICTED BY IDOCK:    3.02 KCAL/MOL
REMARK 922        TOTAL FREE ENERGY PREDICTED BY IDOCK:    2.82 KCAL/MOL
REMARK 923 INTER-LIGAND FREE ENERGY PREDICTED BY IDOCK:   -3.58 KCAL/MOL
REMARK 924 INTRA-LIGAND FREE ENERGY PREDICTED BY IDOCK:    6.40 KCAL/MOL
REMARK 927      BINDING AFFINITY PREDICTED BY RF-SCORE:    0.00 PKD
ROOT
HETATM    1  C   UNL     1      -8.084  12.366  66.629  1.00  0.00     0.104 C  
HETATM    2  O   UNL     1      -9.054  11.343  66.411  1.00  0.00    -0.182 OA 
ENDROOT
BRANCH   2   3
HETATM    3  C   UNL     1     -10.060  11.653  65.533  1.00  0.00    -0.246 A  
HETATM    4  C   UNL     1     -11.375  11.817  66.020  1.00  0.00    -0.335 A  
HETATM    5  C   UNL     1     -12.409  12.124  65.118  1.00  0.00    -0.135 A  
HETATM    6  C   UNL     1      -9.827  11.724  64.151  1.00  0.00    -0.248 A  
HETATM    7 CL   UNL     1     -13.434  12.538  62.656  1.00  0.00     1.797 Cl 
HETATM    8  C   UNL     1     -10.868  11.990  63.262  1.00  0.00    -0.400 A  
HETATM    9  C   UNL     1     -12.151  12.200  63.750  1.00  0.00    -0.525 A  
BRANCH   4  10
HETATM   10  C   UNL     1     -11.697  11.685  67.480  1.00  0.00    -0.214 C  
HETATM   11  H   UNL     1      -9.942  10.604  67.812  1.00  0.00     0.000 HD 
HETATM   12  O   UNL     1     -12.738  12.120  67.953  1.00  0.00     0.622 OA 
HETATM   13  N   UNL     1     -10.741  11.051  68.262  1.00  0.00    -0.182 N  
BRANCH  13  14
HETATM   14  C   UNL     1     -10.856  11.012  69.709  1.00  0.00    -0.144 C  
BRANCH  14  15
HETATM   15  C   UNL     1     -11.317  12.341  70.319  1.00  0.00     0.299 C  
BRANCH  15  16
HETATM   16  C   UNL     1     -10.919  13.591  69.554  1.00  0.00    -0.028 A  
HETATM   17  C   UNL     1      -9.664  13.751  68.944  1.00  0.00     0.025 A  
HETATM   18  C   UNL     1      -9.316  14.950  68.315  1.00  0.00    -0.195 A  
HETATM   19  C   UNL     1     -10.228  16.004  68.277  1.00  0.00    -0.237 A  
HETATM   20  C   UNL     1     -11.837  14.651  69.474  1.00  0.00    -0.374 A  
HETATM   21  C   UNL     1     -11.492  15.857  68.854  1.00  0.00    -0.386 A  
BRANCH  19  22
HETATM   22  S   UNL     1      -9.715  17.580  67.630  1.00  0.00    -0.284 S  
HETATM   23  O   UNL     1      -8.929  18.230  68.662  1.00  0.00    -0.319 OA 
HETATM   24  O   UNL     1     -10.856  18.249  67.050  1.00  0.00    -0.329 OA 
BRANCH  22  25
HETATM   25  N   UNL     1      -8.625  17.206  66.432  1.00  0.00    -0.262 N  
HETATM   26  H   UNL     1      -8.839  16.421  65.818  1.00  0.00     0.000 HD 
BRANCH  25  27
HETATM   27  C   UNL     1      -7.444  17.896  66.219  1.00  0.00    -0.286 C  
HETATM   28  O   UNL     1      -6.398  17.613  66.773  1.00  0.00    -0.153 OA 
BRANCH  27  29
HETATM   29  N   UNL     1      -7.580  18.934  65.339  1.00  0.00     0.255 N  
HETATM   30  H   UNL     1      -8.012  18.779  64.428  1.00  0.00     0.000 HD 
BRANCH  29  31
HETATM   31  C   UNL     1      -7.107  20.262  65.704  1.00  0.00    -0.259 C  
HETATM   32  C   UNL     1      -7.936  20.864  66.844  1.00  0.00    -0.084 C  
HETATM   33  C   UNL     1      -7.627  20.230  68.198  1.00  0.00    -0.189 C  
HETATM   34  C   UNL     1      -6.135  20.279  68.507  1.00  0.00    -0.327 C  
HETATM   35  C   UNL     1      -5.309  19.633  67.401  1.00  0.00    -0.161 C  
HETATM   36  C   UNL     1      -5.612  20.247  66.036  1.00  0.00    -0.199 C  
ENDBRANCH  29  31
ENDBRANCH  27  29
ENDBRANCH  25  27
ENDBRANCH  22  25
ENDBRANCH  19  22
ENDBRANCH  15  16
ENDBRANCH  14  15
ENDBRANCH  13  14
ENDBRANCH   4  10
ENDBRANCH   2   3
TORSDOF 10
ENDMDL
MODEL      336
REMARK 921   NORMALIZED FREE ENERGY PREDICTED BY IDOCK:    3.23 KCAL/MOL
REMARK 922        TOTAL FREE ENERGY PREDICTED BY IDOCK:    3.15 KCAL/MOL
REMARK 923 INTER-LIGAND FREE ENERGY PREDICTED BY IDOCK:   -0.00 KCAL/MOL
REMARK 924 INTRA-LIGAND FREE ENERGY PREDICTED BY IDOCK:    3.15 KCAL/MOL
REMARK 927      BINDING AFFINITY PREDICTED BY RF-SCORE:    0.00 PKD
ROOT
HETATM    1  C   UNL     1      -7.251  11.397  67.729  1.00  0.00    -0.089 C  
HETATM    2  O   UNL     1      -7.216  10.492  66.627  1.00  0.00    -0.106 OA 
ENDROOT
BRANCH   2   3
HETATM    3  C   UNL     1      -8.175  10.686  65.667  1.00  0.00    -0.154 A  
HETATM    4  C   UNL     1      -9.418  10.031  65.791  1.00  0.00    -0.270 A  
HETATM    5  C   UNL     1     -10.398  10.221  64.800  1.00  0.00    -0.101 A  
HETATM    6  C   UNL     1      -7.914  11.451  64.519  1.00  0.00     1.078 A  
HETATM    7 CL   UNL     1     -11.315  11.185  62.452  1.00  0.00     1.446 Cl 
HETATM    8  C   UNL     1      -8.880  11.600  63.523  1.00  0.00     0.365 A  
HETATM    9  C   UNL     1     -10.120  10.994  63.674  1.00  0.00    -0.371 A  
BRANCH   4  10
HETATM   10  C   UNL     1      -9.729   9.145  66.962  1.00  0.00    -0.188 C  
HETATM   11  H   UNL     1      -8.110   9.918  68.030  1.00  0.00     0.000 HD 
HETATM   12  O   UNL     1     -10.641   8.329  66.930  1.00  0.00    -0.321 OA 
HETATM   13  N   UNL     1      -8.928   9.311  68.084  1.00  0.00    -0.129 N  
BRANCH  13  14
HETATM   14  C   UNL     1      -9.233   8.638  69.333  1.00  0.00    -0.150 C  
BRANCH  14  15
HETATM   15  C   UNL     1     -10.514   9.149  70.004  1.00  0.00    -0.244 C  
BRANCH  15  16
HETATM   16  C   UNL     1     -10.832  10.618  69.785  1.00  0.00    -0.317 A  
HETATM   17  C   UNL     1      -9.908  11.532  69.252  1.00  0.00     0.207 A  
HETATM   18  C   UNL     1     -10.222  12.890  69.140  1.00  0.00     0.231 A  
HETATM   19  C   UNL     1     -11.473  13.349  69.550  1.00  0.00    -0.244 A  
HETATM   20  C   UNL     1     -12.100  11.093  70.159  1.00  0.00    -0.443 A  
HETATM   21  C   UNL     1     -12.416  12.452  70.058  1.00  0.00    -0.037 A  
BRANCH  19  22
HETATM   22  S   UNL     1     -11.799  15.098  69.567  1.00  0.00    -0.335 S  
HETATM   23  O   UNL     1     -11.548  15.567  70.916  1.00  0.00    -0.305 OA 
HETATM   24  O   UNL     1     -13.070  15.350  68.929  1.00  0.00     0.933 OA 
BRANCH  22  25
HETATM   25  N   UNL     1     -10.580  15.759  68.649  1.00  0.00    -0.241 N  
HETATM   26  H   UNL     1     -10.726  15.836  67.643  1.00  0.00     0.000 HD 
BRANCH  25  27
HETATM   27  C   UNL     1      -9.380  16.212  69.169  1.00  0.00    -0.238 C  
HETATM   28  O   UNL     1      -8.318  15.650  68.979  1.00  0.00    -0.197 OA 
BRANCH  27  29
HETATM   29  N   UNL     1      -9.516  17.341  69.929  1.00  0.00     0.851 N  
HETATM   30  H   UNL     1      -9.037  17.413  70.827  1.00  0.00     0.000 HD 
BRANCH  29  31
HETATM   31  C   UNL     1     -10.344  18.441  69.454  1.00  0.00     0.331 C  
HETATM   32  C   UNL     1      -9.667  19.797  69.677  1.00  0.00     0.065 C  
HETATM   33  C   UNL     1      -8.523  20.055  68.700  1.00  0.00    -0.014 C  
HETATM   34  C   UNL     1      -8.979  19.891  67.255  1.00  0.00    -0.420 C  
HETATM   35  C   UNL     1      -9.605  18.521  67.014  1.00  0.00    -0.305 C  
HETATM   36  C   UNL     1     -10.745  18.241  67.989  1.00  0.00    -0.290 C  
ENDBRANCH  29  31
ENDBRANCH  27  29
ENDBRANCH  25  27
ENDBRANCH  22  25
ENDBRANCH  19  22
ENDBRANCH  15  16
ENDBRANCH  14  15
ENDBRANCH  13  14
ENDBRANCH   4  10
ENDBRANCH   2   3
TORSDOF 10
ENDMDL
MODEL      337
REMARK 921   NORMALIZED FREE ENERGY PREDICTED BY IDOCK:    3.63 KCAL/MOL
REMARK 922        TOTAL FREE ENERGY PREDICTED BY IDOCK:    3.78 KCAL/MOL
REMARK 923 INTER-LIGAND FREE ENERGY PREDICTED BY IDOCK:   -0.39 KCAL/MOL
REMARK 924 INTRA-LIGAND FREE ENERGY PREDICTED BY IDOCK:    4.17 KCAL/MOL
REMARK 927      BINDING AFFINITY PREDICTED BY RF-SCORE:    0.00 PKD
ROOT
HETATM    1  C   UNL     1      -8.005  15.895  71.266  1.00  0.00     4.626 C  
HETATM    2  O   UNL     1      -6.709  16.059  70.692  1.00  0.00     0.565 OA 
ENDROOT
BRANCH   2   3
HETATM    3  C   UNL     1      -6.332  15.100  69.788  1.00  0.00    -0.154 A  
HETATM    4  C   UNL     1      -6.770  15.202  68.451  1.00  0.00    -0.110 A  
HETATM    5  C   UNL     1      -6.393  14.212  67.526  1.00  0.00    -0.028 A  
HETATM    6  C   UNL     1      -5.595  13.973  70.184  1.00  0.00    -0.118 A  
HETATM    7 CL   UNL     1      -5.230  11.886  66.806  1.00  0.00    -0.086 Cl 
HETATM    8  C   UNL     1      -5.261  12.978  69.266  1.00  0.00    -0.074 A  
HETATM    9  C   UNL     1      -5.651  13.108  67.940  1.00  0.00    -0.126 A  
BRANCH   4  10
HETATM   10  C   UNL     1      -7.618  16.349  67.985  1.00  0.00    -0.152 C  
HETATM   11  H   UNL     1      -9.083  15.896  69.401  1.00  0.00     0.000 HD 
HETATM   12  O   UNL     1      -7.290  17.052  67.038  1.00  0.00    -0.153 OA 
HETATM   13  N   UNL     1      -8.790  16.571  68.695  1.00  0.00    -0.228 N  
BRANCH  13  14
HETATM   14  C   UNL     1      -9.608  17.746  68.451  1.00  0.00    -0.323 C  
BRANCH  14  15
HETATM   15  C   UNL     1     -10.765  17.492  67.478  1.00  0.00    -0.280 C  
BRANCH  15  16
HETATM   16  C   UNL     1     -10.616  16.275  66.581  1.00  0.00    -0.252 A  
HETATM   17  C   UNL     1     -10.754  16.329  65.184  1.00  0.00    -0.350 A  
HETATM   18  C   UNL     1     -10.683  15.168  64.408  1.00  0.00     0.165 A  
HETATM   19  C   UNL     1     -10.459  13.936  65.022  1.00  0.00    -0.410 A  
HETATM   20  C   UNL     1     -10.356  15.030  67.177  1.00  0.00    -0.257 A  
HETATM   21  C   UNL     1     -10.292  13.864  66.407  1.00  0.00    -0.289 A  
BRANCH  19  22
HETATM   22  S   UNL     1     -10.544  12.449  64.049  1.00  0.00    -0.444 S  
HETATM   23  O   UNL     1      -9.791  12.689  62.833  1.00  0.00     0.355 OA 
HETATM   24  O   UNL     1     -11.917  12.002  63.983  1.00  0.00    -0.397 OA 
BRANCH  22  25
HETATM   25  N   UNL     1      -9.643  11.341  64.900  1.00  0.00    -0.233 N  
HETATM   26  H   UNL     1      -9.173  10.602  64.376  1.00  0.00     0.000 HD 
BRANCH  25  27
HETATM   27  C   UNL     1      -9.491  11.360  66.276  1.00  0.00    -0.209 C  
HETATM   28  O   UNL     1      -8.660  12.043  66.844  1.00  0.00    -0.182 OA 
BRANCH  27  29
HETATM   29  N   UNL     1     -10.356  10.521  66.923  1.00  0.00    -0.229 N  
HETATM   30  H   UNL     1     -11.136  10.904  67.458  1.00  0.00     0.000 HD 
BRANCH  29  31
HETATM   31  C   UNL     1     -10.163   9.079  66.846  1.00  0.00    -0.269 C  
HETATM   32  C   UNL     1      -9.101   8.706  65.807  1.00  0.00    -0.242 C  
HETATM   33  C   UNL     1      -7.680   9.010  66.277  1.00  0.00    -0.095 C  
HETATM   34  C   UNL     1      -7.392   8.363  67.627  1.00  0.00    -0.093 C  
HETATM   35  C   UNL     1      -8.416   8.774  68.679  1.00  0.00    -0.129 C  
HETATM   36  C   UNL     1      -9.844   8.487  68.222  1.00  0.00    -0.190 C  
ENDBRANCH  29  31
ENDBRANCH  27  29
ENDBRANCH  25  27
ENDBRANCH  22  25
ENDBRANCH  19  22
ENDBRANCH  15  16
ENDBRANCH  14  15
ENDBRANCH  13  14
ENDBRANCH   4  10
ENDBRANCH   2   3
TORSDOF 10
ENDMDL
MODEL      338
REMARK 921   NORMALIZED FREE ENERGY PREDICTED BY IDOCK:    4.63 KCAL/MOL
REMARK 922        TOTAL FREE ENERGY PREDICTED BY IDOCK:    5.37 KCAL/MOL
REMARK 923 INTER-LIGAND FREE ENERGY PREDICTED BY IDOCK:    1.53 KCAL/MOL
REMARK 924 INTRA-LIGAND FREE ENERGY PREDICTED BY IDOCK:    3.83 KCAL/MOL
REMARK 927      BINDING AFFINITY PREDICTED BY RF-SCORE:    0.00 PKD
ROOT
HETATM    1  C   UNL     1     -13.802  13.136  69.335  1.00  0.00     5.502 C  
HETATM    2  O   UNL     1     -13.037  13.458  68.175  1.00  0.00     1.586 OA 
ENDROOT
BRANCH   2   3
HETATM    3  C   UNL     1     -11.802  14.006  68.409  1.00  0.00    -0.362 A  
HETATM    4  C   UNL     1     -10.662  13.411  67.828  1.00  0.00    -0.259 A  
HETATM    5  C   UNL     1      -9.394  13.966  68.078  1.00  0.00    -0.204 A  
HETATM    6  C   UNL     1     -11.639  15.091  69.285  1.00  0.00    -0.338 A  
HETATM    7 CL   UNL     1      -7.697  15.694  69.268  1.00  0.00    -0.210 Cl 
HETATM    8  C   UNL     1     -10.372  15.607  69.556  1.00  0.00    -0.277 A  
HETATM    9  C   UNL     1      -9.258  15.050  68.943  1.00  0.00    -0.206 A  
BRANCH   4  10
HETATM   10  C   UNL     1     -10.768  12.207  66.938  1.00  0.00    -0.236 C  
HETATM   11  H   UNL     1      -9.360  13.006  65.620  1.00  0.00     0.000 HD 
HETATM   12  O   UNL     1     -11.554  11.299  67.172  1.00  0.00    -0.513 OA 
HETATM   13  N   UNL     1      -9.917  12.180  65.842  1.00  0.00    -0.241 N  
BRANCH  13  14
HETATM   14  C   UNL     1      -9.804  11.000  65.005  1.00  0.00    -0.269 C  
BRANCH  14  15
HETATM   15  C   UNL     1      -9.934   9.686  65.785  1.00  0.00    -0.342 C  
BRANCH  15  16
HETATM   16  C   UNL     1      -9.127   9.598  67.068  1.00  0.00    -0.154 A  
HETATM   17  C   UNL     1      -8.160  10.549  67.434  1.00  0.00    -0.111 A  
HETATM   18  C   UNL     1      -7.391  10.385  68.590  1.00  0.00    -0.085 A  
HETATM   19  C   UNL     1      -7.588   9.271  69.403  1.00  0.00    -0.080 A  
HETATM   20  C   UNL     1      -9.337   8.501  67.920  1.00  0.00    -0.148 A  
HETATM   21  C   UNL     1      -8.564   8.327  69.072  1.00  0.00    -0.135 A  
BRANCH  19  22
HETATM   22  S   UNL     1      -6.488   8.982  70.772  1.00  0.00    -0.066 S  
HETATM   23  O   UNL     1      -6.440  10.208  71.546  1.00  0.00    -0.296 OA 
HETATM   24  O   UNL     1      -5.271   8.377  70.283  1.00  0.00    -0.023 OA 
BRANCH  22  25
HETATM   25  N   UNL     1      -7.297   7.897  71.737  1.00  0.00    -0.068 N  
HETATM   26  H   UNL     1      -6.799   7.502  72.534  1.00  0.00     0.000 HD 
BRANCH  25  27
HETATM   27  C   UNL     1      -8.605   7.497  71.524  1.00  0.00    -0.116 C  
HETATM   28  O   UNL     1      -9.541   8.274  71.489  1.00  0.00    -0.161 OA 
BRANCH  27  29
HETATM   29  N   UNL     1      -8.735   6.143  71.375  1.00  0.00    -0.135 N  
HETATM   30  H   UNL     1      -9.139   5.584  72.127  1.00  0.00     0.000 HD 
BRANCH  29  31
HETATM   31  C   UNL     1      -8.297   5.503  70.143  1.00  0.00    -0.116 C  
HETATM   32  C   UNL     1      -6.788   5.238  70.149  1.00  0.00    -0.048 C  
HETATM   33  C   UNL     1      -6.395   4.074  71.056  1.00  0.00    -0.018 C  
HETATM   34  C   UNL     1      -7.181   2.814  70.713  1.00  0.00    -0.033 C  
HETATM   35  C   UNL     1      -8.686   3.058  70.759  1.00  0.00    -0.130 C  
HETATM   36  C   UNL     1      -9.096   4.227  69.865  1.00  0.00    -0.173 C  
ENDBRANCH  29  31
ENDBRANCH  27  29
ENDBRANCH  25  27
ENDBRANCH  22  25
ENDBRANCH  19  22
ENDBRANCH  15  16
ENDBRANCH  14  15
ENDBRANCH  13  14
ENDBRANCH   4  10
ENDBRANCH   2   3
TORSDOF 10
ENDMDL
MODEL      339
REMARK 921   NORMALIZED FREE ENERGY PREDICTED BY IDOCK:    4.92 KCAL/MOL
REMARK 922        TOTAL FREE ENERGY PREDICTED BY IDOCK:    5.82 KCAL/MOL
REMARK 923 INTER-LIGAND FREE ENERGY PREDICTED BY IDOCK:   -0.32 KCAL/MOL
REMARK 924 INTRA-LIGAND FREE ENERGY PREDICTED BY IDOCK:    6.14 KCAL/MOL
REMARK 927      BINDING AFFINITY PREDICTED BY RF-SCORE:    0.00 PKD
ROOT
HETATM    1  C   UNL     1     -10.291  16.240  71.674  1.00  0.00     2.483 C  
HETATM    2  O   UNL     1     -10.507  16.336  70.267  1.00  0.00    -0.171 OA 
ENDROOT
BRANCH   2   3
HETATM    3  C   UNL     1     -10.983  15.204  69.659  1.00  0.00    -0.281 A  
HETATM    4  C   UNL     1     -10.202  14.573  68.668  1.00  0.00    -0.243 A  
HETATM    5  C   UNL     1     -10.696  13.417  68.035  1.00  0.00    -0.261 A  
HETATM    6  C   UNL     1     -12.268  14.710  69.938  1.00  0.00    -0.365 A  
HETATM    7 CL   UNL     1     -12.575  11.548  67.528  1.00  0.00     1.654 Cl 
HETATM    8  C   UNL     1     -12.762  13.587  69.276  1.00  0.00     0.583 A  
HETATM    9  C   UNL     1     -11.970  12.940  68.337  1.00  0.00    -0.248 A  
BRANCH   4  10
HETATM   10  C   UNL     1      -8.850  15.095  68.278  1.00  0.00    -0.173 C  
HETATM   11  H   UNL     1      -8.409  15.554  70.266  1.00  0.00     0.000 HD 
HETATM   12  O   UNL     1      -8.490  15.147  67.109  1.00  0.00    -0.182 OA 
HETATM   13  N   UNL     1      -8.030  15.507  69.320  1.00  0.00    -0.224 N  
BRANCH  13  14
HETATM   14  C   UNL     1      -6.644  15.871  69.089  1.00  0.00    -0.158 C  
BRANCH  14  15
HETATM   15  C   UNL     1      -6.075  15.303  67.783  1.00  0.00    -0.169 C  
BRANCH  15  16
HETATM   16  C   UNL     1      -6.225  13.804  67.595  1.00  0.00    -0.119 A  
HETATM   17  C   UNL     1      -5.131  12.932  67.466  1.00  0.00    -0.033 A  
HETATM   18  C   UNL     1      -5.321  11.569  67.220  1.00  0.00    -0.074 A  
HETATM   19  C   UNL     1      -6.613  11.057  67.111  1.00  0.00    -0.089 A  
HETATM   20  C   UNL     1      -7.520  13.263  67.519  1.00  0.00    -0.163 A  
HETATM   21  C   UNL     1      -7.716  11.902  67.264  1.00  0.00    -0.164 A  
BRANCH  19  22
HETATM   22  S   UNL     1      -6.843   9.361  66.626  1.00  0.00    -0.081 S  
HETATM   23  O   UNL     1      -6.997   8.586  67.842  1.00  0.00    -0.072 OA 
HETATM   24  O   UNL     1      -5.834   9.005  65.655  1.00  0.00    -0.049 OA 
BRANCH  22  25
HETATM   25  N   UNL     1      -8.340   9.331  65.905  1.00  0.00    -0.115 N  
HETATM   26  H   UNL     1      -8.393   9.517  64.903  1.00  0.00     0.000 HD 
BRANCH  25  27
HETATM   27  C   UNL     1      -9.519   9.068  66.581  1.00  0.00    -0.194 C  
HETATM   28  O   UNL     1      -9.982   9.813  67.424  1.00  0.00    -0.172 OA 
BRANCH  27  29
HETATM   29  N   UNL     1     -10.094   7.882  66.216  1.00  0.00    -0.478 N  
HETATM   30  H   UNL     1     -10.312   7.699  65.236  1.00  0.00     0.000 HD 
BRANCH  29  31
HETATM   31  C   UNL     1     -10.396   6.880  67.230  1.00  0.00    -0.251 C  
HETATM   32  C   UNL     1     -11.272   5.755  66.670  1.00  0.00     0.130 C  
HETATM   33  C   UNL     1     -10.502   4.802  65.759  1.00  0.00    -0.275 C  
HETATM   34  C   UNL     1      -9.263   4.250  66.454  1.00  0.00    -0.150 C  
HETATM   35  C   UNL     1      -8.359   5.366  66.965  1.00  0.00    -0.107 C  
HETATM   36  C   UNL     1      -9.115   6.336  67.870  1.00  0.00    -0.111 C  
ENDBRANCH  29  31
ENDBRANCH  27  29
ENDBRANCH  25  27
ENDBRANCH  22  25
ENDBRANCH  19  22
ENDBRANCH  15  16
ENDBRANCH  14  15
ENDBRANCH  13  14
ENDBRANCH   4  10
ENDBRANCH   2   3
TORSDOF 10
ENDMDL
MODEL      340
REMARK 921   NORMALIZED FREE ENERGY PREDICTED BY IDOCK:    6.93 KCAL/MOL
REMARK 922        TOTAL FREE ENERGY PREDICTED BY IDOCK:    9.01 KCAL/MOL
REMARK 923 INTER-LIGAND FREE ENERGY PREDICTED BY IDOCK:   -2.61 KCAL/MOL
REMARK 924 INTRA-LIGAND FREE ENERGY PREDICTED BY IDOCK:   11.62 KCAL/MOL
REMARK 927      BINDING AFFINITY PREDICTED BY RF-SCORE:    0.00 PKD
ROOT
HETATM    1  C   UNL     1     -10.874   4.751  66.129  1.00  0.00     0.048 C  
HETATM    2  O   UNL     1     -10.065   5.691  65.423  1.00  0.00     0.331 OA 
ENDROOT
BRANCH   2   3
HETATM    3  C   UNL     1      -9.378   6.587  66.200  1.00  0.00    -0.063 A  
HETATM    4  C   UNL     1      -7.986   6.430  66.367  1.00  0.00    -0.110 A  
HETATM    5  C   UNL     1      -7.282   7.343  67.173  1.00  0.00    -0.089 A  
HETATM    6  C   UNL     1     -10.043   7.603  66.905  1.00  0.00    -0.348 A  
HETATM    7 CL   UNL     1      -7.094   9.434  68.868  1.00  0.00    -0.067 Cl 
HETATM    8  C   UNL     1      -9.340   8.477  67.734  1.00  0.00    -0.153 A  
HETATM    9  C   UNL     1      -7.963   8.350  67.855  1.00  0.00    -0.115 A  
BRANCH   4  10
HETATM   10  C   UNL     1      -7.231   5.322  65.693  1.00  0.00    -0.068 C  
HETATM   11  H   UNL     1      -7.765   6.047  63.809  1.00  0.00     0.000 HD 
HETATM   12  O   UNL     1      -6.674   4.438  66.332  1.00  0.00    -0.048 OA 
HETATM   13  N   UNL     1      -7.195   5.362  64.305  1.00  0.00    -0.053 N  
BRANCH  13  14
HETATM   14  C   UNL     1      -6.360   4.447  63.547  1.00  0.00    -0.026 C  
BRANCH  14  15
HETATM   15  C   UNL     1      -6.402   3.007  64.072  1.00  0.00    -0.023 C  
BRANCH  15  16
HETATM   16  C   UNL     1      -6.525   2.858  65.579  1.00  0.00    -0.032 A  
HETATM   17  C   UNL     1      -7.686   2.386  66.212  1.00  0.00    -0.072 A  
HETATM   18  C   UNL     1      -7.777   2.337  67.606  1.00  0.00    -0.060 A  
HETATM   19  C   UNL     1      -6.699   2.751  68.387  1.00  0.00    -0.040 A  
HETATM   20  C   UNL     1      -5.435   3.235  66.381  1.00  0.00    -0.017 A  
HETATM   21  C   UNL     1      -5.523   3.197  67.777  1.00  0.00    -0.017 A  
BRANCH  19  22
HETATM   22  S   UNL     1      -6.887   2.850  70.153  1.00  0.00    -0.034 S  
HETATM   23  O   UNL     1      -5.875   3.769  70.640  1.00  0.00    -0.013 OA 
HETATM   24  O   UNL     1      -6.983   1.514  70.696  1.00  0.00    -0.031 OA 
BRANCH  22  25
HETATM   25  N   UNL     1      -8.330   3.643  70.377  1.00  0.00    -0.056 N  
HETATM   26  H   UNL     1      -8.963   3.720  69.581  1.00  0.00     0.000 HD 
BRANCH  25  27
HETATM   27  C   UNL     1      -8.725   4.207  71.578  1.00  0.00    -0.107 C  
HETATM   28  O   UNL     1      -9.500   3.665  72.344  1.00  0.00    -0.117 OA 
BRANCH  27  29
HETATM   29  N   UNL     1      -8.170   5.436  71.803  1.00  0.00    -0.117 N  
HETATM   30  H   UNL     1      -7.156   5.538  71.855  1.00  0.00     0.000 HD 
BRANCH  29  31
HETATM   31  C   UNL     1      -9.029   6.601  71.967  1.00  0.00    -0.139 C  
HETATM   32  C   UNL     1      -9.730   6.598  73.329  1.00  0.00    -0.189 C  
HETATM   33  C   UNL     1      -8.792   6.957  74.479  1.00  0.00    -0.221 C  
HETATM   34  C   UNL     1      -8.078   8.279  74.222  1.00  0.00    -0.279 C  
HETATM   35  C   UNL     1      -7.333   8.267  72.892  1.00  0.00    -0.146 C  
HETATM   36  C   UNL     1      -8.254   7.900  71.730  1.00  0.00    -0.139 C  
ENDBRANCH  29  31
ENDBRANCH  27  29
ENDBRANCH  25  27
ENDBRANCH  22  25
ENDBRANCH  19  22
ENDBRANCH  15  16
ENDBRANCH  14  15
ENDBRANCH  13  14
ENDBRANCH   4  10
ENDBRANCH   2   3
TORSDOF 10
ENDMDL
MODEL      341
REMARK 921   NORMALIZED FREE ENERGY PREDICTED BY IDOCK:    7.47 KCAL/MOL
REMARK 922        TOTAL FREE ENERGY PREDICTED BY IDOCK:    9.86 KCAL/MOL
REMARK 923 INTER-LIGAND FREE ENERGY PREDICTED BY IDOCK:    6.03 KCAL/MOL
REMARK 924 INTRA-LIGAND FREE ENERGY PREDICTED BY IDOCK:    3.84 KCAL/MOL
REMARK 927      BINDING AFFINITY PREDICTED BY RF-SCORE:    0.00 PKD
ROOT
HETATM    1  C   UNL     1     -13.949  13.140  69.247  1.00  0.00     6.954 C  
HETATM    2  O   UNL     1     -13.463  13.720  68.037  1.00  0.00     3.166 OA 
ENDROOT
BRANCH   2   3
HETATM    3  C   UNL     1     -12.237  14.328  68.118  1.00  0.00    -0.129 A  
HETATM    4  C   UNL     1     -11.306  14.145  67.073  1.00  0.00    -0.346 A  
HETATM    5  C   UNL     1     -10.044  14.759  67.161  1.00  0.00    -0.240 A  
HETATM    6  C   UNL     1     -11.856  15.055  69.257  1.00  0.00    -0.344 A  
HETATM    7 CL   UNL     1      -8.131  16.198  68.408  1.00  0.00    -0.163 Cl 
HETATM    8  C   UNL     1     -10.587  15.625  69.350  1.00  0.00    -0.253 A  
HETATM    9  C   UNL     1      -9.692  15.485  68.298  1.00  0.00    -0.201 A  
BRANCH   4  10
HETATM   10  C   UNL     1     -11.633  13.322  65.862  1.00  0.00    -0.347 C  
HETATM   11  H   UNL     1     -10.811  14.771  64.603  1.00  0.00     0.000 HD 
HETATM   12  O   UNL     1     -12.234  12.259  65.946  1.00  0.00    -0.634 OA 
HETATM   13  N   UNL     1     -11.206  13.831  64.643  1.00  0.00    -0.363 N  
BRANCH  13  14
HETATM   14  C   UNL     1     -11.310  13.052  63.422  1.00  0.00    -0.156 C  
BRANCH  14  15
HETATM   15  C   UNL     1     -11.170  11.542  63.650  1.00  0.00    -0.451 C  
BRANCH  15  16
HETATM   16  C   UNL     1     -10.051  11.117  64.585  1.00  0.00    -0.358 A  
HETATM   17  C   UNL     1      -9.083  12.008  65.079  1.00  0.00     0.388 A  
HETATM   18  C   UNL     1      -8.029  11.555  65.877  1.00  0.00     0.267 A  
HETATM   19  C   UNL     1      -7.934  10.203  66.200  1.00  0.00    -0.125 A  
HETATM   20  C   UNL     1      -9.959   9.764  64.951  1.00  0.00    -0.061 A  
HETATM   21  C   UNL     1      -8.901   9.304  65.742  1.00  0.00    -0.211 A  
BRANCH  19  22
HETATM   22  S   UNL     1      -6.497   9.610  67.067  1.00  0.00    -0.067 S  
HETATM   23  O   UNL     1      -6.348  10.428  68.256  1.00  0.00    -0.051 OA 
HETATM   24  O   UNL     1      -5.404   9.471  66.133  1.00  0.00    -0.039 OA 
BRANCH  22  25
HETATM   25  N   UNL     1      -6.938   8.110  67.631  1.00  0.00    -0.077 N  
HETATM   26  H   UNL     1      -6.206   7.504  68.002  1.00  0.00     0.000 HD 
BRANCH  25  27
HETATM   27  C   UNL     1      -8.237   7.633  67.627  1.00  0.00    -0.121 C  
HETATM   28  O   UNL     1      -9.121   8.105  68.316  1.00  0.00    -0.136 OA 
BRANCH  27  29
HETATM   29  N   UNL     1      -8.416   6.569  66.785  1.00  0.00    -0.111 N  
HETATM   30  H   UNL     1      -8.314   6.691  65.778  1.00  0.00     0.000 HD 
BRANCH  29  31
HETATM   31  C   UNL     1      -8.752   5.261  67.331  1.00  0.00    -0.106 C  
HETATM   32  C   UNL     1     -10.248   5.144  67.640  1.00  0.00    -0.197 C  
HETATM   33  C   UNL     1     -11.102   4.992  66.384  1.00  0.00     0.330 C  
HETATM   34  C   UNL     1     -10.618   3.832  65.521  1.00  0.00     0.448 C  
HETATM   35  C   UNL     1      -9.142   3.971  65.165  1.00  0.00    -0.139 C  
HETATM   36  C   UNL     1      -8.273   4.135  66.410  1.00  0.00    -0.101 C  
ENDBRANCH  29  31
ENDBRANCH  27  29
ENDBRANCH  25  27
ENDBRANCH  22  25
ENDBRANCH  19  22
ENDBRANCH  15  16
ENDBRANCH  14  15
ENDBRANCH  13  14
ENDBRANCH   4  10
ENDBRANCH   2   3
TORSDOF 10
ENDMDL
MODEL      342
REMARK 921   NORMALIZED FREE ENERGY PREDICTED BY IDOCK:    8.77 KCAL/MOL
REMARK 922        TOTAL FREE ENERGY PREDICTED BY IDOCK:   11.93 KCAL/MOL
REMARK 923 INTER-LIGAND FREE ENERGY PREDICTED BY IDOCK:    9.45 KCAL/MOL
REMARK 924 INTRA-LIGAND FREE ENERGY PREDICTED BY IDOCK:    2.48 KCAL/MOL
REMARK 927      BINDING AFFINITY PREDICTED BY RF-SCORE:    0.00 PKD
ROOT
HETATM    1  C   UNL     1      -6.849   8.053  66.968  1.00  0.00    -0.073 C  
HETATM    2  O   UNL     1      -5.996   9.164  66.695  1.00  0.00    -0.057 OA 
ENDROOT
BRANCH   2   3
HETATM    3  C   UNL     1      -6.394   9.983  65.671  1.00  0.00    -0.094 A  
HETATM    4  C   UNL     1      -6.533  11.367  65.908  1.00  0.00     0.314 A  
HETATM    5  C   UNL     1      -6.952  12.207  64.860  1.00  0.00     4.698 A  
HETATM    6  C   UNL     1      -6.752   9.463  64.417  1.00  0.00    -0.090 A  
HETATM    7 CL   UNL     1      -7.841  12.702  62.360  1.00  0.00     4.535 Cl 
HETATM    8  C   UNL     1      -7.206  10.300  63.398  1.00  0.00    -0.088 A  
HETATM    9  C   UNL     1      -7.292  11.668  63.620  1.00  0.00     2.470 A  
BRANCH   4  10
HETATM   10  C   UNL     1      -6.230  11.971  67.248  1.00  0.00    -0.149 C  
HETATM   11  H   UNL     1      -8.041  11.273  68.018  1.00  0.00     0.000 HD 
HETATM   12  O   UNL     1      -5.219  12.632  67.445  1.00  0.00    -0.197 OA 
HETATM   13  N   UNL     1      -7.159  11.729  68.251  1.00  0.00    -0.074 N  
BRANCH  13  14
HETATM   14  C   UNL     1      -6.899  12.114  69.627  1.00  0.00     0.112 C  
BRANCH  14  15
HETATM   15  C   UNL     1      -6.502  10.935  70.524  1.00  0.00     0.057 C  
BRANCH  15  16
HETATM   16  C   UNL     1      -7.065   9.583  70.123  1.00  0.00    -0.099 A  
HETATM   17  C   UNL     1      -8.413   9.230  70.298  1.00  0.00    -0.224 A  
HETATM   18  C   UNL     1      -8.869   7.947  69.982  1.00  0.00    -0.141 A  
HETATM   19  C   UNL     1      -7.980   7.000  69.475  1.00  0.00    -0.125 A  
HETATM   20  C   UNL     1      -6.192   8.627  69.577  1.00  0.00    -0.036 A  
HETATM   21  C   UNL     1      -6.640   7.338  69.268  1.00  0.00    -0.041 A  
BRANCH  19  22
HETATM   22  S   UNL     1      -8.528   5.324  69.242  1.00  0.00    -0.102 S  
HETATM   23  O   UNL     1      -8.060   4.898  67.937  1.00  0.00    -0.093 OA 
HETATM   24  O   UNL     1      -9.930   5.231  69.582  1.00  0.00    -0.189 OA 
BRANCH  22  25
HETATM   25  N   UNL     1      -7.636   4.436  70.329  1.00  0.00    -0.049 N  
HETATM   26  H   UNL     1      -7.163   3.600  69.989  1.00  0.00     0.000 HD 
BRANCH  25  27
HETATM   27  C   UNL     1      -7.497   4.765  71.666  1.00  0.00    -0.071 C  
HETATM   28  O   UNL     1      -6.506   5.306  72.118  1.00  0.00    -0.040 OA 
BRANCH  27  29
HETATM   29  N   UNL     1      -8.578   4.403  72.423  1.00  0.00    -0.108 N  
HETATM   30  H   UNL     1      -8.738   4.844  73.328  1.00  0.00     0.000 HD 
BRANCH  29  31
HETATM   31  C   UNL     1      -9.498   3.385  71.934  1.00  0.00    -0.139 C  
HETATM   32  C   UNL     1      -8.951   1.972  72.162  1.00  0.00    -0.108 C  
HETATM   33  C   UNL     1      -9.030   1.536  73.624  1.00  0.00    -0.061 C  
HETATM   34  C   UNL     1     -10.445   1.683  74.172  1.00  0.00    -0.164 C  
HETATM   35  C   UNL     1     -10.973   3.103  73.996  1.00  0.00    -0.217 C  
HETATM   36  C   UNL     1     -10.893   3.560  72.541  1.00  0.00     0.089 C  
ENDBRANCH  29  31
ENDBRANCH  27  29
ENDBRANCH  25  27
ENDBRANCH  22  25
ENDBRANCH  19  22
ENDBRANCH  15  16
ENDBRANCH  14  15
ENDBRANCH  13  14
ENDBRANCH   4  10
ENDBRANCH   2   3
TORSDOF 10
ENDMDL
MODEL      343
REMARK 921   NORMALIZED FREE ENERGY PREDICTED BY IDOCK:    9.91 KCAL/MOL
REMARK 922        TOTAL FREE ENERGY PREDICTED BY IDOCK:   13.73 KCAL/MOL
REMARK 923 INTER-LIGAND FREE ENERGY PREDICTED BY IDOCK:   13.04 KCAL/MOL
REMARK 924 INTRA-LIGAND FREE ENERGY PREDICTED BY IDOCK:    0.69 KCAL/MOL
REMARK 927      BINDING AFFINITY PREDICTED BY RF-SCORE:    0.00 PKD
ROOT
HETATM    1  C   UNL     1     -14.351  10.267  73.462  1.00  0.00     3.934 C  
HETATM    2  O   UNL     1     -13.146  10.135  72.710  1.00  0.00     0.152 OA 
ENDROOT
BRANCH   2   3
HETATM    3  C   UNL     1     -13.177  10.649  71.439  1.00  0.00    -0.323 A  
HETATM    4  C   UNL     1     -12.776   9.837  70.357  1.00  0.00     0.051 A  
HETATM    5  C   UNL     1     -12.797  10.367  69.054  1.00  0.00     1.701 A  
HETATM    6  C   UNL     1     -13.515  11.991  71.202  1.00  0.00     0.498 A  
HETATM    7 CL   UNL     1     -13.132  12.345  67.249  1.00  0.00     3.329 Cl 
HETATM    8  C   UNL     1     -13.494  12.516  69.911  1.00  0.00     2.436 A  
HETATM    9  C   UNL     1     -13.147  11.700  68.843  1.00  0.00     2.631 A  
BRANCH   4  10
HETATM   10  C   UNL     1     -12.338   8.416  70.558  1.00  0.00     0.326 C  
HETATM   11  H   UNL     1     -10.660   9.039  71.631  1.00  0.00     0.000 HD 
HETATM   12  O   UNL     1     -12.952   7.476  70.068  1.00  0.00     1.015 OA 
HETATM   13  N   UNL     1     -11.205   8.229  71.337  1.00  0.00    -0.246 N  
BRANCH  13  14
HETATM   14  C   UNL     1     -10.781   6.901  71.744  1.00  0.00    -0.221 C  
BRANCH  14  15
HETATM   15  C   UNL     1      -9.612   6.355  70.915  1.00  0.00    -0.189 C  
BRANCH  15  16
HETATM   16  C   UNL     1      -8.868   7.376  70.072  1.00  0.00    -0.141 A  
HETATM   17  C   UNL     1      -7.704   7.073  69.347  1.00  0.00    -0.108 A  
HETATM   18  C   UNL     1      -7.014   8.065  68.645  1.00  0.00    -0.071 A  
HETATM   19  C   UNL     1      -7.488   9.376  68.651  1.00  0.00    -0.079 A  
HETATM   20  C   UNL     1      -9.350   8.695  70.036  1.00  0.00    -0.165 A  
HETATM   21  C   UNL     1      -8.659   9.695  69.343  1.00  0.00    -0.160 A  
BRANCH  19  22
HETATM   22  S   UNL     1      -6.510  10.661  67.903  1.00  0.00    -0.059 S  
HETATM   23  O   UNL     1      -5.154  10.158  67.793  1.00  0.00    -0.032 OA 
HETATM   24  O   UNL     1      -6.774  11.911  68.577  1.00  0.00    -0.059 OA 
BRANCH  22  25
HETATM   25  N   UNL     1      -7.062  10.750  66.337  1.00  0.00    -0.129 N  
HETATM   26  H   UNL     1      -6.601  10.173  65.633  1.00  0.00     0.000 HD 
BRANCH  25  27
HETATM   27  C   UNL     1      -8.110  11.558  65.931  1.00  0.00     0.223 C  
HETATM   28  O   UNL     1      -8.625  11.477  64.832  1.00  0.00     0.251 OA 
BRANCH  27  29
HETATM   29  N   UNL     1      -8.489  12.465  66.883  1.00  0.00    -0.297 N  
HETATM   30  H   UNL     1      -8.287  12.287  67.867  1.00  0.00     0.000 HD 
BRANCH  29  31
HETATM   31  C   UNL     1      -9.181  13.684  66.489  1.00  0.00    -0.179 C  
HETATM   32  C   UNL     1     -10.571  13.776  67.126  1.00  0.00    -0.277 C  
HETATM   33  C   UNL     1     -10.520  14.122  68.612  1.00  0.00    -0.250 C  
HETATM   34  C   UNL     1      -9.708  15.388  68.860  1.00  0.00    -0.220 C  
HETATM   35  C   UNL     1      -8.304  15.280  68.275  1.00  0.00    -0.148 C  
HETATM   36  C   UNL     1      -8.335  14.925  66.790  1.00  0.00    -0.158 C  
ENDBRANCH  29  31
ENDBRANCH  27  29
ENDBRANCH  25  27
ENDBRANCH  22  25
ENDBRANCH  19  22
ENDBRANCH  15  16
ENDBRANCH  14  15
ENDBRANCH  13  14
ENDBRANCH   4  10
ENDBRANCH   2   3
TORSDOF 10
ENDMDL
MODEL      344
REMARK 921   NORMALIZED FREE ENERGY PREDICTED BY IDOCK:   10.15 KCAL/MOL
REMARK 922        TOTAL FREE ENERGY PREDICTED BY IDOCK:   14.11 KCAL/MOL
REMARK 923 INTER-LIGAND FREE ENERGY PREDICTED BY IDOCK:    0.64 KCAL/MOL
REMARK 924 INTRA-LIGAND FREE ENERGY PREDICTED BY IDOCK:   13.47 KCAL/MOL
REMARK 927      BINDING AFFINITY PREDICTED BY RF-SCORE:    0.00 PKD
ROOT
HETATM    1  C   UNL     1     -13.811  12.729  72.884  1.00  0.00     0.888 C  
HETATM    2  O   UNL     1     -13.544  12.264  71.562  1.00  0.00    -0.021 OA 
ENDROOT
BRANCH   2   3
HETATM    3  C   UNL     1     -12.641  11.237  71.464  1.00  0.00    -0.312 A  
HETATM    4  C   UNL     1     -12.028  10.974  70.220  1.00  0.00    -0.452 A  
HETATM    5  C   UNL     1     -11.110   9.913  70.116  1.00  0.00    -0.353 A  
HETATM    6  C   UNL     1     -12.380  10.387  72.551  1.00  0.00     1.189 A  
HETATM    7 CL   UNL     1      -9.764   7.773  71.059  1.00  0.00    -0.169 Cl 
HETATM    8  C   UNL     1     -11.498   9.314  72.424  1.00  0.00     0.266 A  
HETATM    9  C   UNL     1     -10.860   9.090  71.212  1.00  0.00    -0.315 A  
BRANCH   4  10
HETATM   10  C   UNL     1     -12.320  11.807  69.006  1.00  0.00     0.117 C  
HETATM   11  H   UNL     1     -12.975  13.391  70.198  1.00  0.00     0.000 HD 
HETATM   12  O   UNL     1     -12.173  11.369  67.872  1.00  0.00    -0.592 OA 
HETATM   13  N   UNL     1     -12.757  13.103  69.244  1.00  0.00     0.484 N  
BRANCH  13  14
HETATM   14  C   UNL     1     -12.909  14.057  68.160  1.00  0.00     1.408 C  
BRANCH  14  15
HETATM   15  C   UNL     1     -11.737  14.049  67.172  1.00  0.00    -0.421 C  
BRANCH  15  16
HETATM   16  C   UNL     1     -10.437  13.464  67.697  1.00  0.00    -0.242 A  
HETATM   17  C   UNL     1     -10.381  12.542  68.755  1.00  0.00    -0.138 A  
HETATM   18  C   UNL     1      -9.156  12.089  69.252  1.00  0.00     0.739 A  
HETATM   19  C   UNL     1      -7.966  12.546  68.686  1.00  0.00    -0.029 A  
HETATM   20  C   UNL     1      -9.229  13.885  67.116  1.00  0.00    -0.242 A  
HETATM   21  C   UNL     1      -7.999  13.442  67.615  1.00  0.00    -0.174 A  
BRANCH  19  22
HETATM   22  S   UNL     1      -6.415  12.101  69.436  1.00  0.00    -0.091 S  
HETATM   23  O   UNL     1      -6.648  10.902  70.220  1.00  0.00    -0.205 OA 
HETATM   24  O   UNL     1      -5.830  13.272  70.047  1.00  0.00    -0.116 OA 
BRANCH  22  25
HETATM   25  N   UNL     1      -5.463  11.605  68.167  1.00  0.00    -0.043 N  
HETATM   26  H   UNL     1      -4.452  11.595  68.302  1.00  0.00     0.000 HD 
BRANCH  25  27
HETATM   27  C   UNL     1      -5.960  11.205  66.938  1.00  0.00    -0.103 C  
HETATM   28  O   UNL     1      -6.858  11.789  66.361  1.00  0.00     0.030 OA 
BRANCH  27  29
HETATM   29  N   UNL     1      -5.350  10.080  66.453  1.00  0.00    -0.043 N  
HETATM   30  H   UNL     1      -4.405  10.134  66.074  1.00  0.00     0.000 HD 
BRANCH  29  31
HETATM   31  C   UNL     1      -6.054   8.805  66.481  1.00  0.00    -0.057 C  
HETATM   32  C   UNL     1      -5.577   7.921  67.638  1.00  0.00    -0.037 C  
HETATM   33  C   UNL     1      -6.095   8.392  68.995  1.00  0.00    -0.043 C  
HETATM   34  C   UNL     1      -7.613   8.536  68.990  1.00  0.00    -0.094 C  
HETATM   35  C   UNL     1      -8.089   9.459  67.873  1.00  0.00    -0.103 C  
HETATM   36  C   UNL     1      -7.571   9.008  66.509  1.00  0.00    -0.089 C  
ENDBRANCH  29  31
ENDBRANCH  27  29
ENDBRANCH  25  27
ENDBRANCH  22  25
ENDBRANCH  19  22
ENDBRANCH  15  16
ENDBRANCH  14  15
ENDBRANCH  13  14
ENDBRANCH   4  10
ENDBRANCH   2   3
TORSDOF 10
ENDMDL
MODEL      345
REMARK 921   NORMALIZED FREE ENERGY PREDICTED BY IDOCK:   10.88 KCAL/MOL
REMARK 922        TOTAL FREE ENERGY PREDICTED BY IDOCK:   15.27 KCAL/MOL
REMARK 923 INTER-LIGAND FREE ENERGY PREDICTED BY IDOCK:    9.28 KCAL/MOL
REMARK 924 INTRA-LIGAND FREE ENERGY PREDICTED BY IDOCK:    5.98 KCAL/MOL
REMARK 927      BINDING AFFINITY PREDICTED BY RF-SCORE:    0.00 PKD
ROOT
HETATM    1  C   UNL     1     -13.823  12.741  72.925  1.00  0.00     0.888 C  
HETATM    2  O   UNL     1     -13.537  12.228  71.625  1.00  0.00    -0.134 OA 
ENDROOT
BRANCH   2   3
HETATM    3  C   UNL     1     -12.547  11.281  71.562  1.00  0.00    -0.312 A  
HETATM    4  C   UNL     1     -11.982  10.956  70.311  1.00  0.00    -0.448 A  
HETATM    5  C   UNL     1     -10.975   9.976  70.246  1.00  0.00    -0.377 A  
HETATM    6  C   UNL     1     -12.148  10.567  72.703  1.00  0.00     2.505 A  
HETATM    7 CL   UNL     1      -9.381   8.066  71.291  1.00  0.00    -0.171 Cl 
HETATM    8  C   UNL     1     -11.176   9.570  72.619  1.00  0.00     1.706 A  
HETATM    9  C   UNL     1     -10.587   9.288  71.394  1.00  0.00    -0.347 A  
BRANCH   4  10
HETATM   10  C   UNL     1     -12.418  11.637  69.048  1.00  0.00     0.332 C  
HETATM   11  H   UNL     1     -13.225  13.227  70.134  1.00  0.00     0.000 HD 
HETATM   12  O   UNL     1     -12.257  11.124  67.948  1.00  0.00    -0.521 OA 
HETATM   13  N   UNL     1     -13.006  12.886  69.198  1.00  0.00     1.263 N  
BRANCH  13  14
HETATM   14  C   UNL     1     -13.314  13.717  68.048  1.00  0.00     4.459 C  
BRANCH  14  15
HETATM   15  C   UNL     1     -12.209  13.721  66.985  1.00  0.00    -0.381 C  
BRANCH  15  16
HETATM   16  C   UNL     1     -11.494  15.046  66.784  1.00  0.00    -0.252 A  
HETATM   17  C   UNL     1     -11.423  16.039  67.774  1.00  0.00    -0.080 A  
HETATM   18  C   UNL     1     -10.818  17.273  67.515  1.00  0.00    -0.206 A  
HETATM   19  C   UNL     1     -10.265  17.524  66.260  1.00  0.00    -0.355 A  
HETATM   20  C   UNL     1     -10.899  15.305  65.537  1.00  0.00    -0.382 A  
HETATM   21  C   UNL     1     -10.301  16.540  65.269  1.00  0.00    -0.162 A  
BRANCH  19  22
HETATM   22  S   UNL     1      -9.656  19.153  65.885  1.00  0.00     0.144 S  
HETATM   23  O   UNL     1      -9.367  19.803  67.150  1.00  0.00    -0.319 OA 
HETATM   24  O   UNL     1     -10.535  19.780  64.925  1.00  0.00     0.199 OA 
BRANCH  22  25
HETATM   25  N   UNL     1      -8.169  18.894  65.187  1.00  0.00     1.501 N  
HETATM   26  H   UNL     1      -7.767  19.645  64.626  1.00  0.00     0.000 HD 
BRANCH  25  27
HETATM   27  C   UNL     1      -7.446  17.722  65.321  1.00  0.00     1.273 C  
HETATM   28  O   UNL     1      -7.946  16.617  65.221  1.00  0.00     0.950 OA 
BRANCH  27  29
HETATM   29  N   UNL     1      -6.123  17.935  65.595  1.00  0.00    -0.196 N  
HETATM   30  H   UNL     1      -5.490  18.238  64.854  1.00  0.00     0.000 HD 
BRANCH  29  31
HETATM   31  C   UNL     1      -5.619  17.730  66.946  1.00  0.00    -0.146 C  
HETATM   32  C   UNL     1      -5.445  19.057  67.692  1.00  0.00    -0.171 C  
HETATM   33  C   UNL     1      -6.774  19.668  68.132  1.00  0.00    -0.299 C  
HETATM   34  C   UNL     1      -7.599  18.676  68.943  1.00  0.00    -0.283 C  
HETATM   35  C   UNL     1      -7.822  17.373  68.183  1.00  0.00    -0.234 C  
HETATM   36  C   UNL     1      -6.504  16.753  67.726  1.00  0.00    -0.162 C  
ENDBRANCH  29  31
ENDBRANCH  27  29
ENDBRANCH  25  27
ENDBRANCH  22  25
ENDBRANCH  19  22
ENDBRANCH  15  16
ENDBRANCH  14  15
ENDBRANCH  13  14
ENDBRANCH   4  10
ENDBRANCH   2   3
TORSDOF 10
ENDMDL
MODEL      346
REMARK 921   NORMALIZED FREE ENERGY PREDICTED BY IDOCK:   11.32 KCAL/MOL
REMARK 922        TOTAL FREE ENERGY PREDICTED BY IDOCK:   15.96 KCAL/MOL
REMARK 923 INTER-LIGAND FREE ENERGY PREDICTED BY IDOCK:    2.22 KCAL/MOL
REMARK 924 INTRA-LIGAND FREE ENERGY PREDICTED BY IDOCK:   13.74 KCAL/MOL
REMARK 927      BINDING AFFINITY PREDICTED BY RF-SCORE:    0.00 PKD
ROOT
HETATM    1  C   UNL     1     -14.276  10.244  73.491  1.00  0.00     3.954 C  
HETATM    2  O   UNL     1     -12.939  10.059  73.031  1.00  0.00     0.568 OA 
ENDROOT
BRANCH   2   3
HETATM    3  C   UNL     1     -12.653  10.594  71.801  1.00  0.00    -0.306 A  
HETATM    4  C   UNL     1     -12.091   9.769  70.804  1.00  0.00    -0.364 A  
HETATM    5  C   UNL     1     -11.787  10.320  69.546  1.00  0.00    -0.148 A  
HETATM    6  C   UNL     1     -12.824  11.963  71.543  1.00  0.00    -0.421 A  
HETATM    7 CL   UNL     1     -11.563  12.348  67.779  1.00  0.00    -0.390 Cl 
HETATM    8  C   UNL     1     -12.481  12.506  70.305  1.00  0.00    -0.157 A  
HETATM    9  C   UNL     1     -11.975  11.681  69.310  1.00  0.00    -0.317 A  
BRANCH   4  10
HETATM   10  C   UNL     1     -11.822   8.313  71.045  1.00  0.00    -0.255 C  
HETATM   11  H   UNL     1     -10.084   8.767  72.109  1.00  0.00     0.000 HD 
HETATM   12  O   UNL     1     -12.539   7.437  70.578  1.00  0.00    -0.018 OA 
HETATM   13  N   UNL     1     -10.719   8.017  71.835  1.00  0.00    -0.237 N  
BRANCH  13  14
HETATM   14  C   UNL     1     -10.452   6.661  72.279  1.00  0.00    -0.205 C  
BRANCH  14  15
HETATM   15  C   UNL     1      -9.768   5.795  71.215  1.00  0.00    -0.210 C  
BRANCH  15  16
HETATM   16  C   UNL     1      -9.344   6.519  69.949  1.00  0.00    -0.155 A  
HETATM   17  C   UNL     1      -8.614   5.903  68.919  1.00  0.00    -0.110 A  
HETATM   18  C   UNL     1      -8.183   6.631  67.807  1.00  0.00    -0.119 A  
HETATM   19  C   UNL     1      -8.487   7.988  67.705  1.00  0.00    -0.128 A  
HETATM   20  C   UNL     1      -9.672   7.878  69.812  1.00  0.00    -0.176 A  
HETATM   21  C   UNL     1      -9.235   8.615  68.705  1.00  0.00    -0.142 A  
BRANCH  19  22
HETATM   22  S   UNL     1      -7.787   8.943  66.377  1.00  0.00    -0.104 S  
HETATM   23  O   UNL     1      -6.574   8.266  65.957  1.00  0.00    -0.052 OA 
HETATM   24  O   UNL     1      -7.752  10.335  66.761  1.00  0.00    -0.106 OA 
BRANCH  22  25
HETATM   25  N   UNL     1      -8.848   8.744  65.113  1.00  0.00    -0.326 N  
HETATM   26  H   UNL     1      -8.743   7.918  64.525  1.00  0.00     0.000 HD 
BRANCH  25  27
HETATM   27  C   UNL     1      -9.866   9.633  64.812  1.00  0.00     0.085 C  
HETATM   28  O   UNL     1     -10.771   9.370  64.042  1.00  0.00     3.302 OA 
BRANCH  27  29
HETATM   29  N   UNL     1      -9.737  10.835  65.451  1.00  0.00    -0.227 N  
HETATM   30  H   UNL     1      -9.270  10.884  66.357  1.00  0.00     0.000 HD 
BRANCH  29  31
HETATM   31  C   UNL     1     -10.267  12.044  64.836  1.00  0.00    -0.270 C  
HETATM   32  C   UNL     1     -11.799  12.053  64.836  1.00  0.00    -0.304 C  
HETATM   33  C   UNL     1     -12.389  12.331  66.216  1.00  0.00     0.340 C  
HETATM   34  C   UNL     1     -11.824  13.614  66.814  1.00  0.00    -0.452 C  
HETATM   35  C   UNL     1     -10.300  13.588  66.867  1.00  0.00    -0.265 C  
HETATM   36  C   UNL     1      -9.692  13.301  65.496  1.00  0.00    -0.063 C  
ENDBRANCH  29  31
ENDBRANCH  27  29
ENDBRANCH  25  27
ENDBRANCH  22  25
ENDBRANCH  19  22
ENDBRANCH  15  16
ENDBRANCH  14  15
ENDBRANCH  13  14
ENDBRANCH   4  10
ENDBRANCH   2   3
TORSDOF 10
ENDMDL
MODEL      347
REMARK 921   NORMALIZED FREE ENERGY PREDICTED BY IDOCK:   12.00 KCAL/MOL
REMARK 922        TOTAL FREE ENERGY PREDICTED BY IDOCK:   17.05 KCAL/MOL
REMARK 923 INTER-LIGAND FREE ENERGY PREDICTED BY IDOCK:    9.86 KCAL/MOL
REMARK 924 INTRA-LIGAND FREE ENERGY PREDICTED BY IDOCK:    7.19 KCAL/MOL
REMARK 927      BINDING AFFINITY PREDICTED BY RF-SCORE:    0.00 PKD
ROOT
HETATM    1  C   UNL     1     -10.011  15.650  72.158  1.00  0.00     3.777 C  
HETATM    2  O   UNL     1     -10.478  15.976  70.850  1.00  0.00     0.169 OA 
ENDROOT
BRANCH   2   3
HETATM    3  C   UNL     1     -11.215  15.006  70.222  1.00  0.00    -0.252 A  
HETATM    4  C   UNL     1     -10.795  14.528  68.962  1.00  0.00    -0.265 A  
HETATM    5  C   UNL     1     -11.557  13.540  68.312  1.00  0.00    -0.381 A  
HETATM    6  C   UNL     1     -12.424  14.542  70.763  1.00  0.00    -0.420 A  
HETATM    7 CL   UNL     1     -13.689  11.908  68.050  1.00  0.00     8.137 Cl 
HETATM    8  C   UNL     1     -13.192  13.592  70.090  1.00  0.00     0.689 A  
HETATM    9  C   UNL     1     -12.749  13.087  68.875  1.00  0.00     0.998 A  
BRANCH   4  10
HETATM   10  C   UNL     1      -9.547  15.036  68.302  1.00  0.00    -0.210 C  
HETATM   11  H   UNL     1      -9.115  16.240  69.952  1.00  0.00     0.000 HD 
HETATM   12  O   UNL     1      -9.235  14.702  67.167  1.00  0.00    -0.202 OA 
HETATM   13  N   UNL     1      -8.763  15.898  69.058  1.00  0.00    -0.222 N  
BRANCH  13  14
HETATM   14  C   UNL     1      -7.453  16.323  68.598  1.00  0.00    -0.185 C  
BRANCH  14  15
HETATM   15  C   UNL     1      -7.018  15.650  67.291  1.00  0.00    -0.224 C  
BRANCH  15  16
HETATM   16  C   UNL     1      -6.794  14.150  67.364  1.00  0.00    -0.033 A  
HETATM   17  C   UNL     1      -5.518  13.566  67.425  1.00  0.00     0.203 A  
HETATM   18  C   UNL     1      -5.360  12.177  67.417  1.00  0.00    -0.119 A  
HETATM   19  C   UNL     1      -6.482  11.352  67.358  1.00  0.00    -0.083 A  
HETATM   20  C   UNL     1      -7.914  13.302  67.342  1.00  0.00    -0.175 A  
HETATM   21  C   UNL     1      -7.762  11.911  67.324  1.00  0.00    -0.164 A  
BRANCH  19  22
HETATM   22  S   UNL     1      -6.265   9.596  67.170  1.00  0.00    -0.065 S  
HETATM   23  O   UNL     1      -5.426   9.149  68.266  1.00  0.00    -0.037 OA 
HETATM   24  O   UNL     1      -5.898   9.306  65.803  1.00  0.00    -0.052 OA 
BRANCH  22  25
HETATM   25  N   UNL     1      -7.765   8.953  67.489  1.00  0.00    -0.100 N  
HETATM   26  H   UNL     1      -8.450   8.939  66.733  1.00  0.00     0.000 HD 
BRANCH  25  27
HETATM   27  C   UNL     1      -8.139   8.435  68.716  1.00  0.00    -0.121 C  
HETATM   28  O   UNL     1      -8.433   9.131  69.670  1.00  0.00    -0.118 OA 
BRANCH  27  29
HETATM   29  N   UNL     1      -8.126   7.067  68.749  1.00  0.00    -0.120 N  
HETATM   30  H   UNL     1      -8.747   6.535  68.139  1.00  0.00     0.000 HD 
BRANCH  29  31
HETATM   31  C   UNL     1      -7.223   6.372  69.656  1.00  0.00    -0.078 C  
HETATM   32  C   UNL     1      -6.758   7.282  70.798  1.00  0.00    -0.048 C  
HETATM   33  C   UNL     1      -7.845   7.521  71.844  1.00  0.00    -0.094 C  
HETATM   34  C   UNL     1      -8.407   6.206  72.371  1.00  0.00    -0.115 C  
HETATM   35  C   UNL     1      -8.921   5.320  71.242  1.00  0.00    -0.158 C  
HETATM   36  C   UNL     1      -7.850   5.078  70.181  1.00  0.00    -0.067 C  
ENDBRANCH  29  31
ENDBRANCH  27  29
ENDBRANCH  25  27
ENDBRANCH  22  25
ENDBRANCH  19  22
ENDBRANCH  15  16
ENDBRANCH  14  15
ENDBRANCH  13  14
ENDBRANCH   4  10
ENDBRANCH   2   3
TORSDOF 10
ENDMDL
MODEL      348
REMARK 921   NORMALIZED FREE ENERGY PREDICTED BY IDOCK:   12.67 KCAL/MOL
REMARK 922        TOTAL FREE ENERGY PREDICTED BY IDOCK:   18.11 KCAL/MOL
REMARK 923 INTER-LIGAND FREE ENERGY PREDICTED BY IDOCK:    2.54 KCAL/MOL
REMARK 924 INTRA-LIGAND FREE ENERGY PREDICTED BY IDOCK:   15.57 KCAL/MOL
REMARK 927      BINDING AFFINITY PREDICTED BY RF-SCORE:    0.00 PKD
ROOT
HETATM    1  C   UNL     1      -6.074   7.241  67.694  1.00  0.00    -0.042 C  
HETATM    2  O   UNL     1      -7.484   7.214  67.483  1.00  0.00    -0.096 OA 
ENDROOT
BRANCH   2   3
HETATM    3  C   UNL     1      -8.237   7.910  68.393  1.00  0.00    -0.124 A  
HETATM    4  C   UNL     1      -8.258   7.486  69.739  1.00  0.00    -0.128 A  
HETATM    5  C   UNL     1      -9.039   8.193  70.671  1.00  0.00    -0.156 A  
HETATM    6  C   UNL     1      -9.055   8.980  67.998  1.00  0.00    -0.140 A  
HETATM    7 CL   UNL     1     -10.814  10.089  71.401  1.00  0.00    -0.042 Cl 
HETATM    8  C   UNL     1      -9.856   9.648  68.924  1.00  0.00    -0.179 A  
HETATM    9  C   UNL     1      -9.835   9.259  70.257  1.00  0.00    -0.222 A  
BRANCH   4  10
HETATM   10  C   UNL     1      -7.456   6.306  70.206  1.00  0.00    -0.094 C  
HETATM   11  H   UNL     1      -5.670   7.335  69.877  1.00  0.00     0.000 HD 
HETATM   12  O   UNL     1      -7.988   5.251  70.528  1.00  0.00    -0.094 OA 
HETATM   13  N   UNL     1      -6.081   6.484  70.260  1.00  0.00    -0.030 N  
BRANCH  13  14
HETATM   14  C   UNL     1      -5.214   5.481  70.853  1.00  0.00    -0.009 C  
BRANCH  14  15
HETATM   15  C   UNL     1      -5.224   4.146  70.099  1.00  0.00    -0.004 C  
BRANCH  15  16
HETATM   16  C   UNL     1      -6.402   3.924  69.166  1.00  0.00    -0.029 A  
HETATM   17  C   UNL     1      -7.502   3.116  69.497  1.00  0.00    -0.044 A  
HETATM   18  C   UNL     1      -8.527   2.883  68.576  1.00  0.00    -0.093 A  
HETATM   19  C   UNL     1      -8.469   3.466  67.311  1.00  0.00    -0.098 A  
HETATM   20  C   UNL     1      -6.379   4.532  67.900  1.00  0.00    -0.037 A  
HETATM   21  C   UNL     1      -7.397   4.295  66.970  1.00  0.00    -0.073 A  
BRANCH  19  22
HETATM   22  S   UNL     1      -9.685   3.024  66.089  1.00  0.00     0.363 S  
HETATM   23  O   UNL     1     -10.964   2.944  66.768  1.00  0.00     4.093 OA 
HETATM   24  O   UNL     1      -9.196   1.905  65.316  1.00  0.00    -0.122 OA 
BRANCH  22  25
HETATM   25  N   UNL     1      -9.802   4.363  65.111  1.00  0.00    -0.224 N  
HETATM   26  H   UNL     1      -9.976   4.216  64.117  1.00  0.00     0.000 HD 
BRANCH  25  27
HETATM   27  C   UNL     1      -9.676   5.665  65.564  1.00  0.00     0.264 C  
HETATM   28  O   UNL     1      -9.904   5.994  66.713  1.00  0.00    -0.148 OA 
BRANCH  27  29
HETATM   29  N   UNL     1      -9.290   6.539  64.586  1.00  0.00     0.518 N  
HETATM   30  H   UNL     1      -9.938   7.255  64.256  1.00  0.00     0.000 HD 
BRANCH  29  31
HETATM   31  C   UNL     1      -7.953   6.447  64.017  1.00  0.00    -0.090 C  
HETATM   32  C   UNL     1      -7.649   7.629  63.091  1.00  0.00    -0.119 C  
HETATM   33  C   UNL     1      -7.384   8.925  63.854  1.00  0.00    -0.098 C  
HETATM   34  C   UNL     1      -6.290   8.740  64.899  1.00  0.00    -0.065 C  
HETATM   35  C   UNL     1      -6.614   7.598  65.857  1.00  0.00    -0.046 C  
HETATM   36  C   UNL     1      -6.893   6.295  65.111  1.00  0.00    -0.047 C  
ENDBRANCH  29  31
ENDBRANCH  27  29
ENDBRANCH  25  27
ENDBRANCH  22  25
ENDBRANCH  19  22
ENDBRANCH  15  16
ENDBRANCH  14  15
ENDBRANCH  13  14
ENDBRANCH   4  10
ENDBRANCH   2   3
TORSDOF 10
ENDMDL
MODEL      349
REMARK 921   NORMALIZED FREE ENERGY PREDICTED BY IDOCK:   14.63 KCAL/MOL
REMARK 922        TOTAL FREE ENERGY PREDICTED BY IDOCK:   21.22 KCAL/MOL
REMARK 923 INTER-LIGAND FREE ENERGY PREDICTED BY IDOCK:   18.24 KCAL/MOL
REMARK 924 INTRA-LIGAND FREE ENERGY PREDICTED BY IDOCK:    2.97 KCAL/MOL
REMARK 927      BINDING AFFINITY PREDICTED BY RF-SCORE:    0.00 PKD
ROOT
HETATM    1  C   UNL     1      -8.970  12.767  66.291  1.00  0.00     0.054 C  
HETATM    2  O   UNL     1      -9.375  11.470  65.855  1.00  0.00    -0.221 OA 
ENDROOT
BRANCH   2   3
HETATM    3  C   UNL     1     -10.486  11.431  65.054  1.00  0.00    -0.303 A  
HETATM    4  C   UNL     1     -11.546  10.560  65.385  1.00  0.00     1.736 A  
HETATM    5  C   UNL     1     -12.681  10.512  64.556  1.00  0.00     6.105 A  
HETATM    6  C   UNL     1     -10.553  12.172  63.863  1.00  0.00    -0.457 A  
HETATM    7 CL   UNL     1     -14.109  11.166  62.361  1.00  0.00     4.758 Cl 
HETATM    8  C   UNL     1     -11.667  12.085  63.028  1.00  0.00    -0.076 A  
HETATM    9  C   UNL     1     -12.730  11.265  63.384  1.00  0.00     0.826 A  
BRANCH   4  10
HETATM   10  C   UNL     1     -11.500   9.693  66.609  1.00  0.00     1.760 C  
HETATM   11  H   UNL     1      -9.417   9.600  66.516  1.00  0.00     0.000 HD 
HETATM   12  O   UNL     1     -12.520   9.311  67.168  1.00  0.00     5.845 OA 
HETATM   13  N   UNL     1     -10.236   9.358  67.074  1.00  0.00    -0.240 N  
BRANCH  13  14
HETATM   14  C   UNL     1     -10.057   8.669  68.339  1.00  0.00    -0.191 C  
BRANCH  14  15
HETATM   15  C   UNL     1     -10.706   9.394  69.525  1.00  0.00    -0.238 C  
BRANCH  15  16
HETATM   16  C   UNL     1     -10.645  10.910  69.483  1.00  0.00    -0.217 A  
HETATM   17  C   UNL     1      -9.553  11.622  68.960  1.00  0.00     0.095 A  
HETATM   18  C   UNL     1      -9.511  13.018  69.012  1.00  0.00     0.407 A  
HETATM   19  C   UNL     1     -10.570  13.723  69.581  1.00  0.00     0.313 A  
HETATM   20  C   UNL     1     -11.720  11.640  70.019  1.00  0.00    -0.402 A  
HETATM   21  C   UNL     1     -11.679  13.037  70.083  1.00  0.00    -0.244 A  
BRANCH  19  22
HETATM   22  S   UNL     1     -10.429  15.483  69.800  1.00  0.00    -0.313 S  
HETATM   23  O   UNL     1     -10.111  15.716  71.197  1.00  0.00     0.593 OA 
HETATM   24  O   UNL     1     -11.569  16.130  69.193  1.00  0.00    -0.342 OA 
BRANCH  22  25
HETATM   25  N   UNL     1      -9.050  15.900  68.971  1.00  0.00    -0.225 N  
HETATM   26  H   UNL     1      -8.929  15.532  68.028  1.00  0.00     0.000 HD 
BRANCH  25  27
HETATM   27  C   UNL     1      -8.056  16.715  69.484  1.00  0.00     0.295 C  
HETATM   28  O   UNL     1      -7.041  16.284  69.999  1.00  0.00     0.113 OA 
BRANCH  27  29
HETATM   29  N   UNL     1      -8.342  18.048  69.368  1.00  0.00     0.313 N  
HETATM   30  H   UNL     1      -8.577  18.594  70.197  1.00  0.00     0.000 HD 
BRANCH  29  31
HETATM   31  C   UNL     1      -8.309  18.686  68.059  1.00  0.00    -0.277 C  
HETATM   32  C   UNL     1      -7.117  19.640  67.925  1.00  0.00    -0.301 C  
HETATM   33  C   UNL     1      -5.789  18.907  67.754  1.00  0.00    -0.196 C  
HETATM   34  C   UNL     1      -5.845  17.918  66.595  1.00  0.00    -0.198 C  
HETATM   35  C   UNL     1      -6.997  16.931  66.752  1.00  0.00    -0.270 C  
HETATM   36  C   UNL     1      -8.334  17.647  66.934  1.00  0.00    -0.258 C  
ENDBRANCH  29  31
ENDBRANCH  27  29
ENDBRANCH  25  27
ENDBRANCH  22  25
ENDBRANCH  19  22
ENDBRANCH  15  16
ENDBRANCH  14  15
ENDBRANCH  13  14
ENDBRANCH   4  10
ENDBRANCH   2   3
TORSDOF 10
ENDMDL
MODEL      350
REMARK 921   NORMALIZED FREE ENERGY PREDICTED BY IDOCK:   24.16 KCAL/MOL
REMARK 922        TOTAL FREE ENERGY PREDICTED BY IDOCK:   36.32 KCAL/MOL
REMARK 923 INTER-LIGAND FREE ENERGY PREDICTED BY IDOCK:   25.85 KCAL/MOL
REMARK 924 INTRA-LIGAND FREE ENERGY PREDICTED BY IDOCK:   10.47 KCAL/MOL
REMARK 927      BINDING AFFINITY PREDICTED BY RF-SCORE:    0.00 PKD
ROOT
HETATM    1  C   UNL     1      -9.060  12.683  66.291  1.00  0.00    -0.046 C  
HETATM    2  O   UNL     1      -9.300  11.322  65.933  1.00  0.00    -0.208 OA 
ENDROOT
BRANCH   2   3
HETATM    3  C   UNL     1     -10.387  11.101  65.128  1.00  0.00    -0.293 A  
HETATM    4  C   UNL     1     -11.268  10.042  65.435  1.00  0.00     1.814 A  
HETATM    5  C   UNL     1     -12.378   9.808  64.603  1.00  0.00    10.495 A  
HETATM    6  C   UNL     1     -10.592  11.847  63.957  1.00  0.00    -0.422 A  
HETATM    7 CL   UNL     1     -13.907  10.246  62.423  1.00  0.00     8.125 Cl 
HETATM    8  C   UNL     1     -11.674  11.579  63.119  1.00  0.00     0.022 A  
HETATM    9  C   UNL     1     -12.567  10.569  63.451  1.00  0.00     4.710 A  
BRANCH   4  10
HETATM   10  C   UNL     1     -11.061   9.167  66.636  1.00  0.00     0.756 C  
HETATM   11  H   UNL     1      -8.994   9.439  66.530  1.00  0.00     0.000 HD 
HETATM   12  O   UNL     1     -11.993   8.600  67.191  1.00  0.00     3.170 OA 
HETATM   13  N   UNL     1      -9.753   9.045  67.086  1.00  0.00    -0.169 N  
BRANCH  13  14
HETATM   14  C   UNL     1      -9.445   8.367  68.332  1.00  0.00    -0.139 C  
BRANCH  14  15
HETATM   15  C   UNL     1     -10.312   8.832  69.508  1.00  0.00    -0.213 C  
BRANCH  15  16
HETATM   16  C   UNL     1     -10.632  10.316  69.546  1.00  0.00    -0.270 A  
HETATM   17  C   UNL     1      -9.684  11.313  69.266  1.00  0.00     0.110 A  
HETATM   18  C   UNL     1     -10.007  12.668  69.386  1.00  0.00     0.789 A  
HETATM   19  C   UNL     1     -11.291  13.043  69.778  1.00  0.00    -0.044 A  
HETATM   20  C   UNL     1     -11.931  10.713  69.904  1.00  0.00    -0.385 A  
HETATM   21  C   UNL     1     -12.258  12.067  70.035  1.00  0.00    -0.280 A  
BRANCH  19  22
HETATM   22  S   UNL     1     -11.641  14.758  70.097  1.00  0.00    -0.299 S  
HETATM   23  O   UNL     1     -11.081  15.074  71.398  1.00  0.00    -0.273 OA 
HETATM   24  O   UNL     1     -13.035  15.018  69.819  1.00  0.00    -0.002 OA 
BRANCH  22  25
HETATM   25  N   UNL     1     -10.695  15.588  69.010  1.00  0.00    -0.231 N  
HETATM   26  H   UNL     1     -11.154  16.248  68.383  1.00  0.00     0.000 HD 
BRANCH  25  27
HETATM   27  C   UNL     1      -9.324  15.436  68.906  1.00  0.00    -0.218 C  
HETATM   28  O   UNL     1      -8.530  16.102  69.544  1.00  0.00    -0.166 OA 
BRANCH  27  29
HETATM   29  N   UNL     1      -8.956  14.479  68.000  1.00  0.00    -0.174 N  
HETATM   30  H   UNL     1      -9.669  13.946  67.503  1.00  0.00     0.000 HD 
BRANCH  29  31
HETATM   31  C   UNL     1      -7.545  14.222  67.749  1.00  0.00    -0.165 C  
HETATM   32  C   UNL     1      -6.659  15.342  68.303  1.00  0.00    -0.116 C  
HETATM   33  C   UNL     1      -6.536  15.301  69.825  1.00  0.00    -0.177 C  
HETATM   34  C   UNL     1      -6.073  13.932  70.308  1.00  0.00    -0.141 C  
HETATM   35  C   UNL     1      -6.984  12.818  69.804  1.00  0.00     0.388 C  
HETATM   36  C   UNL     1      -7.126  12.849  68.284  1.00  0.00    -0.102 C  
ENDBRANCH  29  31
ENDBRANCH  27  29
ENDBRANCH  25  27
ENDBRANCH  22  25
ENDBRANCH  19  22
ENDBRANCH  15  16
ENDBRANCH  14  15
ENDBRANCH  13  14
ENDBRANCH   4  10
ENDBRANCH   2   3
TORSDOF 10
ENDMDL
MODEL      351
REMARK 921   NORMALIZED FREE ENERGY PREDICTED BY IDOCK:   25.43 KCAL/MOL
REMARK 922        TOTAL FREE ENERGY PREDICTED BY IDOCK:   38.32 KCAL/MOL
REMARK 923 INTER-LIGAND FREE ENERGY PREDICTED BY IDOCK:   26.24 KCAL/MOL
REMARK 924 INTRA-LIGAND FREE ENERGY PREDICTED BY IDOCK:   12.08 KCAL/MOL
REMARK 927      BINDING AFFINITY PREDICTED BY RF-SCORE:    0.00 PKD
ROOT
HETATM    1  C   UNL     1     -12.294   3.558  65.493  1.00  0.00     9.316 C  
HETATM    2  O   UNL     1     -11.766   4.449  64.512  1.00  0.00     0.090 OA 
ENDROOT
BRANCH   2   3
HETATM    3  C   UNL     1     -11.224   5.613  64.994  1.00  0.00     2.839 A  
HETATM    4  C   UNL     1      -9.821   5.739  65.077  1.00  0.00     0.941 A  
HETATM    5  C   UNL     1      -9.266   6.928  65.582  1.00  0.00     0.176 A  
HETATM    6  C   UNL     1     -12.036   6.645  65.489  1.00  0.00     7.115 A  
HETATM    7 CL   UNL     1      -9.398   9.377  66.709  1.00  0.00    -0.188 Cl 
HETATM    8  C   UNL     1     -11.473   7.804  66.025  1.00  0.00     4.710 A  
HETATM    9  C   UNL     1     -10.092   7.944  66.058  1.00  0.00     0.465 A  
BRANCH   4  10
HETATM   10  C   UNL     1      -8.903   4.640  64.626  1.00  0.00    -0.153 C  
HETATM   11  H   UNL     1      -9.678   4.730  62.689  1.00  0.00     0.000 HD 
HETATM   12  O   UNL     1      -8.147   4.071  65.403  1.00  0.00    -0.099 OA 
HETATM   13  N   UNL     1      -8.956   4.314  63.278  1.00  0.00    -0.126 N  
BRANCH  13  14
HETATM   14  C   UNL     1      -8.003   3.390  62.689  1.00  0.00    -0.071 C  
BRANCH  14  15
HETATM   15  C   UNL     1      -7.881   2.069  63.457  1.00  0.00    -0.061 C  
BRANCH  15  16
HETATM   16  C   UNL     1      -8.135   2.149  64.952  1.00  0.00    -0.079 A  
HETATM   17  C   UNL     1      -9.339   1.743  65.550  1.00  0.00     0.060 A  
HETATM   18  C   UNL     1      -9.554   1.906  66.921  1.00  0.00     0.298 A  
HETATM   19  C   UNL     1      -8.558   2.470  67.717  1.00  0.00    -0.096 A  
HETATM   20  C   UNL     1      -7.129   2.683  65.776  1.00  0.00    -0.064 A  
HETATM   21  C   UNL     1      -7.342   2.857  67.147  1.00  0.00    -0.062 A  
BRANCH  19  22
HETATM   22  S   UNL     1      -8.905   2.834  69.423  1.00  0.00    -0.107 S  
HETATM   23  O   UNL     1      -7.943   3.831  69.853  1.00  0.00    -0.051 OA 
HETATM   24  O   UNL     1      -9.050   1.596  70.153  1.00  0.00    -0.071 OA 
BRANCH  22  25
HETATM   25  N   UNL     1     -10.363   3.632  69.393  1.00  0.00     0.978 N  
HETATM   26  H   UNL     1     -11.037   3.371  68.673  1.00  0.00     0.000 HD 
BRANCH  25  27
HETATM   27  C   UNL     1     -10.719   4.628  70.286  1.00  0.00     0.642 C  
HETATM   28  O   UNL     1     -11.645   5.394  70.094  1.00  0.00     0.660 OA 
BRANCH  27  29
HETATM   29  N   UNL     1      -9.912   4.674  71.389  1.00  0.00    -0.193 N  
HETATM   30  H   UNL     1      -9.909   3.899  72.053  1.00  0.00     0.000 HD 
BRANCH  29  31
HETATM   31  C   UNL     1      -9.055   5.830  71.615  1.00  0.00    -0.143 C  
HETATM   32  C   UNL     1      -9.189   6.363  73.045  1.00  0.00    -0.137 C  
HETATM   33  C   UNL     1      -8.495   5.475  74.075  1.00  0.00    -0.115 C  
HETATM   34  C   UNL     1      -7.036   5.232  73.704  1.00  0.00    -0.082 C  
HETATM   35  C   UNL     1      -6.900   4.650  72.302  1.00  0.00    -0.056 C  
HETATM   36  C   UNL     1      -7.598   5.520  71.259  1.00  0.00    -0.099 C  
ENDBRANCH  29  31
ENDBRANCH  27  29
ENDBRANCH  25  27
ENDBRANCH  22  25
ENDBRANCH  19  22
ENDBRANCH  15  16
ENDBRANCH  14  15
ENDBRANCH  13  14
ENDBRANCH   4  10
ENDBRANCH   2   3
TORSDOF 10
ENDMDL
MODEL      352
REMARK 921   NORMALIZED FREE ENERGY PREDICTED BY IDOCK:   25.74 KCAL/MOL
REMARK 922        TOTAL FREE ENERGY PREDICTED BY IDOCK:   38.82 KCAL/MOL
REMARK 923 INTER-LIGAND FREE ENERGY PREDICTED BY IDOCK:   33.64 KCAL/MOL
REMARK 924 INTRA-LIGAND FREE ENERGY PREDICTED BY IDOCK:    5.18 KCAL/MOL
REMARK 927      BINDING AFFINITY PREDICTED BY RF-SCORE:    0.00 PKD
ROOT
HETATM    1  C   UNL     1     -10.639  10.919  67.480  1.00  0.00    -0.230 C  
HETATM    2  O   UNL     1      -9.950   9.991  68.317  1.00  0.00    -0.147 OA 
ENDROOT
BRANCH   2   3
HETATM    3  C   UNL     1     -10.712   9.370  69.272  1.00  0.00    -0.211 A  
HETATM    4  C   UNL     1     -11.825  10.046  69.814  1.00  0.00    -0.087 A  
HETATM    5  C   UNL     1     -12.601   9.413  70.802  1.00  0.00    -0.109 A  
HETATM    6  C   UNL     1     -10.357   8.112  69.784  1.00  0.00    -0.216 A  
HETATM    7 CL   UNL     1     -13.171   7.415  72.523  1.00  0.00     0.288 Cl 
HETATM    8  C   UNL     1     -11.111   7.512  70.793  1.00  0.00    -0.280 A  
HETATM    9  C   UNL     1     -12.235   8.160  71.288  1.00  0.00    -0.279 A  
BRANCH   4  10
HETATM   10  C   UNL     1     -12.213  11.421  69.354  1.00  0.00    -0.221 C  
HETATM   11  H   UNL     1     -14.157  10.781  68.942  1.00  0.00     0.000 HD 
HETATM   12  O   UNL     1     -11.403  12.338  69.305  1.00  0.00    -0.255 OA 
HETATM   13  N   UNL     1     -13.543  11.594  68.996  1.00  0.00     4.316 N  
BRANCH  13  14
HETATM   14  C   UNL     1     -14.078  12.911  68.698  1.00  0.00    11.187 C  
BRANCH  14  15
HETATM   15  C   UNL     1     -14.226  13.182  67.196  1.00  0.00    13.033 C  
BRANCH  15  16
HETATM   16  C   UNL     1     -12.964  13.010  66.368  1.00  0.00     1.175 A  
HETATM   17  C   UNL     1     -12.809  11.999  65.406  1.00  0.00     1.383 A  
HETATM   18  C   UNL     1     -11.601  11.835  64.722  1.00  0.00    -0.241 A  
HETATM   19  C   UNL     1     -10.533  12.692  64.984  1.00  0.00    -0.308 A  
HETATM   20  C   UNL     1     -11.890  13.886  66.592  1.00  0.00    -0.447 A  
HETATM   21  C   UNL     1     -10.675  13.722  65.918  1.00  0.00    -0.285 A  
BRANCH  19  22
HETATM   22  S   UNL     1      -8.950  12.369  64.240  1.00  0.00     1.583 S  
HETATM   23  O   UNL     1      -8.055  13.431  64.659  1.00  0.00     5.335 OA 
HETATM   24  O   UNL     1      -9.135  12.080  62.836  1.00  0.00    -0.109 OA 
BRANCH  22  25
HETATM   25  N   UNL     1      -8.392  11.008  65.016  1.00  0.00    -0.378 N  
HETATM   26  H   UNL     1      -7.775  11.133  65.818  1.00  0.00     0.000 HD 
BRANCH  25  27
HETATM   27  C   UNL     1      -8.715   9.716  64.638  1.00  0.00    -0.201 C  
HETATM   28  O   UNL     1      -8.993   8.840  65.436  1.00  0.00    -0.197 OA 
BRANCH  27  29
HETATM   29  N   UNL     1      -8.672   9.525  63.285  1.00  0.00    -0.222 N  
HETATM   30  H   UNL     1      -9.363   9.973  62.683  1.00  0.00     0.000 HD 
BRANCH  29  31
HETATM   31  C   UNL     1      -7.636   8.680  62.704  1.00  0.00    -0.114 C  
HETATM   32  C   UNL     1      -6.380   8.643  63.580  1.00  0.00    -0.081 C  
HETATM   33  C   UNL     1      -6.560   7.795  64.837  1.00  0.00    -0.047 C  
HETATM   34  C   UNL     1      -7.043   6.391  64.495  1.00  0.00    -0.057 C  
HETATM   35  C   UNL     1      -8.324   6.421  63.669  1.00  0.00     0.141 C  
HETATM   36  C   UNL     1      -8.166   7.274  62.412  1.00  0.00    -0.074 C  
ENDBRANCH  29  31
ENDBRANCH  27  29
ENDBRANCH  25  27
ENDBRANCH  22  25
ENDBRANCH  19  22
ENDBRANCH  15  16
ENDBRANCH  14  15
ENDBRANCH  13  14
ENDBRANCH   4  10
ENDBRANCH   2   3
TORSDOF 10
ENDMDL
MODEL      353
REMARK 921   NORMALIZED FREE ENERGY PREDICTED BY IDOCK:   35.35 KCAL/MOL
REMARK 922        TOTAL FREE ENERGY PREDICTED BY IDOCK:   54.05 KCAL/MOL
REMARK 923 INTER-LIGAND FREE ENERGY PREDICTED BY IDOCK:    5.20 KCAL/MOL
REMARK 924 INTRA-LIGAND FREE ENERGY PREDICTED BY IDOCK:   48.86 KCAL/MOL
REMARK 927      BINDING AFFINITY PREDICTED BY RF-SCORE:    0.00 PKD
ROOT
HETATM    1  C   UNL     1     -13.984  12.715  73.190  1.00  0.00     2.389 C  
HETATM    2  O   UNL     1     -13.869  12.456  71.791  1.00  0.00     0.023 OA 
ENDROOT
BRANCH   2   3
HETATM    3  C   UNL     1     -12.891  11.566  71.429  1.00  0.00    -0.384 A  
HETATM    4  C   UNL     1     -12.335  11.642  70.135  1.00  0.00    -0.297 A  
HETATM    5  C   UNL     1     -11.339  10.722  69.758  1.00  0.00    -0.372 A  
HETATM    6  C   UNL     1     -12.496  10.527  72.286  1.00  0.00     0.388 A  
HETATM    7 CL   UNL     1      -9.765   8.565  70.142  1.00  0.00    -0.170 Cl 
HETATM    8  C   UNL     1     -11.537   9.596  71.887  1.00  0.00    -0.167 A  
HETATM    9  C   UNL     1     -10.955   9.705  70.630  1.00  0.00    -0.320 A  
BRANCH   4  10
HETATM   10  C   UNL     1     -12.767  12.690  69.151  1.00  0.00     0.948 C  
HETATM   11  H   UNL     1     -12.792  14.145  70.648  1.00  0.00     0.000 HD 
HETATM   12  O   UNL     1     -12.998  12.420  67.979  1.00  0.00     1.436 OA 
HETATM   13  N   UNL     1     -12.882  13.983  69.645  1.00  0.00     0.164 N  
BRANCH  13  14
HETATM   14  C   UNL     1     -13.126  15.108  68.760  1.00  0.00     1.773 C  
BRANCH  14  15
HETATM   15  C   UNL     1     -12.211  15.126  67.530  1.00  0.00     0.369 C  
BRANCH  15  16
HETATM   16  C   UNL     1     -10.869  15.811  67.718  1.00  0.00    -0.316 A  
HETATM   17  C   UNL     1     -10.445  16.349  68.944  1.00  0.00    -0.285 A  
HETATM   18  C   UNL     1      -9.232  17.035  69.050  1.00  0.00    -0.154 A  
HETATM   19  C   UNL     1      -8.419  17.183  67.927  1.00  0.00    -0.212 A  
HETATM   20  C   UNL     1     -10.019  15.938  66.607  1.00  0.00    -0.267 A  
HETATM   21  C   UNL     1      -8.808  16.632  66.703  1.00  0.00    -0.280 A  
BRANCH  19  22
HETATM   22  S   UNL     1      -6.967  18.206  68.029  1.00  0.00    -0.221 S  
HETATM   23  O   UNL     1      -6.729  18.471  69.436  1.00  0.00    -0.260 OA 
HETATM   24  O   UNL     1      -7.087  19.297  67.090  1.00  0.00    -0.204 OA 
BRANCH  22  25
HETATM   25  N   UNL     1      -5.720  17.210  67.564  1.00  0.00    -0.126 N  
HETATM   26  H   UNL     1      -4.822  17.639  67.342  1.00  0.00     0.000 HD 
BRANCH  25  27
HETATM   27  C   UNL     1      -5.827  15.834  67.460  1.00  0.00    -0.097 C  
HETATM   28  O   UNL     1      -6.233  15.272  66.460  1.00  0.00     0.799 OA 
BRANCH  27  29
HETATM   29  N   UNL     1      -5.447  15.178  68.599  1.00  0.00    -0.088 N  
HETATM   30  H   UNL     1      -4.569  14.660  68.622  1.00  0.00     0.000 HD 
BRANCH  29  31
HETATM   31  C   UNL     1      -6.299  15.222  69.780  1.00  0.00    -0.162 C  
HETATM   32  C   UNL     1      -5.863  16.323  70.751  1.00  0.00     0.216 C  
HETATM   33  C   UNL     1      -6.232  17.722  70.264  1.00  0.00     0.225 C  
HETATM   34  C   UNL     1      -7.717  17.823  69.937  1.00  0.00     1.306 C  
HETATM   35  C   UNL     1      -8.146  16.763  68.928  1.00  0.00    -0.230 C  
HETATM   36  C   UNL     1      -7.775  15.356  69.394  1.00  0.00    -0.227 C  
ENDBRANCH  29  31
ENDBRANCH  27  29
ENDBRANCH  25  27
ENDBRANCH  22  25
ENDBRANCH  19  22
ENDBRANCH  15  16
ENDBRANCH  14  15
ENDBRANCH  13  14
ENDBRANCH   4  10
ENDBRANCH   2   3
TORSDOF 10
ENDMDL
